MODEL 1
REMARK VINA RESULT:      -7.0      0.000      0.000
REMARK  Name = 
REMARK  6 active torsions:
REMARK  status: ('A' for Active; 'I' for Inactive)
REMARK    1  A    between atoms: C_1  and  N_2
REMARK    2  A    between atoms: C_3  and  C_5
REMARK    3  A    between atoms: C_9  and  C_10
REMARK    4  A    between atoms: C_10  and  C_11
REMARK    5  A    between atoms: C_11  and  N_12
REMARK    6  A    between atoms: N_12  and  C_13
REMARK                            x       y       z     vdW  Elec       q    Type
REMARK                         _______ _______ _______ _____ _____    ______ ____
ROOT
ATOM      1  C   UNL     1       3.114   7.607  18.595  0.00  0.00    +0.000 C 
ENDROOT
BRANCH   1   2
ATOM      2  N   UNL     1       2.077   6.584  18.888  0.00  0.00    +0.000 NA
ATOM      3  H   UNL     1       1.721   6.249  17.985  0.00  0.00    +0.000 HD
BRANCH   2   4
ATOM      4  C   UNL     1       2.393   5.377  19.694  0.00  0.00    +0.000 C 
ATOM      5  C   UNL     1       1.551   5.140  20.951  0.00  0.00    +0.000 C 
ATOM      6  C   UNL     1       2.212   4.146  21.896  0.00  0.00    +0.000 C 
ATOM      7  S   UNL     1       2.525   2.514  21.227  0.00  0.00    +0.000 S 
ATOM      8  C   UNL     1       3.080   2.936  19.577  0.00  0.00    +0.000 A 
ATOM      9  C   UNL     1       3.704   1.879  18.903  0.00  0.00    +0.000 A 
ATOM     10  C   UNL     1       3.584   1.782  17.529  0.00  0.00    +0.000 A 
ATOM     11  C   UNL     1       2.826   2.740  16.857  0.00  0.00    +0.000 A 
ATOM     12  C   UNL     1       2.376   3.902  17.520  0.00  0.00    +0.000 A 
ATOM     13  C   UNL     1       2.585   4.069  18.901  0.00  0.00    +0.000 A 
ENDBRANCH   2   4
ENDBRANCH   1   2
BRANCH   1  14
ATOM     14  C   UNL     1       3.632   7.337  17.168  0.00  0.00    +0.000 C 
BRANCH  14  19
ATOM     15  C   UNL     1       6.410   5.200  15.440  0.00  0.00    +0.000 A 
ATOM     16  C   UNL     1       6.995   4.637  16.586  0.00  0.00    +0.000 A 
ATOM     17  C   UNL     1       6.521   4.998  17.846  0.00  0.00    +0.000 A 
ATOM     18  C   UNL     1       5.452   5.867  17.956  0.00  0.00    +0.000 A 
ATOM     19  C   UNL     1       4.819   6.448  16.838  0.00  0.00    +0.000 A 
ATOM     20  C   UNL     1       5.319   6.102  15.569  0.00  0.00    +0.000 A 
BRANCH  15  23
ATOM     21  C   UNL     1       6.628   3.292  12.184  0.00  0.00    +0.000 C 
ATOM     22  N   UNL     1       6.249   3.731  13.494  0.00  0.00    +0.000 N 
ATOM     23  C   UNL     1       6.947   4.749  14.121  0.00  0.00    +0.000 C 
ATOM     24  O   UNL     1       7.907   5.320  13.610  0.00  0.00    +0.000 OA
ATOM     25  H   UNL     1       5.355   3.473  13.851  0.00  0.00    +0.000 HD
ENDBRANCH  15  23
ENDBRANCH  14  19
ENDBRANCH   1  14
TORSDOF 5
ENDMDL
MODEL 2
REMARK VINA RESULT:      -6.9      3.103      4.536
REMARK  Name = 
REMARK  6 active torsions:
REMARK  status: ('A' for Active; 'I' for Inactive)
REMARK    1  A    between atoms: C_1  and  N_2
REMARK    2  A    between atoms: C_3  and  C_5
REMARK    3  A    between atoms: C_9  and  C_10
REMARK    4  A    between atoms: C_10  and  C_11
REMARK    5  A    between atoms: C_11  and  N_12
REMARK    6  A    between atoms: N_12  and  C_13
REMARK                            x       y       z     vdW  Elec       q    Type
REMARK                         _______ _______ _______ _____ _____    ______ ____
ROOT
ATOM      1  C   UNL     1       5.169   4.478  15.295  0.00  0.00    +0.000 C 
ENDROOT
BRANCH   1   2
ATOM      2  N   UNL     1       4.303   3.943  16.377  0.00  0.00    +0.000 NA
ATOM      3  H   UNL     1       4.806   3.154  16.803  0.00  0.00    +0.000 HD
BRANCH   2   4
ATOM      4  C   UNL     1       3.847   4.808  17.496  0.00  0.00    +0.000 C 
ATOM      5  C   UNL     1       3.720   6.306  17.209  0.00  0.00    +0.000 C 
ATOM      6  C   UNL     1       3.657   7.125  18.491  0.00  0.00    +0.000 C 
ATOM      7  S   UNL     1       2.304   6.744  19.601  0.00  0.00    +0.000 S 
ATOM      8  C   UNL     1       2.275   4.957  19.484  0.00  0.00    +0.000 A 
ATOM      9  C   UNL     1       1.521   4.337  20.487  0.00  0.00    +0.000 A 
ATOM     10  C   UNL     1       0.855   3.157  20.208  0.00  0.00    +0.000 A 
ATOM     11  C   UNL     1       0.947   2.628  18.921  0.00  0.00    +0.000 A 
ATOM     12  C   UNL     1       1.866   3.153  17.987  0.00  0.00    +0.000 A 
ATOM     13  C   UNL     1       2.633   4.291  18.294  0.00  0.00    +0.000 A 
ENDBRANCH   2   4
ENDBRANCH   1   2
BRANCH   1  14
ATOM     14  C   UNL     1       6.620   4.460  15.819  0.00  0.00    +0.000 C 
BRANCH  14  19
ATOM     15  C   UNL     1       7.889   7.384  18.079  0.00  0.00    +0.000 A 
ATOM     16  C   UNL     1       8.257   6.638  19.211  0.00  0.00    +0.000 A 
ATOM     17  C   UNL     1       8.040   5.262  19.228  0.00  0.00    +0.000 A 
ATOM     18  C   UNL     1       7.509   4.637  18.116  0.00  0.00    +0.000 A 
ATOM     19  C   UNL     1       7.137   5.335  16.948  0.00  0.00    +0.000 A 
ATOM     20  C   UNL     1       7.333   6.728  16.947  0.00  0.00    +0.000 A 
BRANCH  15  23
ATOM     21  C   UNL     1       9.415  10.654  19.206  0.00  0.00    +0.000 C 
ATOM     22  N   UNL     1       9.005   9.283  19.137  0.00  0.00    +0.000 N 
ATOM     23  C   UNL     1       8.176   8.849  18.117  0.00  0.00    +0.000 C 
ATOM     24  O   UNL     1       7.750   9.591  17.235  0.00  0.00    +0.000 OA
ATOM     25  H   UNL     1       9.496   8.604  19.676  0.00  0.00    +0.000 HD
ENDBRANCH  15  23
ENDBRANCH  14  19
ENDBRANCH   1  14
TORSDOF 5
ENDMDL
MODEL 3
REMARK VINA RESULT:      -6.7      6.435      8.732
REMARK  Name = 
REMARK  6 active torsions:
REMARK  status: ('A' for Active; 'I' for Inactive)
REMARK    1  A    between atoms: C_1  and  N_2
REMARK    2  A    between atoms: C_3  and  C_5
REMARK    3  A    between atoms: C_9  and  C_10
REMARK    4  A    between atoms: C_10  and  C_11
REMARK    5  A    between atoms: C_11  and  N_12
REMARK    6  A    between atoms: N_12  and  C_13
REMARK                            x       y       z     vdW  Elec       q    Type
REMARK                         _______ _______ _______ _____ _____    ______ ____
ROOT
ATOM      1  C   UNL     1       8.175   8.962  18.036  0.00  0.00    +0.000 C 
ENDROOT
BRANCH   1   2
ATOM      2  N   UNL     1       9.180   9.425  19.027  0.00  0.00    +0.000 NA
ATOM      3  H   UNL     1      10.105   9.318  18.591  0.00  0.00    +0.000 HD
BRANCH   2   4
ATOM      4  C   UNL     1       9.133  10.801  19.586  0.00  0.00    +0.000 C 
ATOM      5  C   UNL     1       9.277  10.941  21.103  0.00  0.00    +0.000 C 
ATOM      6  C   UNL     1       8.807  12.303  21.594  0.00  0.00    +0.000 C 
ATOM      7  S   UNL     1       9.659  13.722  20.910  0.00  0.00    +0.000 S 
ATOM      8  C   UNL     1       9.828  13.213  19.201  0.00  0.00    +0.000 A 
ATOM      9  C   UNL     1      10.179  14.253  18.333  0.00  0.00    +0.000 A 
ATOM     10  C   UNL     1      10.965  13.981  17.227  0.00  0.00    +0.000 A 
ATOM     11  C   UNL     1      11.395  12.672  17.021  0.00  0.00    +0.000 A 
ATOM     12  C   UNL     1      10.869  11.608  17.786  0.00  0.00    +0.000 A 
ATOM     13  C   UNL     1       9.982  11.857  18.849  0.00  0.00    +0.000 A 
ENDBRANCH   2   4
ENDBRANCH   1   2
BRANCH   1  14
ATOM     14  C   UNL     1       8.096   7.426  18.149  0.00  0.00    +0.000 C 
BRANCH  14  19
ATOM     15  C   UNL     1       5.150   4.858  18.193  0.00  0.00    +0.000 A 
ATOM     16  C   UNL     1       4.561   5.185  16.961  0.00  0.00    +0.000 A 
ATOM     17  C   UNL     1       5.086   6.230  16.203  0.00  0.00    +0.000 A 
ATOM     18  C   UNL     1       6.209   6.903  16.646  0.00  0.00    +0.000 A 
ATOM     19  C   UNL     1       6.849   6.606  17.867  0.00  0.00    +0.000 A 
ATOM     20  C   UNL     1       6.298   5.568  18.641  0.00  0.00    +0.000 A 
BRANCH  15  23
ATOM     21  C   UNL     1       2.626   2.232  19.199  0.00  0.00    +0.000 C 
ATOM     22  N   UNL     1       3.254   3.374  18.607  0.00  0.00    +0.000 N 
ATOM     23  C   UNL     1       4.555   3.711  18.941  0.00  0.00    +0.000 C 
ATOM     24  O   UNL     1       5.229   3.073  19.745  0.00  0.00    +0.000 OA
ATOM     25  H   UNL     1       2.848   3.781  17.792  0.00  0.00    +0.000 HD
ENDBRANCH  15  23
ENDBRANCH  14  19
ENDBRANCH   1  14
TORSDOF 5
ENDMDL
MODEL 4
REMARK VINA RESULT:      -6.7      3.408      5.582
REMARK  Name = 
REMARK  6 active torsions:
REMARK  status: ('A' for Active; 'I' for Inactive)
REMARK    1  A    between atoms: C_1  and  N_2
REMARK    2  A    between atoms: C_3  and  C_5
REMARK    3  A    between atoms: C_9  and  C_10
REMARK    4  A    between atoms: C_10  and  C_11
REMARK    5  A    between atoms: C_11  and  N_12
REMARK    6  A    between atoms: N_12  and  C_13
REMARK                            x       y       z     vdW  Elec       q    Type
REMARK                         _______ _______ _______ _____ _____    ______ ____
ROOT
ATOM      1  C   UNL     1       1.990   4.641  19.940  0.00  0.00    +0.000 C 
ENDROOT
BRANCH   1   2
ATOM      2  N   UNL     1       2.331   5.923  20.611  0.00  0.00    +0.000 NA
ATOM      3  H   UNL     1       3.307   5.849  20.924  0.00  0.00    +0.000 HD
BRANCH   2   4
ATOM      4  C   UNL     1       2.211   7.220  19.898  0.00  0.00    +0.000 C 
ATOM      5  C   UNL     1       2.070   7.165  18.374  0.00  0.00    +0.000 C 
ATOM      6  C   UNL     1       2.370   8.511  17.729  0.00  0.00    +0.000 C 
ATOM      7  S   UNL     1       1.336   9.879  18.246  0.00  0.00    +0.000 S 
ATOM      8  C   UNL     1       1.210   9.551  20.002  0.00  0.00    +0.000 A 
ATOM      9  C   UNL     1       0.718  10.631  20.745  0.00  0.00    +0.000 A 
ATOM     10  C   UNL     1      -0.041  10.390  21.876  0.00  0.00    +0.000 A 
ATOM     11  C   UNL     1      -0.304   9.068  22.233  0.00  0.00    +0.000 A 
ATOM     12  C   UNL     1       0.363   8.000  21.595  0.00  0.00    +0.000 A 
ATOM     13  C   UNL     1       1.225   8.236  20.509  0.00  0.00    +0.000 A 
ENDBRANCH   2   4
ENDBRANCH   1   2
BRANCH   1  14
ATOM     14  C   UNL     1       3.319   3.936  19.600  0.00  0.00    +0.000 C 
BRANCH  14  19
ATOM     15  C   UNL     1       6.279   5.821  17.880  0.00  0.00    +0.000 A 
ATOM     16  C   UNL     1       6.050   5.418  16.554  0.00  0.00    +0.000 A 
ATOM     17  C   UNL     1       5.010   4.534  16.274  0.00  0.00    +0.000 A 
ATOM     18  C   UNL     1       4.185   4.098  17.293  0.00  0.00    +0.000 A 
ATOM     19  C   UNL     1       4.360   4.483  18.639  0.00  0.00    +0.000 A 
ATOM     20  C   UNL     1       5.429   5.355  18.920  0.00  0.00    +0.000 A 
BRANCH  15  23
ATOM     21  C   UNL     1       8.245   9.043  17.686  0.00  0.00    +0.000 C 
ATOM     22  N   UNL     1       7.278   8.011  17.461  0.00  0.00    +0.000 N 
ATOM     23  C   UNL     1       7.392   6.791  18.106  0.00  0.00    +0.000 C 
ATOM     24  O   UNL     1       8.303   6.525  18.886  0.00  0.00    +0.000 OA
ATOM     25  H   UNL     1       6.410   8.246  17.031  0.00  0.00    +0.000 HD
ENDBRANCH  15  23
ENDBRANCH  14  19
ENDBRANCH   1  14
TORSDOF 5
ENDMDL
MODEL 5
REMARK VINA RESULT:      -6.7      6.941      9.160
REMARK  Name = 
REMARK  6 active torsions:
REMARK  status: ('A' for Active; 'I' for Inactive)
REMARK    1  A    between atoms: C_1  and  N_2
REMARK    2  A    between atoms: C_3  and  C_5
REMARK    3  A    between atoms: C_9  and  C_10
REMARK    4  A    between atoms: C_10  and  C_11
REMARK    5  A    between atoms: C_11  and  N_12
REMARK    6  A    between atoms: N_12  and  C_13
REMARK                            x       y       z     vdW  Elec       q    Type
REMARK                         _______ _______ _______ _____ _____    ______ ____
ROOT
ATOM      1  C   UNL     1       9.042   9.645  18.762  0.00  0.00    +0.000 C 
ENDROOT
BRANCH   1   2
ATOM      2  N   UNL     1       8.688  11.086  18.842  0.00  0.00    +0.000 NA
ATOM      3  H   UNL     1       8.369  11.265  19.802  0.00  0.00    +0.000 HD
BRANCH   2   4
ATOM      4  C   UNL     1       9.684  12.141  18.522  0.00  0.00    +0.000 C 
ATOM      5  C   UNL     1      10.860  11.740  17.627  0.00  0.00    +0.000 C 
ATOM      6  C   UNL     1      12.001  12.744  17.707  0.00  0.00    +0.000 C 
ATOM      7  S   UNL     1      11.604  14.425  17.232  0.00  0.00    +0.000 S 
ATOM      8  C   UNL     1       9.984  14.602  17.975  0.00  0.00    +0.000 A 
ATOM      9  C   UNL     1       9.537  15.927  18.047  0.00  0.00    +0.000 A 
ATOM     10  C   UNL     1       8.184  16.196  17.941  0.00  0.00    +0.000 A 
ATOM     11  C   UNL     1       7.306  15.131  17.750  0.00  0.00    +0.000 A 
ATOM     12  C   UNL     1       7.747  13.796  17.881  0.00  0.00    +0.000 A 
ATOM     13  C   UNL     1       9.106  13.506  18.098  0.00  0.00    +0.000 A 
ENDBRANCH   2   4
ENDBRANCH   1   2
BRANCH   1  14
ATOM     14  C   UNL     1       8.023   8.975  17.817  0.00  0.00    +0.000 C 
BRANCH  14  19
ATOM     15  C   UNL     1       6.997   5.345  16.800  0.00  0.00    +0.000 A 
ATOM     16  C   UNL     1       7.337   4.683  17.992  0.00  0.00    +0.000 A 
ATOM     17  C   UNL     1       7.919   5.400  19.035  0.00  0.00    +0.000 A 
ATOM     18  C   UNL     1       8.114   6.762  18.907  0.00  0.00    +0.000 A 
ATOM     19  C   UNL     1       7.777   7.479  17.740  0.00  0.00    +0.000 A 
ATOM     20  C   UNL     1       7.215   6.744  16.680  0.00  0.00    +0.000 A 
BRANCH  15  23
ATOM     21  C   UNL     1       6.326   3.918  13.365  0.00  0.00    +0.000 C 
ATOM     22  N   UNL     1       6.815   4.723  14.444  0.00  0.00    +0.000 N 
ATOM     23  C   UNL     1       6.352   4.522  15.734  0.00  0.00    +0.000 C 
ATOM     24  O   UNL     1       5.516   3.670  16.023  0.00  0.00    +0.000 OA
ATOM     25  H   UNL     1       7.646   5.258  14.312  0.00  0.00    +0.000 HD
ENDBRANCH  15  23
ENDBRANCH  14  19
ENDBRANCH   1  14
TORSDOF 5
ENDMDL
MODEL 6
REMARK VINA RESULT:      -6.6      4.553      7.118
REMARK  Name = 
REMARK  6 active torsions:
REMARK  status: ('A' for Active; 'I' for Inactive)
REMARK    1  A    between atoms: C_1  and  N_2
REMARK    2  A    between atoms: C_3  and  C_5
REMARK    3  A    between atoms: C_9  and  C_10
REMARK    4  A    between atoms: C_10  and  C_11
REMARK    5  A    between atoms: C_11  and  N_12
REMARK    6  A    between atoms: N_12  and  C_13
REMARK                            x       y       z     vdW  Elec       q    Type
REMARK                         _______ _______ _______ _____ _____    ______ ____
ROOT
ATOM      1  C   UNL     1       2.102   8.718  17.632  0.00  0.00    +0.000 C 
ENDROOT
BRANCH   1   2
ATOM      2  N   UNL     1       1.491   8.947  18.968  0.00  0.00    +0.000 NA
ATOM      3  H   UNL     1       2.263   9.084  19.632  0.00  0.00    +0.000 HD
BRANCH   2   4
ATOM      4  C   UNL     1       0.533  10.059  19.195  0.00  0.00    +0.000 C 
ATOM      5  C   UNL     1      -0.475  10.347  18.079  0.00  0.00    +0.000 C 
ATOM      6  C   UNL     1      -1.106  11.724  18.228  0.00  0.00    +0.000 C 
ATOM      7  S   UNL     1      -1.999  12.020  19.753  0.00  0.00    +0.000 S 
ATOM      8  C   UNL     1      -0.910  11.221  20.931  0.00  0.00    +0.000 A 
ATOM      9  C   UNL     1      -1.178  11.554  22.264  0.00  0.00    +0.000 A 
ATOM     10  C   UNL     1      -0.955  10.618  23.258  0.00  0.00    +0.000 A 
ATOM     11  C   UNL     1      -0.480   9.359  22.893  0.00  0.00    +0.000 A 
ATOM     12  C   UNL     1      -0.028   9.109  21.580  0.00  0.00    +0.000 A 
ATOM     13  C   UNL     1      -0.148  10.089  20.579  0.00  0.00    +0.000 A 
ENDBRANCH   2   4
ENDBRANCH   1   2
BRANCH   1  14
ATOM     14  C   UNL     1       3.419   7.947  17.858  0.00  0.00    +0.000 C 
BRANCH  14  19
ATOM     15  C   UNL     1       3.205   4.109  18.561  0.00  0.00    +0.000 A 
ATOM     16  C   UNL     1       4.112   3.661  17.587  0.00  0.00    +0.000 A 
ATOM     17  C   UNL     1       4.705   4.580  16.724  0.00  0.00    +0.000 A 
ATOM     18  C   UNL     1       4.433   5.928  16.864  0.00  0.00    +0.000 A 
ATOM     19  C   UNL     1       3.544   6.434  17.834  0.00  0.00    +0.000 A 
ATOM     20  C   UNL     1       2.927   5.498  18.685  0.00  0.00    +0.000 A 
BRANCH  15  23
ATOM     21  C   UNL     1       1.480   2.635  21.584  0.00  0.00    +0.000 C 
ATOM     22  N   UNL     1       2.138   3.533  20.682  0.00  0.00    +0.000 N 
ATOM     23  C   UNL     1       2.628   3.075  19.471  0.00  0.00    +0.000 C 
ATOM     24  O   UNL     1       2.536   1.906  19.107  0.00  0.00    +0.000 OA
ATOM     25  H   UNL     1       2.035   4.515  20.816  0.00  0.00    +0.000 HD
ENDBRANCH  15  23
ENDBRANCH  14  19
ENDBRANCH   1  14
TORSDOF 5
ENDMDL
MODEL 7
REMARK VINA RESULT:      -6.6      5.669      8.577
REMARK  Name = 
REMARK  6 active torsions:
REMARK  status: ('A' for Active; 'I' for Inactive)
REMARK    1  A    between atoms: C_1  and  N_2
REMARK    2  A    between atoms: C_3  and  C_5
REMARK    3  A    between atoms: C_9  and  C_10
REMARK    4  A    between atoms: C_10  and  C_11
REMARK    5  A    between atoms: C_11  and  N_12
REMARK    6  A    between atoms: N_12  and  C_13
REMARK                            x       y       z     vdW  Elec       q    Type
REMARK                         _______ _______ _______ _____ _____    ______ ____
ROOT
ATOM      1  C   UNL     1       1.735   8.749  17.875  0.00  0.00    +0.000 C 
ENDROOT
BRANCH   1   2
ATOM      2  N   UNL     1       2.560   7.775  18.636  0.00  0.00    +0.000 NA
ATOM      3  H   UNL     1       2.044   7.551  19.497  0.00  0.00    +0.000 HD
BRANCH   2   4
ATOM      4  C   UNL     1       2.967   6.478  18.037  0.00  0.00    +0.000 C 
ATOM      5  C   UNL     1       4.447   6.311  17.681  0.00  0.00    +0.000 C 
ATOM      6  C   UNL     1       4.671   5.152  16.720  0.00  0.00    +0.000 C 
ATOM      7  S   UNL     1       4.143   3.540  17.295  0.00  0.00    +0.000 S 
ATOM      8  C   UNL     1       2.599   3.967  18.098  0.00  0.00    +0.000 A 
ATOM      9  C   UNL     1       1.784   2.863  18.378  0.00  0.00    +0.000 A 
ATOM     10  C   UNL     1       0.972   2.884  19.498  0.00  0.00    +0.000 A 
ATOM     11  C   UNL     1       1.004   4.006  20.323  0.00  0.00    +0.000 A 
ATOM     12  C   UNL     1       1.673   5.182  19.921  0.00  0.00    +0.000 A 
ATOM     13  C   UNL     1       2.417   5.214  18.728  0.00  0.00    +0.000 A 
ENDBRANCH   2   4
ENDBRANCH   1   2
BRANCH   1  14
ATOM     14  C   UNL     1       1.093   9.705  18.902  0.00  0.00    +0.000 C 
BRANCH  14  19
ATOM     15  C   UNL     1      -2.196  11.777  19.293  0.00  0.00    +0.000 A 
ATOM     16  C   UNL     1      -2.884  11.305  18.162  0.00  0.00    +0.000 A 
ATOM     17  C   UNL     1      -2.260  10.400  17.306  0.00  0.00    +0.000 A 
ATOM     18  C   UNL     1      -0.991   9.939  17.600  0.00  0.00    +0.000 A 
ATOM     19  C   UNL     1      -0.262  10.367  18.729  0.00  0.00    +0.000 A 
ATOM     20  C   UNL     1      -0.887  11.302  19.575  0.00  0.00    +0.000 A 
BRANCH  15  23
ATOM     21  C   UNL     1      -5.012  13.949  20.572  0.00  0.00    +0.000 C 
ATOM     22  N   UNL     1      -4.187  13.119  19.748  0.00  0.00    +0.000 N 
ATOM     23  C   UNL     1      -2.933  12.723  20.182  0.00  0.00    +0.000 C 
ATOM     24  O   UNL     1      -2.464  13.053  21.268  0.00  0.00    +0.000 OA
ATOM     25  H   UNL     1      -4.600  12.639  18.978  0.00  0.00    +0.000 HD
ENDBRANCH  15  23
ENDBRANCH  14  19
ENDBRANCH   1  14
TORSDOF 5
ENDMDL
MODEL 8
REMARK VINA RESULT:      -6.6      4.251      6.132
REMARK  Name = 
REMARK  6 active torsions:
REMARK  status: ('A' for Active; 'I' for Inactive)
REMARK    1  A    between atoms: C_1  and  N_2
REMARK    2  A    between atoms: C_3  and  C_5
REMARK    3  A    between atoms: C_9  and  C_10
REMARK    4  A    between atoms: C_10  and  C_11
REMARK    5  A    between atoms: C_11  and  N_12
REMARK    6  A    between atoms: N_12  and  C_13
REMARK                            x       y       z     vdW  Elec       q    Type
REMARK                         _______ _______ _______ _____ _____    ______ ____
ROOT
ATOM      1  C   UNL     1       2.280   8.579  18.059  0.00  0.00    +0.000 C 
ENDROOT
BRANCH   1   2
ATOM      2  N   UNL     1       1.531   8.919  19.297  0.00  0.00    +0.000 NA
ATOM      3  H   UNL     1       2.228   9.147  20.017  0.00  0.00    +0.000 HD
BRANCH   2   4
ATOM      4  C   UNL     1       0.530  10.016  19.313  0.00  0.00    +0.000 C 
ATOM      5  C   UNL     1      -0.432  10.097  18.125  0.00  0.00    +0.000 C 
ATOM      6  C   UNL     1      -1.111  11.456  18.038  0.00  0.00    +0.000 C 
ATOM      7  S   UNL     1      -2.084  11.942  19.461  0.00  0.00    +0.000 S 
ATOM      8  C   UNL     1      -1.030  11.368  20.791  0.00  0.00    +0.000 A 
ATOM      9  C   UNL     1      -1.371  11.887  22.046  0.00  0.00    +0.000 A 
ATOM     10  C   UNL     1      -1.167  11.118  23.178  0.00  0.00    +0.000 A 
ATOM     11  C   UNL     1      -0.638   9.837  23.028  0.00  0.00    +0.000 A 
ATOM     12  C   UNL     1      -0.115   9.411  21.788  0.00  0.00    +0.000 A 
ATOM     13  C   UNL     1      -0.217  10.227  20.646  0.00  0.00    +0.000 A 
ENDBRANCH   2   4
ENDBRANCH   1   2
BRANCH   1  14
ATOM     14  C   UNL     1       2.375   7.041  17.990  0.00  0.00    +0.000 C 
BRANCH  14  19
ATOM     15  C   UNL     1       5.607   5.131  16.908  0.00  0.00    +0.000 A 
ATOM     16  C   UNL     1       6.015   4.665  18.169  0.00  0.00    +0.000 A 
ATOM     17  C   UNL     1       5.284   5.018  19.301  0.00  0.00    +0.000 A 
ATOM     18  C   UNL     1       4.140   5.782  19.171  0.00  0.00    +0.000 A 
ATOM     19  C   UNL     1       3.677   6.262  17.928  0.00  0.00    +0.000 A 
ATOM     20  C   UNL     1       4.435   5.926  16.791  0.00  0.00    +0.000 A 
BRANCH  15  23
ATOM     21  C   UNL     1       6.389   3.876  13.429  0.00  0.00    +0.000 C 
ATOM     22  N   UNL     1       5.709   4.232  14.638  0.00  0.00    +0.000 N 
ATOM     23  C   UNL     1       6.419   4.692  15.734  0.00  0.00    +0.000 C 
ATOM     24  O   UNL     1       7.641   4.817  15.738  0.00  0.00    +0.000 OA
ATOM     25  H   UNL     1       4.722   4.372  14.614  0.00  0.00    +0.000 HD
ENDBRANCH  15  23
ENDBRANCH  14  19
ENDBRANCH   1  14
TORSDOF 5
ENDMDL
MODEL 9
REMARK VINA RESULT:      -6.6      5.069      7.697
REMARK  Name = 
REMARK  6 active torsions:
REMARK  status: ('A' for Active; 'I' for Inactive)
REMARK    1  A    between atoms: C_1  and  N_2
REMARK    2  A    between atoms: C_3  and  C_5
REMARK    3  A    between atoms: C_9  and  C_10
REMARK    4  A    between atoms: C_10  and  C_11
REMARK    5  A    between atoms: C_11  and  N_12
REMARK    6  A    between atoms: N_12  and  C_13
REMARK                            x       y       z     vdW  Elec       q    Type
REMARK                         _______ _______ _______ _____ _____    ______ ____
ROOT
ATOM      1  C   UNL     1       1.123   8.313  20.709  0.00  0.00    +0.000 C 
ENDROOT
BRANCH   1   2
ATOM      2  N   UNL     1       2.200   7.289  20.718  0.00  0.00    +0.000 NA
ATOM      3  H   UNL     1       1.977   6.623  21.469  0.00  0.00    +0.000 HD
BRANCH   2   4
ATOM      4  C   UNL     1       2.502   6.480  19.509  0.00  0.00    +0.000 C 
ATOM      5  C   UNL     1       3.901   6.629  18.904  0.00  0.00    +0.000 C 
ATOM      6  C   UNL     1       3.960   6.098  17.479  0.00  0.00    +0.000 C 
ATOM      7  S   UNL     1       3.539   4.371  17.264  0.00  0.00    +0.000 S 
ATOM      8  C   UNL     1       2.152   4.229  18.389  0.00  0.00    +0.000 A 
ATOM      9  C   UNL     1       1.397   3.063  18.211  0.00  0.00    +0.000 A 
ATOM     10  C   UNL     1       0.785   2.475  19.304  0.00  0.00    +0.000 A 
ATOM     11  C   UNL     1       0.955   3.060  20.558  0.00  0.00    +0.000 A 
ATOM     12  C   UNL     1       1.545   4.335  20.688  0.00  0.00    +0.000 A 
ATOM     13  C   UNL     1       2.077   4.999  19.567  0.00  0.00    +0.000 A 
ENDBRANCH   2   4
ENDBRANCH   1   2
BRANCH   1  14
ATOM     14  C   UNL     1       1.190   9.035  19.348  0.00  0.00    +0.000 C 
BRANCH  14  19
ATOM     15  C   UNL     1      -1.585  11.362  17.879  0.00  0.00    +0.000 A 
ATOM     16  C   UNL     1      -1.045  12.604  18.253  0.00  0.00    +0.000 A 
ATOM     17  C   UNL     1       0.135  12.646  18.993  0.00  0.00    +0.000 A 
ATOM     18  C   UNL     1       0.789  11.471  19.311  0.00  0.00    +0.000 A 
ATOM     19  C   UNL     1       0.300  10.199  18.947  0.00  0.00    +0.000 A 
ATOM     20  C   UNL     1      -0.907  10.161  18.224  0.00  0.00    +0.000 A 
BRANCH  15  23
ATOM     21  C   UNL     1      -5.207  11.980  16.996  0.00  0.00    +0.000 C 
ATOM     22  N   UNL     1      -3.978  11.828  17.714  0.00  0.00    +0.000 N 
ATOM     23  C   UNL     1      -2.836  11.389  17.064  0.00  0.00    +0.000 C 
ATOM     24  O   UNL     1      -2.809  11.108  15.869  0.00  0.00    +0.000 OA
ATOM     25  H   UNL     1      -3.885  12.256  18.610  0.00  0.00    +0.000 HD
ENDBRANCH  15  23
ENDBRANCH  14  19
ENDBRANCH   1  14
TORSDOF 5
ENDMDL
