MODEL 1
REMARK VINA RESULT:      -8.9      0.000      0.000
REMARK  Name = 
REMARK  6 active torsions:
REMARK  status: ('A' for Active; 'I' for Inactive)
REMARK    1  A    between atoms: S_2  and  N_4
REMARK    2  A    between atoms: S_2  and  C_10
REMARK    3  A    between atoms: C_13  and  O_14
REMARK    4  A    between atoms: O_14  and  C_15
REMARK    5  A    between atoms: C_20  and  C_21
REMARK    6  A    between atoms: C_28  and  C_29
REMARK                            x       y       z     vdW  Elec       q    Type
REMARK                         _______ _______ _______ _____ _____    ______ ____
ROOT
ATOM      1  C   UNL     1       1.149   9.756  19.200  0.00  0.00    +0.000 A 
ATOM      2  C   UNL     1       1.651   9.793  17.886  0.00  0.00    +0.000 A 
ATOM      3  C   UNL     1       2.326   8.690  17.356  0.00  0.00    +0.000 A 
ATOM      4  C   UNL     1       2.528   7.561  18.140  0.00  0.00    +0.000 A 
ATOM      5  C   UNL     1       2.152   7.577  19.482  0.00  0.00    +0.000 A 
ATOM      6  C   UNL     1       1.402   8.642  20.026  0.00  0.00    +0.000 A 
ENDROOT
BRANCH   6   7
ATOM      7  C   UNL     1       0.876   8.412  21.417  0.00  0.00    +0.000 C 
ATOM      8  F   UNL     1      -0.471   8.299  21.534  0.00  0.00    +0.000 F 
ATOM      9  F   UNL     1       1.360   7.243  21.933  0.00  0.00    +0.000 F 
ATOM     10  F   UNL     1       1.255   9.381  22.292  0.00  0.00    +0.000 F 
ENDBRANCH   6   7
BRANCH   1  12
ATOM     11  O   UNL     1       1.149  12.118  20.355  0.00  0.00    +0.000 OA
ATOM     12  S   UNL     1       0.217  11.184  19.760  0.00  0.00    +0.000 S 
ATOM     13  O   UNL     1      -0.893  10.659  20.516  0.00  0.00    +0.000 OA
BRANCH  12  14
ATOM     14  N   UNL     1      -0.395  11.896  18.354  0.00  0.00    +0.000 N 
ATOM     15  C   UNL     1      -1.676  11.421  18.014  0.00  0.00    +0.000 A 
ATOM     16  N   UNL     1      -2.737  12.139  18.288  0.00  0.00    +0.000 NA
ATOM     17  C   UNL     1      -3.837  11.443  17.802  0.00  0.00    +0.000 A 
ATOM     18  N   UNL     1      -3.674  10.295  17.143  0.00  0.00    +0.000 NA
ATOM     19  S   UNL     1      -2.025   9.995  17.139  0.00  0.00    +0.000 S 
ATOM     20  H   UNL     1      -0.361  12.911  18.466  0.00  0.00    +0.000 HD
ENDBRANCH  12  14
ENDBRANCH   1  12
BRANCH   4  21
ATOM     21  O   UNL     1       3.103   6.463  17.538  0.00  0.00    +0.000 OA
BRANCH  21  22
ATOM     22  C   UNL     1       4.396   6.089  17.887  0.00  0.00    +0.000 A 
ATOM     23  C   UNL     1       5.518   6.808  17.423  0.00  0.00    +0.000 A 
ATOM     24  C   UNL     1       6.812   6.361  17.672  0.00  0.00    +0.000 A 
ATOM     25  C   UNL     1       7.004   5.240  18.462  0.00  0.00    +0.000 A 
ATOM     26  C   UNL     1       5.900   4.581  19.013  0.00  0.00    +0.000 A 
ATOM     27  C   UNL     1       4.567   4.971  18.740  0.00  0.00    +0.000 A 
BRANCH  27  28
ATOM     28  C   UNL     1       3.441   4.197  19.343  0.00  0.00    +0.000 A 
ATOM     29  C   UNL     1       2.858   4.547  20.576  0.00  0.00    +0.000 A 
ATOM     30  C   UNL     1       1.792   3.821  21.120  0.00  0.00    +0.000 A 
ATOM     31  C   UNL     1       1.301   2.698  20.464  0.00  0.00    +0.000 A 
ATOM     32  C   UNL     1       1.876   2.303  19.263  0.00  0.00    +0.000 A 
ATOM     33  C   UNL     1       2.922   3.049  18.707  0.00  0.00    +0.000 A 
ENDBRANCH  27  28
ENDBRANCH  21  22
ENDBRANCH   4  21
TORSDOF 6
ENDMDL
MODEL 2
REMARK VINA RESULT:      -8.8      1.718      2.659
REMARK  Name = 
REMARK  6 active torsions:
REMARK  status: ('A' for Active; 'I' for Inactive)
REMARK    1  A    between atoms: S_2  and  N_4
REMARK    2  A    between atoms: S_2  and  C_10
REMARK    3  A    between atoms: C_13  and  O_14
REMARK    4  A    between atoms: O_14  and  C_15
REMARK    5  A    between atoms: C_20  and  C_21
REMARK    6  A    between atoms: C_28  and  C_29
REMARK                            x       y       z     vdW  Elec       q    Type
REMARK                         _______ _______ _______ _____ _____    ______ ____
ROOT
ATOM      1  C   UNL     1       1.347   9.563  19.145  0.00  0.00    +0.000 A 
ATOM      2  C   UNL     1       1.881   9.710  17.852  0.00  0.00    +0.000 A 
ATOM      3  C   UNL     1       2.605   8.671  17.262  0.00  0.00    +0.000 A 
ATOM      4  C   UNL     1       2.824   7.494  17.970  0.00  0.00    +0.000 A 
ATOM      5  C   UNL     1       2.414   7.401  19.298  0.00  0.00    +0.000 A 
ATOM      6  C   UNL     1       1.616   8.401  19.896  0.00  0.00    +0.000 A 
ENDROOT
BRANCH   6   7
ATOM      7  C   UNL     1       1.062   8.054  21.251  0.00  0.00    +0.000 C 
ATOM      8  F   UNL     1      -0.287   8.118  21.379  0.00  0.00    +0.000 F 
ATOM      9  F   UNL     1       1.374   6.768  21.590  0.00  0.00    +0.000 F 
ATOM     10  F   UNL     1       1.577   8.827  22.245  0.00  0.00    +0.000 F 
ENDBRANCH   6   7
BRANCH   1  12
ATOM     11  O   UNL     1       1.065  11.504  20.896  0.00  0.00    +0.000 OA
ATOM     12  S   UNL     1       0.354  10.917  19.779  0.00  0.00    +0.000 S 
ATOM     13  O   UNL     1      -0.977  10.388  19.942  0.00  0.00    +0.000 OA
BRANCH  12  14
ATOM     14  N   UNL     1       0.317  12.063  18.537  0.00  0.00    +0.000 N 
ATOM     15  C   UNL     1       1.094  13.201  18.821  0.00  0.00    +0.000 A 
ATOM     16  N   UNL     1       2.283  13.336  18.286  0.00  0.00    +0.000 NA
ATOM     17  C   UNL     1       2.784  14.561  18.709  0.00  0.00    +0.000 A 
ATOM     18  N   UNL     1       2.044  15.369  19.468  0.00  0.00    +0.000 NA
ATOM     19  S   UNL     1       0.603  14.556  19.741  0.00  0.00    +0.000 S 
ATOM     20  H   UNL     1       0.585  11.602  17.666  0.00  0.00    +0.000 HD
ENDBRANCH  12  14
ENDBRANCH   1  12
BRANCH   4  21
ATOM     21  O   UNL     1       3.451   6.461  17.307  0.00  0.00    +0.000 OA
BRANCH  21  22
ATOM     22  C   UNL     1       4.758   6.125  17.640  0.00  0.00    +0.000 A 
ATOM     23  C   UNL     1       5.830   7.006  17.385  0.00  0.00    +0.000 A 
ATOM     24  C   UNL     1       7.148   6.618  17.606  0.00  0.00    +0.000 A 
ATOM     25  C   UNL     1       7.406   5.380  18.170  0.00  0.00    +0.000 A 
ATOM     26  C   UNL     1       6.344   4.542  18.525  0.00  0.00    +0.000 A 
ATOM     27  C   UNL     1       4.993   4.875  18.266  0.00  0.00    +0.000 A 
BRANCH  27  28
ATOM     28  C   UNL     1       3.916   3.913  18.647  0.00  0.00    +0.000 A 
ATOM     29  C   UNL     1       3.398   2.964  17.747  0.00  0.00    +0.000 A 
ATOM     30  C   UNL     1       2.400   2.058  18.124  0.00  0.00    +0.000 A 
ATOM     31  C   UNL     1       1.862   2.101  19.405  0.00  0.00    +0.000 A 
ATOM     32  C   UNL     1       2.325   3.049  20.309  0.00  0.00    +0.000 A 
ATOM     33  C   UNL     1       3.344   3.933  19.937  0.00  0.00    +0.000 A 
ENDBRANCH  27  28
ENDBRANCH  21  22
ENDBRANCH   4  21
TORSDOF 6
ENDMDL
MODEL 3
REMARK VINA RESULT:      -8.8      1.759      2.747
REMARK  Name = 
REMARK  6 active torsions:
REMARK  status: ('A' for Active; 'I' for Inactive)
REMARK    1  A    between atoms: S_2  and  N_4
REMARK    2  A    between atoms: S_2  and  C_10
REMARK    3  A    between atoms: C_13  and  O_14
REMARK    4  A    between atoms: O_14  and  C_15
REMARK    5  A    between atoms: C_20  and  C_21
REMARK    6  A    between atoms: C_28  and  C_29
REMARK                            x       y       z     vdW  Elec       q    Type
REMARK                         _______ _______ _______ _____ _____    ______ ____
ROOT
ATOM      1  C   UNL     1       1.110   9.987  19.376  0.00  0.00    +0.000 A 
ATOM      2  C   UNL     1       1.595  10.080  18.058  0.00  0.00    +0.000 A 
ATOM      3  C   UNL     1       2.206   8.981  17.450  0.00  0.00    +0.000 A 
ATOM      4  C   UNL     1       2.361   7.796  18.160  0.00  0.00    +0.000 A 
ATOM      5  C   UNL     1       2.004   7.747  19.507  0.00  0.00    +0.000 A 
ATOM      6  C   UNL     1       1.317   8.813  20.128  0.00  0.00    +0.000 A 
ENDROOT
BRANCH   6   7
ATOM      7  C   UNL     1       0.799   8.523  21.510  0.00  0.00    +0.000 C 
ATOM      8  F   UNL     1       1.181   9.386  22.484  0.00  0.00    +0.000 F 
ATOM      9  F   UNL     1      -0.567   8.566  21.536  0.00  0.00    +0.000 F 
ATOM     10  F   UNL     1       1.132   7.280  21.949  0.00  0.00    +0.000 F 
ENDBRANCH   6   7
BRANCH   1  12
ATOM     11  O   UNL     1       1.031  11.919  21.157  0.00  0.00    +0.000 OA
ATOM     12  S   UNL     1       0.258  11.422  20.038  0.00  0.00    +0.000 S 
ATOM     13  O   UNL     1      -1.117  11.023  20.203  0.00  0.00    +0.000 OA
BRANCH  12  14
ATOM     14  N   UNL     1       0.326  12.584  18.812  0.00  0.00    +0.000 N 
ATOM     15  C   UNL     1       1.272  13.594  19.069  0.00  0.00    +0.000 A 
ATOM     16  N   UNL     1       2.440  13.567  18.476  0.00  0.00    +0.000 NA
ATOM     17  C   UNL     1       3.132  14.700  18.887  0.00  0.00    +0.000 A 
ATOM     18  N   UNL     1       2.554  15.592  19.692  0.00  0.00    +0.000 NA
ATOM     19  S   UNL     1       1.027  14.988  20.029  0.00  0.00    +0.000 S 
ATOM     20  H   UNL     1       0.482  12.107  17.923  0.00  0.00    +0.000 HD
ENDBRANCH  12  14
ENDBRANCH   1  12
BRANCH   4  21
ATOM     21  O   UNL     1       2.872   6.710  17.483  0.00  0.00    +0.000 OA
BRANCH  21  22
ATOM     22  C   UNL     1       4.123   6.213  17.828  0.00  0.00    +0.000 A 
ATOM     23  C   UNL     1       5.307   6.879  17.450  0.00  0.00    +0.000 A 
ATOM     24  C   UNL     1       6.557   6.317  17.690  0.00  0.00    +0.000 A 
ATOM     25  C   UNL     1       6.643   5.125  18.391  0.00  0.00    +0.000 A 
ATOM     26  C   UNL     1       5.479   4.511  18.863  0.00  0.00    +0.000 A 
ATOM     27  C   UNL     1       4.186   5.021  18.592  0.00  0.00    +0.000 A 
BRANCH  27  28
ATOM     28  C   UNL     1       2.989   4.290  19.105  0.00  0.00    +0.000 A 
ATOM     29  C   UNL     1       2.593   4.342  20.454  0.00  0.00    +0.000 A 
ATOM     30  C   UNL     1       1.458   3.664  20.917  0.00  0.00    +0.000 A 
ATOM     31  C   UNL     1       0.708   2.880  20.048  0.00  0.00    +0.000 A 
ATOM     32  C   UNL     1       1.091   2.777  18.717  0.00  0.00    +0.000 A 
ATOM     33  C   UNL     1       2.209   3.481  18.252  0.00  0.00    +0.000 A 
ENDBRANCH  27  28
ENDBRANCH  21  22
ENDBRANCH   4  21
TORSDOF 6
ENDMDL
MODEL 4
REMARK VINA RESULT:      -8.8      1.784      2.702
REMARK  Name = 
REMARK  6 active torsions:
REMARK  status: ('A' for Active; 'I' for Inactive)
REMARK    1  A    between atoms: S_2  and  N_4
REMARK    2  A    between atoms: S_2  and  C_10
REMARK    3  A    between atoms: C_13  and  O_14
REMARK    4  A    between atoms: O_14  and  C_15
REMARK    5  A    between atoms: C_20  and  C_21
REMARK    6  A    between atoms: C_28  and  C_29
REMARK                            x       y       z     vdW  Elec       q    Type
REMARK                         _______ _______ _______ _____ _____    ______ ____
ROOT
ATOM      1  C   UNL     1       1.168  10.008  19.396  0.00  0.00    +0.000 A 
ATOM      2  C   UNL     1       1.679  10.131  18.091  0.00  0.00    +0.000 A 
ATOM      3  C   UNL     1       2.292   9.043  17.466  0.00  0.00    +0.000 A 
ATOM      4  C   UNL     1       2.425   7.838  18.148  0.00  0.00    +0.000 A 
ATOM      5  C   UNL     1       2.044   7.758  19.486  0.00  0.00    +0.000 A 
ATOM      6  C   UNL     1       1.353   8.813  20.121  0.00  0.00    +0.000 A 
ENDROOT
BRANCH   6   7
ATOM      7  C   UNL     1       0.807   8.492  21.486  0.00  0.00    +0.000 C 
ATOM      8  F   UNL     1       1.138   9.353  22.480  0.00  0.00    +0.000 F 
ATOM      9  F   UNL     1      -0.560   8.496  21.476  0.00  0.00    +0.000 F 
ATOM     10  F   UNL     1       1.164   7.254  21.919  0.00  0.00    +0.000 F 
ENDBRANCH   6   7
BRANCH   1  12
ATOM     11  O   UNL     1       1.123  11.956  21.161  0.00  0.00    +0.000 OA
ATOM     12  S   UNL     1       0.315  11.432  20.079  0.00  0.00    +0.000 S 
ATOM     13  O   UNL     1      -1.043  11.007  20.305  0.00  0.00    +0.000 OA
BRANCH  12  14
ATOM     14  N   UNL     1       0.309  12.583  18.842  0.00  0.00    +0.000 N 
ATOM     15  C   UNL     1       0.618  13.878  19.299  0.00  0.00    +0.000 A 
ATOM     16  N   UNL     1       1.821  14.368  19.122  0.00  0.00    +0.000 NA
ATOM     17  C   UNL     1       1.813  15.661  19.630  0.00  0.00    +0.000 A 
ATOM     18  N   UNL     1       0.691  16.189  20.120  0.00  0.00    +0.000 NA
ATOM     19  S   UNL     1      -0.476  14.992  19.995  0.00  0.00    +0.000 S 
ATOM     20  H   UNL     1       0.931  12.262  18.099  0.00  0.00    +0.000 HD
ENDBRANCH  12  14
ENDBRANCH   1  12
BRANCH   4  21
ATOM     21  O   UNL     1       2.940   6.767  17.452  0.00  0.00    +0.000 OA
BRANCH  21  22
ATOM     22  C   UNL     1       4.190   6.263  17.795  0.00  0.00    +0.000 A 
ATOM     23  C   UNL     1       5.377   6.932  17.429  0.00  0.00    +0.000 A 
ATOM     24  C   UNL     1       6.625   6.364  17.666  0.00  0.00    +0.000 A 
ATOM     25  C   UNL     1       6.706   5.164  18.352  0.00  0.00    +0.000 A 
ATOM     26  C   UNL     1       5.539   4.545  18.812  0.00  0.00    +0.000 A 
ATOM     27  C   UNL     1       4.249   5.061  18.544  0.00  0.00    +0.000 A 
BRANCH  27  28
ATOM     28  C   UNL     1       3.049   4.326  19.044  0.00  0.00    +0.000 A 
ATOM     29  C   UNL     1       2.257   3.516  18.208  0.00  0.00    +0.000 A 
ATOM     30  C   UNL     1       1.144   2.820  18.695  0.00  0.00    +0.000 A 
ATOM     31  C   UNL     1       0.767   2.945  20.027  0.00  0.00    +0.000 A 
ATOM     32  C   UNL     1       1.505   3.764  20.872  0.00  0.00    +0.000 A 
ATOM     33  C   UNL     1       2.635   4.434  20.388  0.00  0.00    +0.000 A 
ENDBRANCH  27  28
ENDBRANCH  21  22
ENDBRANCH   4  21
TORSDOF 6
ENDMDL
MODEL 5
REMARK VINA RESULT:      -8.8      2.007      4.032
REMARK  Name = 
REMARK  6 active torsions:
REMARK  status: ('A' for Active; 'I' for Inactive)
REMARK    1  A    between atoms: S_2  and  N_4
REMARK    2  A    between atoms: S_2  and  C_10
REMARK    3  A    between atoms: C_13  and  O_14
REMARK    4  A    between atoms: O_14  and  C_15
REMARK    5  A    between atoms: C_20  and  C_21
REMARK    6  A    between atoms: C_28  and  C_29
REMARK                            x       y       z     vdW  Elec       q    Type
REMARK                         _______ _______ _______ _____ _____    ______ ____
ROOT
ATOM      1  C   UNL     1       0.689   9.656  19.648  0.00  0.00    +0.000 A 
ATOM      2  C   UNL     1       1.529   9.275  18.586  0.00  0.00    +0.000 A 
ATOM      3  C   UNL     1       2.345   8.147  18.699  0.00  0.00    +0.000 A 
ATOM      4  C   UNL     1       2.349   7.412  19.880  0.00  0.00    +0.000 A 
ATOM      5  C   UNL     1       1.622   7.868  20.977  0.00  0.00    +0.000 A 
ATOM      6  C   UNL     1       0.731   8.958  20.872  0.00  0.00    +0.000 A 
ENDROOT
BRANCH   6   7
ATOM      7  C   UNL     1      -0.149   9.185  22.071  0.00  0.00    +0.000 C 
ATOM      8  F   UNL     1      -0.895  10.319  22.058  0.00  0.00    +0.000 F 
ATOM      9  F   UNL     1      -1.064   8.179  22.200  0.00  0.00    +0.000 F 
ATOM     10  F   UNL     1       0.544   9.199  23.240  0.00  0.00    +0.000 F 
ENDBRANCH   6   7
BRANCH   1  12
ATOM     11  O   UNL     1      -0.302  11.924  20.535  0.00  0.00    +0.000 OA
ATOM     12  S   UNL     1      -0.390  11.064  19.374  0.00  0.00    +0.000 S 
ATOM     13  O   UNL     1      -1.653  10.516  18.949  0.00  0.00    +0.000 OA
BRANCH  12  14
ATOM     14  N   UNL     1       0.288  11.897  18.068  0.00  0.00    +0.000 N 
ATOM     15  C   UNL     1       1.059  13.005  18.468  0.00  0.00    +0.000 A 
ATOM     16  N   UNL     1       2.366  12.920  18.500  0.00  0.00    +0.000 NA
ATOM     17  C   UNL     1       2.846  14.166  18.885  0.00  0.00    +0.000 A 
ATOM     18  N   UNL     1       2.007  15.182  19.089  0.00  0.00    +0.000 NA
ATOM     19  S   UNL     1       0.468  14.568  18.831  0.00  0.00    +0.000 S 
ATOM     20  H   UNL     1       0.811  11.231  17.498  0.00  0.00    +0.000 HD
ENDBRANCH  12  14
ENDBRANCH   1  12
BRANCH   4  21
ATOM     21  O   UNL     1       3.089   6.251  19.903  0.00  0.00    +0.000 OA
BRANCH  21  22
ATOM     22  C   UNL     1       2.881   5.285  18.924  0.00  0.00    +0.000 A 
ATOM     23  C   UNL     1       1.626   4.661  18.764  0.00  0.00    +0.000 A 
ATOM     24  C   UNL     1       1.454   3.611  17.868  0.00  0.00    +0.000 A 
ATOM     25  C   UNL     1       2.509   3.231  17.056  0.00  0.00    +0.000 A 
ATOM     26  C   UNL     1       3.727   3.914  17.133  0.00  0.00    +0.000 A 
ATOM     27  C   UNL     1       3.960   4.950  18.069  0.00  0.00    +0.000 A 
BRANCH  27  28
ATOM     28  C   UNL     1       5.298   5.611  18.110  0.00  0.00    +0.000 A 
ATOM     29  C   UNL     1       6.299   5.236  19.025  0.00  0.00    +0.000 A 
ATOM     30  C   UNL     1       7.555   5.855  19.041  0.00  0.00    +0.000 A 
ATOM     31  C   UNL     1       7.834   6.896  18.164  0.00  0.00    +0.000 A 
ATOM     32  C   UNL     1       6.857   7.316  17.270  0.00  0.00    +0.000 A 
ATOM     33  C   UNL     1       5.613   6.675  17.238  0.00  0.00    +0.000 A 
ENDBRANCH  27  28
ENDBRANCH  21  22
ENDBRANCH   4  21
TORSDOF 6
ENDMDL
MODEL 6
REMARK VINA RESULT:      -8.8      0.183      1.073
REMARK  Name = 
REMARK  6 active torsions:
REMARK  status: ('A' for Active; 'I' for Inactive)
REMARK    1  A    between atoms: S_2  and  N_4
REMARK    2  A    between atoms: S_2  and  C_10
REMARK    3  A    between atoms: C_13  and  O_14
REMARK    4  A    between atoms: O_14  and  C_15
REMARK    5  A    between atoms: C_20  and  C_21
REMARK    6  A    between atoms: C_28  and  C_29
REMARK                            x       y       z     vdW  Elec       q    Type
REMARK                         _______ _______ _______ _____ _____    ______ ____
ROOT
ATOM      1  C   UNL     1       1.098   9.835  19.239  0.00  0.00    +0.000 A 
ATOM      2  C   UNL     1       1.567   9.881  17.914  0.00  0.00    +0.000 A 
ATOM      3  C   UNL     1       2.237   8.786  17.362  0.00  0.00    +0.000 A 
ATOM      4  C   UNL     1       2.467   7.655  18.137  0.00  0.00    +0.000 A 
ATOM      5  C   UNL     1       2.125   7.663  19.487  0.00  0.00    +0.000 A 
ATOM      6  C   UNL     1       1.380   8.720  20.055  0.00  0.00    +0.000 A 
ENDROOT
BRANCH   6   7
ATOM      7  C   UNL     1       0.890   8.479  21.457  0.00  0.00    +0.000 C 
ATOM      8  F   UNL     1       1.123   9.475  22.349  0.00  0.00    +0.000 F 
ATOM      9  F   UNL     1      -0.466   8.316  21.477  0.00  0.00    +0.000 F 
ATOM     10  F   UNL     1       1.401   7.346  22.007  0.00  0.00    +0.000 F 
ENDBRANCH   6   7
BRANCH   1  12
ATOM     11  O   UNL     1       1.105  12.183  20.422  0.00  0.00    +0.000 OA
ATOM     12  S   UNL     1       0.168  11.253  19.828  0.00  0.00    +0.000 S 
ATOM     13  O   UNL     1      -0.929  10.715  20.593  0.00  0.00    +0.000 OA
BRANCH  12  14
ATOM     14  N   UNL     1      -0.465  11.979  18.439  0.00  0.00    +0.000 N 
ATOM     15  C   UNL     1      -1.736  11.482  18.094  0.00  0.00    +0.000 A 
ATOM     16  N   UNL     1      -2.813  12.169  18.386  0.00  0.00    +0.000 NA
ATOM     17  C   UNL     1      -3.898  11.458  17.889  0.00  0.00    +0.000 A 
ATOM     18  N   UNL     1      -3.711  10.328  17.206  0.00  0.00    +0.000 NA
ATOM     19  S   UNL     1      -2.055  10.065  17.191  0.00  0.00    +0.000 S 
ATOM     20  H   UNL     1      -0.454  12.991  18.571  0.00  0.00    +0.000 HD
ENDBRANCH  12  14
ENDBRANCH   1  12
BRANCH   4  21
ATOM     21  O   UNL     1       3.037   6.565  17.516  0.00  0.00    +0.000 OA
BRANCH  21  22
ATOM     22  C   UNL     1       4.311   6.152  17.887  0.00  0.00    +0.000 A 
ATOM     23  C   UNL     1       5.461   6.854  17.468  0.00  0.00    +0.000 A 
ATOM     24  C   UNL     1       6.737   6.370  17.738  0.00  0.00    +0.000 A 
ATOM     25  C   UNL     1       6.883   5.228  18.507  0.00  0.00    +0.000 A 
ATOM     26  C   UNL     1       5.751   4.584  19.016  0.00  0.00    +0.000 A 
ATOM     27  C   UNL     1       4.434   5.012  18.720  0.00  0.00    +0.000 A 
BRANCH  27  28
ATOM     28  C   UNL     1       3.275   4.253  19.277  0.00  0.00    +0.000 A 
ATOM     29  C   UNL     1       2.532   3.337  18.509  0.00  0.00    +0.000 A 
ATOM     30  C   UNL     1       1.458   2.621  19.051  0.00  0.00    +0.000 A 
ATOM     31  C   UNL     1       1.070   2.829  20.370  0.00  0.00    +0.000 A 
ATOM     32  C   UNL     1       1.760   3.752  21.146  0.00  0.00    +0.000 A 
ATOM     33  C   UNL     1       2.852   4.444  20.610  0.00  0.00    +0.000 A 
ENDBRANCH  27  28
ENDBRANCH  21  22
ENDBRANCH   4  21
TORSDOF 6
ENDMDL
MODEL 7
REMARK VINA RESULT:      -8.6      2.722      4.522
REMARK  Name = 
REMARK  6 active torsions:
REMARK  status: ('A' for Active; 'I' for Inactive)
REMARK    1  A    between atoms: S_2  and  N_4
REMARK    2  A    between atoms: S_2  and  C_10
REMARK    3  A    between atoms: C_13  and  O_14
REMARK    4  A    between atoms: O_14  and  C_15
REMARK    5  A    between atoms: C_20  and  C_21
REMARK    6  A    between atoms: C_28  and  C_29
REMARK                            x       y       z     vdW  Elec       q    Type
REMARK                         _______ _______ _______ _____ _____    ______ ____
ROOT
ATOM      1  C   UNL     1       0.871   9.411  20.424  0.00  0.00    +0.000 A 
ATOM      2  C   UNL     1       0.916   8.532  21.522  0.00  0.00    +0.000 A 
ATOM      3  C   UNL     1       1.607   7.321  21.432  0.00  0.00    +0.000 A 
ATOM      4  C   UNL     1       2.229   6.968  20.240  0.00  0.00    +0.000 A 
ATOM      5  C   UNL     1       2.068   7.772  19.114  0.00  0.00    +0.000 A 
ATOM      6  C   UNL     1       1.443   9.036  19.191  0.00  0.00    +0.000 A 
ENDROOT
BRANCH   6   7
ATOM      7  C   UNL     1       1.550   9.882  17.952  0.00  0.00    +0.000 C 
ATOM      8  F   UNL     1       2.235  11.046  18.081  0.00  0.00    +0.000 F 
ATOM      9  F   UNL     1       2.206   9.211  16.959  0.00  0.00    +0.000 F 
ATOM     10  F   UNL     1       0.338  10.209  17.431  0.00  0.00    +0.000 F 
ENDBRANCH   6   7
BRANCH   1  12
ATOM     11  O   UNL     1      -1.203  10.947  19.925  0.00  0.00    +0.000 OA
ATOM     12  S   UNL     1       0.040  10.983  20.667  0.00  0.00    +0.000 S 
ATOM     13  O   UNL     1       1.030  11.997  20.409  0.00  0.00    +0.000 OA
BRANCH  12  14
ATOM     14  N   UNL     1      -0.348  11.032  22.312  0.00  0.00    +0.000 N 
ATOM     15  C   UNL     1      -1.255  12.061  22.628  0.00  0.00    +0.000 A 
ATOM     16  N   UNL     1      -2.524  11.787  22.808  0.00  0.00    +0.000 NA
ATOM     17  C   UNL     1      -3.154  12.978  23.147  0.00  0.00    +0.000 A 
ATOM     18  N   UNL     1      -2.449  14.102  23.285  0.00  0.00    +0.000 NA
ATOM     19  S   UNL     1      -0.861  13.697  22.932  0.00  0.00    +0.000 S 
ATOM     20  H   UNL     1      -0.678  10.108  22.593  0.00  0.00    +0.000 HD
ENDBRANCH  12  14
ENDBRANCH   1  12
BRANCH   4  21
ATOM     21  O   UNL     1       2.984   5.816  20.234  0.00  0.00    +0.000 OA
BRANCH  21  22
ATOM     22  C   UNL     1       2.746   4.844  19.269  0.00  0.00    +0.000 A 
ATOM     23  C   UNL     1       1.533   4.123  19.237  0.00  0.00    +0.000 A 
ATOM     24  C   UNL     1       1.346   3.069  18.348  0.00  0.00    +0.000 A 
ATOM     25  C   UNL     1       2.332   2.780  17.420  0.00  0.00    +0.000 A 
ATOM     26  C   UNL     1       3.494   3.557  17.374  0.00  0.00    +0.000 A 
ATOM     27  C   UNL     1       3.747   4.602  18.295  0.00  0.00    +0.000 A 
BRANCH  27  28
ATOM     28  C   UNL     1       5.025   5.367  18.200  0.00  0.00    +0.000 A 
ATOM     29  C   UNL     1       5.209   6.421  17.286  0.00  0.00    +0.000 A 
ATOM     30  C   UNL     1       6.409   7.140  17.220  0.00  0.00    +0.000 A 
ATOM     31  C   UNL     1       7.476   6.799  18.043  0.00  0.00    +0.000 A 
ATOM     32  C   UNL     1       7.342   5.741  18.932  0.00  0.00    +0.000 A 
ATOM     33  C   UNL     1       6.130   5.044  19.016  0.00  0.00    +0.000 A 
ENDBRANCH  27  28
ENDBRANCH  21  22
ENDBRANCH   4  21
TORSDOF 6
ENDMDL
MODEL 8
REMARK VINA RESULT:      -8.6      2.029      4.022
REMARK  Name = 
REMARK  6 active torsions:
REMARK  status: ('A' for Active; 'I' for Inactive)
REMARK    1  A    between atoms: S_2  and  N_4
REMARK    2  A    between atoms: S_2  and  C_10
REMARK    3  A    between atoms: C_13  and  O_14
REMARK    4  A    between atoms: O_14  and  C_15
REMARK    5  A    between atoms: C_20  and  C_21
REMARK    6  A    between atoms: C_28  and  C_29
REMARK                            x       y       z     vdW  Elec       q    Type
REMARK                         _______ _______ _______ _____ _____    ______ ____
ROOT
ATOM      1  C   UNL     1       0.704   9.766  19.655  0.00  0.00    +0.000 A 
ATOM      2  C   UNL     1       1.498   9.440  18.541  0.00  0.00    +0.000 A 
ATOM      3  C   UNL     1       2.287   8.287  18.547  0.00  0.00    +0.000 A 
ATOM      4  C   UNL     1       2.310   7.471  19.673  0.00  0.00    +0.000 A 
ATOM      5  C   UNL     1       1.632   7.866  20.824  0.00  0.00    +0.000 A 
ATOM      6  C   UNL     1       0.767   8.982  20.826  0.00  0.00    +0.000 A 
ENDROOT
BRANCH   6   7
ATOM      7  C   UNL     1      -0.068   9.146  22.067  0.00  0.00    +0.000 C 
ATOM      8  F   UNL     1      -0.828  10.267  22.132  0.00  0.00    +0.000 F 
ATOM      9  F   UNL     1      -0.964   8.121  22.189  0.00  0.00    +0.000 F 
ATOM     10  F   UNL     1       0.672   9.120  23.207  0.00  0.00    +0.000 F 
ENDBRANCH   6   7
BRANCH   1  12
ATOM     11  O   UNL     1      -0.057  12.081  20.641  0.00  0.00    +0.000 OA
ATOM     12  S   UNL     1      -0.345  11.215  19.517  0.00  0.00    +0.000 S 
ATOM     13  O   UNL     1      -1.678  10.717  19.286  0.00  0.00    +0.000 OA
BRANCH  12  14
ATOM     14  N   UNL     1       0.171  12.007  18.115  0.00  0.00    +0.000 N 
ATOM     15  C   UNL     1       0.972  13.132  18.387  0.00  0.00    +0.000 A 
ATOM     16  N   UNL     1       2.275  13.055  18.271  0.00  0.00    +0.000 NA
ATOM     17  C   UNL     1       2.785  14.316  18.556  0.00  0.00    +0.000 A 
ATOM     18  N   UNL     1       1.965  15.333  18.822  0.00  0.00    +0.000 NA
ATOM     19  S   UNL     1       0.412  14.703  18.762  0.00  0.00    +0.000 S 
ATOM     20  H   UNL     1       0.631  11.325  17.511  0.00  0.00    +0.000 HD
ENDBRANCH  12  14
ENDBRANCH   1  12
BRANCH   4  21
ATOM     21  O   UNL     1       3.019   6.293  19.590  0.00  0.00    +0.000 OA
BRANCH  21  22
ATOM     22  C   UNL     1       2.345   5.103  19.339  0.00  0.00    +0.000 A 
ATOM     23  C   UNL     1       1.251   4.699  20.132  0.00  0.00    +0.000 A 
ATOM     24  C   UNL     1       0.657   3.453  19.957  0.00  0.00    +0.000 A 
ATOM     25  C   UNL     1       1.090   2.632  18.929  0.00  0.00    +0.000 A 
ATOM     26  C   UNL     1       2.104   3.069  18.071  0.00  0.00    +0.000 A 
ATOM     27  C   UNL     1       2.771   4.305  18.248  0.00  0.00    +0.000 A 
BRANCH  27  28
ATOM     28  C   UNL     1       3.865   4.687  17.307  0.00  0.00    +0.000 A 
ATOM     29  C   UNL     1       4.128   6.024  16.957  0.00  0.00    +0.000 A 
ATOM     30  C   UNL     1       5.168   6.368  16.085  0.00  0.00    +0.000 A 
ATOM     31  C   UNL     1       5.954   5.378  15.507  0.00  0.00    +0.000 A 
ATOM     32  C   UNL     1       5.700   4.045  15.803  0.00  0.00    +0.000 A 
ATOM     33  C   UNL     1       4.678   3.707  16.698  0.00  0.00    +0.000 A 
ENDBRANCH  27  28
ENDBRANCH  21  22
ENDBRANCH   4  21
TORSDOF 6
ENDMDL
MODEL 9
REMARK VINA RESULT:      -8.6      1.365      3.265
REMARK  Name = 
REMARK  6 active torsions:
REMARK  status: ('A' for Active; 'I' for Inactive)
REMARK    1  A    between atoms: S_2  and  N_4
REMARK    2  A    between atoms: S_2  and  C_10
REMARK    3  A    between atoms: C_13  and  O_14
REMARK    4  A    between atoms: O_14  and  C_15
REMARK    5  A    between atoms: C_20  and  C_21
REMARK    6  A    between atoms: C_28  and  C_29
REMARK                            x       y       z     vdW  Elec       q    Type
REMARK                         _______ _______ _______ _____ _____    ______ ____
ROOT
ATOM      1  C   UNL     1       0.955   9.240  19.115  0.00  0.00    +0.000 A 
ATOM      2  C   UNL     1       1.560   8.619  18.007  0.00  0.00    +0.000 A 
ATOM      3  C   UNL     1       2.359   7.486  18.180  0.00  0.00    +0.000 A 
ATOM      4  C   UNL     1       2.582   6.986  19.457  0.00  0.00    +0.000 A 
ATOM      5  C   UNL     1       2.096   7.679  20.564  0.00  0.00    +0.000 A 
ATOM      6  C   UNL     1       1.224   8.781  20.421  0.00  0.00    +0.000 A 
ENDROOT
BRANCH   6   7
ATOM      7  C   UNL     1       0.604   9.278  21.698  0.00  0.00    +0.000 C 
ATOM      8  F   UNL     1      -0.673   8.884  21.935  0.00  0.00    +0.000 F 
ATOM      9  F   UNL     1       1.302   8.832  22.784  0.00  0.00    +0.000 F 
ATOM     10  F   UNL     1       0.609  10.634  21.794  0.00  0.00    +0.000 F 
ENDBRANCH   6   7
BRANCH   1  12
ATOM     11  O   UNL     1       0.698  11.813  18.644  0.00  0.00    +0.000 OA
ATOM     12  S   UNL     1      -0.128  10.632  18.784  0.00  0.00    +0.000 S 
ATOM     13  O   UNL     1      -1.169  10.568  19.778  0.00  0.00    +0.000 OA
BRANCH  12  14
ATOM     14  N   UNL     1      -0.819  10.310  17.275  0.00  0.00    +0.000 N 
ATOM     15  C   UNL     1      -2.204  10.560  17.244  0.00  0.00    +0.000 A 
ATOM     16  N   UNL     1      -2.661  11.664  16.704  0.00  0.00    +0.000 NA
ATOM     17  C   UNL     1      -4.047  11.611  16.781  0.00  0.00    +0.000 A 
ATOM     18  N   UNL     1      -4.657  10.538  17.283  0.00  0.00    +0.000 NA
ATOM     19  S   UNL     1      -3.436   9.490  17.754  0.00  0.00    +0.000 S 
ATOM     20  H   UNL     1      -0.302  10.831  16.566  0.00  0.00    +0.000 HD
ENDBRANCH  12  14
ENDBRANCH   1  12
BRANCH   4  21
ATOM     21  O   UNL     1       3.288   5.807  19.564  0.00  0.00    +0.000 OA
BRANCH  21  22
ATOM     22  C   UNL     1       2.677   4.608  19.216  0.00  0.00    +0.000 A 
ATOM     23  C   UNL     1       1.439   4.226  19.775  0.00  0.00    +0.000 A 
ATOM     24  C   UNL     1       0.890   2.973  19.520  0.00  0.00    +0.000 A 
ATOM     25  C   UNL     1       1.526   2.121  18.633  0.00  0.00    +0.000 A 
ATOM     26  C   UNL     1       2.699   2.533  17.993  0.00  0.00    +0.000 A 
ATOM     27  C   UNL     1       3.319   3.776  18.266  0.00  0.00    +0.000 A 
BRANCH  27  28
ATOM     28  C   UNL     1       4.588   4.131  17.564  0.00  0.00    +0.000 A 
ATOM     29  C   UNL     1       5.804   4.317  18.247  0.00  0.00    +0.000 A 
ATOM     30  C   UNL     1       6.989   4.634  17.573  0.00  0.00    +0.000 A 
ATOM     31  C   UNL     1       6.984   4.813  16.194  0.00  0.00    +0.000 A 
ATOM     32  C   UNL     1       5.794   4.672  15.491  0.00  0.00    +0.000 A 
ATOM     33  C   UNL     1       4.618   4.325  16.166  0.00  0.00    +0.000 A 
ENDBRANCH  27  28
ENDBRANCH  21  22
ENDBRANCH   4  21
TORSDOF 6
ENDMDL
