MODEL 1
REMARK VINA RESULT:      -8.3      0.000      0.000
REMARK  Name = 
REMARK  4 active torsions:
REMARK  status: ('A' for Active; 'I' for Inactive)
REMARK    1  A    between atoms: C_2  and  C_3
REMARK    2  A    between atoms: C_3  and  O_4
REMARK    3  A    between atoms: O_4  and  C_5
REMARK    4  A    between atoms: C_5  and  C_6
REMARK                            x       y       z     vdW  Elec       q    Type
REMARK                         _______ _______ _______ _____ _____    ______ ____
ROOT
ATOM      1  O   UNL     1       3.122   8.149  17.520  0.00  0.00    +0.000 OA
ATOM      2  C   UNL     1       2.772   7.292  18.345  0.00  0.00    +0.000 C 
ATOM      3  N   UNL     1       3.110   5.937  18.222  0.00  0.00    +0.000 N 
ATOM      4  C   UNL     1       4.249   5.583  17.413  0.00  0.00    +0.000 A 
ATOM      5  C   UNL     1       5.339   6.454  17.236  0.00  0.00    +0.000 A 
ATOM      6  C   UNL     1       6.476   6.062  16.520  0.00  0.00    +0.000 A 
ATOM      7  C   UNL     1       6.537   4.797  15.947  0.00  0.00    +0.000 A 
ATOM      8  C   UNL     1       5.468   3.921  16.104  0.00  0.00    +0.000 A 
ATOM      9  C   UNL     1       4.351   4.308  16.854  0.00  0.00    +0.000 A 
ATOM     10  O   UNL     1       3.370   3.368  17.003  0.00  0.00    +0.000 OA
ATOM     11  C   UNL     1       2.549   3.551  18.088  0.00  0.00    +0.000 A 
ATOM     12  C   UNL     1       1.862   2.398  18.499  0.00  0.00    +0.000 A 
ATOM     13  C   UNL     1       1.030   2.442  19.605  0.00  0.00    +0.000 A 
ATOM     14  C   UNL     1       0.885   3.638  20.289  0.00  0.00    +0.000 A 
ATOM     15  C   UNL     1       1.553   4.795  19.852  0.00  0.00    +0.000 A 
ATOM     16  C   UNL     1       2.394   4.793  18.734  0.00  0.00    +0.000 A 
ENDROOT
BRANCH   2  17
ATOM     17  C   UNL     1       1.980   7.807  19.546  0.00  0.00    +0.000 C 
BRANCH  17  18
ATOM     18  O   UNL     1       1.503   9.144  19.426  0.00  0.00    +0.000 OA
BRANCH  18  19
ATOM     19  C   UNL     1       0.410   9.407  20.310  0.00  0.00    +0.000 C 
BRANCH  19  20
ATOM     20  C   UNL     1       0.837  10.340  21.448  0.00  0.00    +0.000 C 
ATOM     21  C   UNL     1      -0.267  11.254  21.958  0.00  0.00    +0.000 C 
ATOM     22  C   UNL     1      -0.959  10.403  22.995  0.00  0.00    +0.000 C 
ATOM     23  C   UNL     1       0.166   9.549  23.544  0.00  0.00    +0.000 C 
ATOM     24  O   UNL     1       1.224   9.534  22.575  0.00  0.00    +0.000 OA
ENDBRANCH  19  20
ENDBRANCH  18  19
ENDBRANCH  17  18
ENDBRANCH   2  17
TORSDOF 4
ENDMDL
MODEL 2
REMARK VINA RESULT:      -8.1      1.671      4.103
REMARK  Name = 
REMARK  4 active torsions:
REMARK  status: ('A' for Active; 'I' for Inactive)
REMARK    1  A    between atoms: C_2  and  C_3
REMARK    2  A    between atoms: C_3  and  O_4
REMARK    3  A    between atoms: O_4  and  C_5
REMARK    4  A    between atoms: C_5  and  C_6
REMARK                            x       y       z     vdW  Elec       q    Type
REMARK                         _______ _______ _______ _____ _____    ______ ____
ROOT
ATOM      1  O   UNL     1       2.012   7.455  20.029  0.00  0.00    +0.000 OA
ATOM      2  C   UNL     1       2.603   7.173  18.976  0.00  0.00    +0.000 C 
ATOM      3  N   UNL     1       3.269   5.956  18.782  0.00  0.00    +0.000 N 
ATOM      4  C   UNL     1       2.892   4.827  19.597  0.00  0.00    +0.000 A 
ATOM      5  C   UNL     1       1.593   4.683  20.117  0.00  0.00    +0.000 A 
ATOM      6  C   UNL     1       1.219   3.539  20.831  0.00  0.00    +0.000 A 
ATOM      7  C   UNL     1       2.142   2.527  21.060  0.00  0.00    +0.000 A 
ATOM      8  C   UNL     1       3.434   2.651  20.561  0.00  0.00    +0.000 A 
ATOM      9  C   UNL     1       3.789   3.780  19.814  0.00  0.00    +0.000 A 
ATOM     10  O   UNL     1       5.062   3.798  19.316  0.00  0.00    +0.000 OA
ATOM     11  C   UNL     1       5.250   4.616  18.228  0.00  0.00    +0.000 A 
ATOM     12  C   UNL     1       6.381   4.307  17.458  0.00  0.00    +0.000 A 
ATOM     13  C   UNL     1       6.662   5.034  16.313  0.00  0.00    +0.000 A 
ATOM     14  C   UNL     1       5.814   6.068  15.950  0.00  0.00    +0.000 A 
ATOM     15  C   UNL     1       4.700   6.390  16.745  0.00  0.00    +0.000 A 
ATOM     16  C   UNL     1       4.389   5.684  17.913  0.00  0.00    +0.000 A 
ENDROOT
BRANCH   2  17
ATOM     17  C   UNL     1       2.525   8.222  17.867  0.00  0.00    +0.000 C 
BRANCH  17  18
ATOM     18  O   UNL     1       1.356   9.037  17.887  0.00  0.00    +0.000 OA
BRANCH  18  19
ATOM     19  C   UNL     1       1.645  10.382  18.276  0.00  0.00    +0.000 C 
BRANCH  19  20
ATOM     20  C   UNL     1       0.387  11.085  18.795  0.00  0.00    +0.000 C 
ATOM     21  C   UNL     1      -0.630  10.157  19.440  0.00  0.00    +0.000 C 
ATOM     22  C   UNL     1      -0.156  10.077  20.871  0.00  0.00    +0.000 C 
ATOM     23  C   UNL     1       0.459  11.442  21.106  0.00  0.00    +0.000 C 
ATOM     24  O   UNL     1       0.777  12.009  19.826  0.00  0.00    +0.000 OA
ENDBRANCH  19  20
ENDBRANCH  18  19
ENDBRANCH  17  18
ENDBRANCH   2  17
TORSDOF 4
ENDMDL
MODEL 3
REMARK VINA RESULT:      -8.1      0.855      1.193
REMARK  Name = 
REMARK  4 active torsions:
REMARK  status: ('A' for Active; 'I' for Inactive)
REMARK    1  A    between atoms: C_2  and  C_3
REMARK    2  A    between atoms: C_3  and  O_4
REMARK    3  A    between atoms: O_4  and  C_5
REMARK    4  A    between atoms: C_5  and  C_6
REMARK                            x       y       z     vdW  Elec       q    Type
REMARK                         _______ _______ _______ _____ _____    ______ ____
ROOT
ATOM      1  O   UNL     1       2.811   8.200  18.023  0.00  0.00    +0.000 OA
ATOM      2  C   UNL     1       2.583   7.261  18.799  0.00  0.00    +0.000 C 
ATOM      3  N   UNL     1       2.944   5.936  18.515  0.00  0.00    +0.000 N 
ATOM      4  C   UNL     1       3.993   5.701  17.554  0.00  0.00    +0.000 A 
ATOM      5  C   UNL     1       5.029   6.627  17.338  0.00  0.00    +0.000 A 
ATOM      6  C   UNL     1       6.087   6.345  16.466  0.00  0.00    +0.000 A 
ATOM      7  C   UNL     1       6.119   5.139  15.776  0.00  0.00    +0.000 A 
ATOM      8  C   UNL     1       5.102   4.211  15.970  0.00  0.00    +0.000 A 
ATOM      9  C   UNL     1       4.068   4.485  16.871  0.00  0.00    +0.000 A 
ATOM     10  O   UNL     1       3.138   3.498  17.042  0.00  0.00    +0.000 OA
ATOM     11  C   UNL     1       2.442   3.551  18.224  0.00  0.00    +0.000 A 
ATOM     12  C   UNL     1       1.841   2.340  18.600  0.00  0.00    +0.000 A 
ATOM     13  C   UNL     1       1.140   2.253  19.792  0.00  0.00    +0.000 A 
ATOM     14  C   UNL     1       1.040   3.376  20.595  0.00  0.00    +0.000 A 
ATOM     15  C   UNL     1       1.618   4.594  20.195  0.00  0.00    +0.000 A 
ATOM     16  C   UNL     1       2.326   4.724  18.995  0.00  0.00    +0.000 A 
ENDROOT
BRANCH   2  17
ATOM     17  C   UNL     1       1.919   7.635  20.124  0.00  0.00    +0.000 C 
BRANCH  17  18
ATOM     18  O   UNL     1       1.415   8.966  20.191  0.00  0.00    +0.000 OA
BRANCH  18  19
ATOM     19  C   UNL     1       1.098   9.355  21.530  0.00  0.00    +0.000 C 
BRANCH  19  20
ATOM     20  C   UNL     1      -0.404   9.612  21.686  0.00  0.00    +0.000 C 
ATOM     21  C   UNL     1      -0.775  10.450  22.900  0.00  0.00    +0.000 C 
ATOM     22  C   UNL     1      -0.646  11.864  22.387  0.00  0.00    +0.000 C 
ATOM     23  C   UNL     1      -1.025  11.735  20.926  0.00  0.00    +0.000 C 
ATOM     24  O   UNL     1      -0.857  10.361  20.545  0.00  0.00    +0.000 OA
ENDBRANCH  19  20
ENDBRANCH  18  19
ENDBRANCH  17  18
ENDBRANCH   2  17
TORSDOF 4
ENDMDL
MODEL 4
REMARK VINA RESULT:      -8.0      2.049      4.391
REMARK  Name = 
REMARK  4 active torsions:
REMARK  status: ('A' for Active; 'I' for Inactive)
REMARK    1  A    between atoms: C_2  and  C_3
REMARK    2  A    between atoms: C_3  and  O_4
REMARK    3  A    between atoms: O_4  and  C_5
REMARK    4  A    between atoms: C_5  and  C_6
REMARK                            x       y       z     vdW  Elec       q    Type
REMARK                         _______ _______ _______ _____ _____    ______ ____
ROOT
ATOM      1  O   UNL     1       1.980   7.477  20.100  0.00  0.00    +0.000 OA
ATOM      2  C   UNL     1       2.578   7.219  19.045  0.00  0.00    +0.000 C 
ATOM      3  N   UNL     1       3.248   6.007  18.828  0.00  0.00    +0.000 N 
ATOM      4  C   UNL     1       2.868   4.861  19.617  0.00  0.00    +0.000 A 
ATOM      5  C   UNL     1       1.566   4.703  20.126  0.00  0.00    +0.000 A 
ATOM      6  C   UNL     1       1.189   3.544  20.814  0.00  0.00    +0.000 A 
ATOM      7  C   UNL     1       2.113   2.528  21.026  0.00  0.00    +0.000 A 
ATOM      8  C   UNL     1       3.408   2.666  20.537  0.00  0.00    +0.000 A 
ATOM      9  C   UNL     1       3.765   3.811  19.817  0.00  0.00    +0.000 A 
ATOM     10  O   UNL     1       5.041   3.842  19.327  0.00  0.00    +0.000 OA
ATOM     11  C   UNL     1       5.234   4.683  18.258  0.00  0.00    +0.000 A 
ATOM     12  C   UNL     1       6.370   4.392  17.488  0.00  0.00    +0.000 A 
ATOM     13  C   UNL     1       6.656   5.144  16.361  0.00  0.00    +0.000 A 
ATOM     14  C   UNL     1       5.809   6.184  16.015  0.00  0.00    +0.000 A 
ATOM     15  C   UNL     1       4.690   6.487  16.810  0.00  0.00    +0.000 A 
ATOM     16  C   UNL     1       4.373   5.756  17.960  0.00  0.00    +0.000 A 
ENDROOT
BRANCH   2  17
ATOM     17  C   UNL     1       2.505   8.291  17.957  0.00  0.00    +0.000 C 
BRANCH  17  18
ATOM     18  O   UNL     1       1.227   8.902  17.798  0.00  0.00    +0.000 OA
BRANCH  18  19
ATOM     19  C   UNL     1       1.194  10.227  18.336  0.00  0.00    +0.000 C 
BRANCH  19  20
ATOM     20  C   UNL     1      -0.098  10.467  19.124  0.00  0.00    +0.000 C 
ATOM     21  C   UNL     1      -0.296  11.904  19.582  0.00  0.00    +0.000 C 
ATOM     22  C   UNL     1      -0.971  12.547  18.395  0.00  0.00    +0.000 C 
ATOM     23  C   UNL     1      -1.781  11.412  17.803  0.00  0.00    +0.000 C 
ATOM     24  O   UNL     1      -1.214  10.176  18.264  0.00  0.00    +0.000 OA
ENDBRANCH  19  20
ENDBRANCH  18  19
ENDBRANCH  17  18
ENDBRANCH   2  17
TORSDOF 4
ENDMDL
MODEL 5
REMARK VINA RESULT:      -8.0      1.603      2.237
REMARK  Name = 
REMARK  4 active torsions:
REMARK  status: ('A' for Active; 'I' for Inactive)
REMARK    1  A    between atoms: C_2  and  C_3
REMARK    2  A    between atoms: C_3  and  O_4
REMARK    3  A    between atoms: O_4  and  C_5
REMARK    4  A    between atoms: C_5  and  C_6
REMARK                            x       y       z     vdW  Elec       q    Type
REMARK                         _______ _______ _______ _____ _____    ______ ____
ROOT
ATOM      1  O   UNL     1       2.553   8.292  17.670  0.00  0.00    +0.000 OA
ATOM      2  C   UNL     1       2.416   7.455  18.574  0.00  0.00    +0.000 C 
ATOM      3  N   UNL     1       2.857   6.129  18.454  0.00  0.00    +0.000 N 
ATOM      4  C   UNL     1       3.886   5.831  17.490  0.00  0.00    +0.000 A 
ATOM      5  C   UNL     1       4.849   6.783  17.107  0.00  0.00    +0.000 A 
ATOM      6  C   UNL     1       5.894   6.452  16.237  0.00  0.00    +0.000 A 
ATOM      7  C   UNL     1       5.985   5.168  15.713  0.00  0.00    +0.000 A 
ATOM      8  C   UNL     1       5.040   4.213  16.073  0.00  0.00    +0.000 A 
ATOM      9  C   UNL     1       4.021   4.542  16.973  0.00  0.00    +0.000 A 
ATOM     10  O   UNL     1       3.167   3.530  17.314  0.00  0.00    +0.000 OA
ATOM     11  C   UNL     1       2.509   3.700  18.508  0.00  0.00    +0.000 A 
ATOM     12  C   UNL     1       2.006   2.517  19.067  0.00  0.00    +0.000 A 
ATOM     13  C   UNL     1       1.353   2.548  20.289  0.00  0.00    +0.000 A 
ATOM     14  C   UNL     1       1.204   3.762  20.938  0.00  0.00    +0.000 A 
ATOM     15  C   UNL     1       1.684   4.948  20.354  0.00  0.00    +0.000 A 
ATOM     16  C   UNL     1       2.340   4.957  19.119  0.00  0.00    +0.000 A 
ENDROOT
BRANCH   2  17
ATOM     17  C   UNL     1       1.774   7.964  19.864  0.00  0.00    +0.000 C 
BRANCH  17  18
ATOM     18  O   UNL     1       1.519   9.366  19.899  0.00  0.00    +0.000 OA
BRANCH  18  19
ATOM     19  C   UNL     1       0.124   9.662  19.787  0.00  0.00    +0.000 C 
BRANCH  19  20
ATOM     20  C   UNL     1      -0.157  10.521  18.551  0.00  0.00    +0.000 C 
ATOM     21  C   UNL     1      -1.079   9.871  17.531  0.00  0.00    +0.000 C 
ATOM     22  C   UNL     1      -2.454  10.244  18.031  0.00  0.00    +0.000 C 
ATOM     23  C   UNL     1      -2.230  11.598  18.673  0.00  0.00    +0.000 C 
ATOM     24  O   UNL     1      -0.832  11.719  18.976  0.00  0.00    +0.000 OA
ENDBRANCH  19  20
ENDBRANCH  18  19
ENDBRANCH  17  18
ENDBRANCH   2  17
TORSDOF 4
ENDMDL
MODEL 6
REMARK VINA RESULT:      -8.0      2.051      7.277
REMARK  Name = 
REMARK  4 active torsions:
REMARK  status: ('A' for Active; 'I' for Inactive)
REMARK    1  A    between atoms: C_2  and  C_3
REMARK    2  A    between atoms: C_3  and  O_4
REMARK    3  A    between atoms: O_4  and  C_5
REMARK    4  A    between atoms: C_5  and  C_6
REMARK                            x       y       z     vdW  Elec       q    Type
REMARK                         _______ _______ _______ _____ _____    ______ ____
ROOT
ATOM      1  O   UNL     1       4.968   6.915  17.224  0.00  0.00    +0.000 OA
ATOM      2  C   UNL     1       4.274   5.909  17.433  0.00  0.00    +0.000 C 
ATOM      3  N   UNL     1       3.201   5.900  18.335  0.00  0.00    +0.000 N 
ATOM      4  C   UNL     1       2.584   7.156  18.682  0.00  0.00    +0.000 A 
ATOM      5  C   UNL     1       2.568   8.250  17.797  0.00  0.00    +0.000 A 
ATOM      6  C   UNL     1       1.888   9.432  18.114  0.00  0.00    +0.000 A 
ATOM      7  C   UNL     1       1.229   9.552  19.331  0.00  0.00    +0.000 A 
ATOM      8  C   UNL     1       1.237   8.486  20.224  0.00  0.00    +0.000 A 
ATOM      9  C   UNL     1       1.887   7.294  19.883  0.00  0.00    +0.000 A 
ATOM     10  O   UNL     1       1.801   6.279  20.794  0.00  0.00    +0.000 OA
ATOM     11  C   UNL     1       1.995   5.019  20.283  0.00  0.00    +0.000 A 
ATOM     12  C   UNL     1       1.477   3.984  21.076  0.00  0.00    +0.000 A 
ATOM     13  C   UNL     1       1.576   2.669  20.652  0.00  0.00    +0.000 A 
ATOM     14  C   UNL     1       2.196   2.397  19.443  0.00  0.00    +0.000 A 
ATOM     15  C   UNL     1       2.739   3.439  18.671  0.00  0.00    +0.000 A 
ATOM     16  C   UNL     1       2.667   4.778  19.069  0.00  0.00    +0.000 A 
ENDROOT
BRANCH   2  17
ATOM     17  C   UNL     1       4.627   4.672  16.607  0.00  0.00    +0.000 C 
BRANCH  17  18
ATOM     18  O   UNL     1       6.018   4.370  16.538  0.00  0.00    +0.000 OA
BRANCH  18  19
ATOM     19  C   UNL     1       6.366   3.718  15.314  0.00  0.00    +0.000 C 
BRANCH  19  20
ATOM     20  C   UNL     1       5.997   4.584  14.106  0.00  0.00    +0.000 C 
ATOM     21  C   UNL     1       7.151   4.858  13.154  0.00  0.00    +0.000 C 
ATOM     22  C   UNL     1       7.120   3.664  12.232  0.00  0.00    +0.000 C 
ATOM     23  C   UNL     1       5.648   3.312  12.174  0.00  0.00    +0.000 C 
ATOM     24  O   UNL     1       5.012   3.882  13.328  0.00  0.00    +0.000 OA
ENDBRANCH  19  20
ENDBRANCH  18  19
ENDBRANCH  17  18
ENDBRANCH   2  17
TORSDOF 4
ENDMDL
MODEL 7
REMARK VINA RESULT:      -7.9      2.176      7.201
REMARK  Name = 
REMARK  4 active torsions:
REMARK  status: ('A' for Active; 'I' for Inactive)
REMARK    1  A    between atoms: C_2  and  C_3
REMARK    2  A    between atoms: C_3  and  O_4
REMARK    3  A    between atoms: O_4  and  C_5
REMARK    4  A    between atoms: C_5  and  C_6
REMARK                            x       y       z     vdW  Elec       q    Type
REMARK                         _______ _______ _______ _____ _____    ______ ____
ROOT
ATOM      1  O   UNL     1       5.411   6.827  17.564  0.00  0.00    +0.000 OA
ATOM      2  C   UNL     1       4.729   5.805  17.724  0.00  0.00    +0.000 C 
ATOM      3  N   UNL     1       3.549   5.790  18.481  0.00  0.00    +0.000 N 
ATOM      4  C   UNL     1       2.852   7.034  18.692  0.00  0.00    +0.000 A 
ATOM      5  C   UNL     1       2.916   8.092  17.766  0.00  0.00    +0.000 A 
ATOM      6  C   UNL     1       2.164   9.259  17.942  0.00  0.00    +0.000 A 
ATOM      7  C   UNL     1       1.348   9.401  19.058  0.00  0.00    +0.000 A 
ATOM      8  C   UNL     1       1.275   8.371  19.989  0.00  0.00    +0.000 A 
ATOM      9  C   UNL     1       2.000   7.192  19.786  0.00  0.00    +0.000 A 
ATOM     10  O   UNL     1       1.829   6.209  20.721  0.00  0.00    +0.000 OA
ATOM     11  C   UNL     1       2.129   4.940  20.293  0.00  0.00    +0.000 A 
ATOM     12  C   UNL     1       1.546   3.917  21.056  0.00  0.00    +0.000 A 
ATOM     13  C   UNL     1       1.740   2.591  20.705  0.00  0.00    +0.000 A 
ATOM     14  C   UNL     1       2.520   2.297  19.598  0.00  0.00    +0.000 A 
ATOM     15  C   UNL     1       3.126   3.328  18.858  0.00  0.00    +0.000 A 
ATOM     16  C   UNL     1       2.960   4.678  19.187  0.00  0.00    +0.000 A 
ENDROOT
BRANCH   2  17
ATOM     17  C   UNL     1       5.226   4.551  17.004  0.00  0.00    +0.000 C 
BRANCH  17  18
ATOM     18  O   UNL     1       4.689   4.352  15.699  0.00  0.00    +0.000 OA
BRANCH  18  19
ATOM     19  C   UNL     1       5.434   5.051  14.699  0.00  0.00    +0.000 C 
BRANCH  19  20
ATOM     20  C   UNL     1       6.714   4.292  14.337  0.00  0.00    +0.000 C 
ATOM     21  C   UNL     1       6.683   3.623  12.971  0.00  0.00    +0.000 C 
ATOM     22  C   UNL     1       7.144   4.723  12.046  0.00  0.00    +0.000 C 
ATOM     23  C   UNL     1       8.101   5.520  12.909  0.00  0.00    +0.000 C 
ATOM     24  O   UNL     1       7.800   5.234  14.283  0.00  0.00    +0.000 OA
ENDBRANCH  19  20
ENDBRANCH  18  19
ENDBRANCH  17  18
ENDBRANCH   2  17
TORSDOF 4
ENDMDL
MODEL 8
REMARK VINA RESULT:      -7.9      0.868      1.114
REMARK  Name = 
REMARK  4 active torsions:
REMARK  status: ('A' for Active; 'I' for Inactive)
REMARK    1  A    between atoms: C_2  and  C_3
REMARK    2  A    between atoms: C_3  and  O_4
REMARK    3  A    between atoms: O_4  and  C_5
REMARK    4  A    between atoms: C_5  and  C_6
REMARK                            x       y       z     vdW  Elec       q    Type
REMARK                         _______ _______ _______ _____ _____    ______ ____
ROOT
ATOM      1  O   UNL     1       3.080   8.170  17.798  0.00  0.00    +0.000 OA
ATOM      2  C   UNL     1       2.753   7.256  18.570  0.00  0.00    +0.000 C 
ATOM      3  N   UNL     1       3.095   5.915  18.346  0.00  0.00    +0.000 N 
ATOM      4  C   UNL     1       4.218   5.625  17.489  0.00  0.00    +0.000 A 
ATOM      5  C   UNL     1       5.299   6.514  17.349  0.00  0.00    +0.000 A 
ATOM      6  C   UNL     1       6.422   6.179  16.583  0.00  0.00    +0.000 A 
ATOM      7  C   UNL     1       6.477   4.958  15.923  0.00  0.00    +0.000 A 
ATOM      8  C   UNL     1       5.416   4.066  16.042  0.00  0.00    +0.000 A 
ATOM      9  C   UNL     1       4.315   4.392  16.841  0.00  0.00    +0.000 A 
ATOM     10  O   UNL     1       3.342   3.438  16.947  0.00  0.00    +0.000 OA
ATOM     11  C   UNL     1       2.544   3.540  18.060  0.00  0.00    +0.000 A 
ATOM     12  C   UNL     1       1.873   2.357  18.404  0.00  0.00    +0.000 A 
ATOM     13  C   UNL     1       1.065   2.319  19.529  0.00  0.00    +0.000 A 
ATOM     14  C   UNL     1       0.929   3.463  20.297  0.00  0.00    +0.000 A 
ATOM     15  C   UNL     1       1.581   4.653  19.926  0.00  0.00    +0.000 A 
ATOM     16  C   UNL     1       2.398   4.733  18.793  0.00  0.00    +0.000 A 
ENDROOT
BRANCH   2  17
ATOM     17  C   UNL     1       1.986   7.681  19.821  0.00  0.00    +0.000 C 
BRANCH  17  18
ATOM     18  O   UNL     1       1.335   8.945  19.729  0.00  0.00    +0.000 OA
BRANCH  18  19
ATOM     19  C   UNL     1       0.904   9.423  21.006  0.00  0.00    +0.000 C 
BRANCH  19  20
ATOM     20  C   UNL     1       0.850  10.954  21.029  0.00  0.00    +0.000 C 
ATOM     21  C   UNL     1       0.117  11.574  19.850  0.00  0.00    +0.000 C 
ATOM     22  C   UNL     1      -1.321  11.575  20.308  0.00  0.00    +0.000 C 
ATOM     23  C   UNL     1      -1.205  11.757  21.807  0.00  0.00    +0.000 C 
ATOM     24  O   UNL     1       0.119  11.363  22.199  0.00  0.00    +0.000 OA
ENDBRANCH  19  20
ENDBRANCH  18  19
ENDBRANCH  17  18
ENDBRANCH   2  17
TORSDOF 4
ENDMDL
MODEL 9
REMARK VINA RESULT:      -7.9      1.961      6.149
REMARK  Name = 
REMARK  4 active torsions:
REMARK  status: ('A' for Active; 'I' for Inactive)
REMARK    1  A    between atoms: C_2  and  C_3
REMARK    2  A    between atoms: C_3  and  O_4
REMARK    3  A    between atoms: O_4  and  C_5
REMARK    4  A    between atoms: C_5  and  C_6
REMARK                            x       y       z     vdW  Elec       q    Type
REMARK                         _______ _______ _______ _____ _____    ______ ____
ROOT
ATOM      1  O   UNL     1       4.422   6.886  16.994  0.00  0.00    +0.000 OA
ATOM      2  C   UNL     1       3.785   5.870  17.307  0.00  0.00    +0.000 C 
ATOM      3  N   UNL     1       2.881   5.840  18.378  0.00  0.00    +0.000 N 
ATOM      4  C   UNL     1       2.318   7.085  18.838  0.00  0.00    +0.000 A 
ATOM      5  C   UNL     1       2.139   8.185  17.979  0.00  0.00    +0.000 A 
ATOM      6  C   UNL     1       1.510   9.356  18.418  0.00  0.00    +0.000 A 
ATOM      7  C   UNL     1       1.066   9.458  19.731  0.00  0.00    +0.000 A 
ATOM      8  C   UNL     1       1.238   8.385  20.599  0.00  0.00    +0.000 A 
ATOM      9  C   UNL     1       1.833   7.205  20.141  0.00  0.00    +0.000 A 
ATOM     10  O   UNL     1       1.915   6.181  21.043  0.00  0.00    +0.000 OA
ATOM     11  C   UNL     1       2.033   4.928  20.493  0.00  0.00    +0.000 A 
ATOM     12  C   UNL     1       1.670   3.880  21.352  0.00  0.00    +0.000 A 
ATOM     13  C   UNL     1       1.710   2.570  20.905  0.00  0.00    +0.000 A 
ATOM     14  C   UNL     1       2.118   2.316  19.606  0.00  0.00    +0.000 A 
ATOM     15  C   UNL     1       2.510   3.371  18.762  0.00  0.00    +0.000 A 
ATOM     16  C   UNL     1       2.492   4.706  19.181  0.00  0.00    +0.000 A 
ENDROOT
BRANCH   2  17
ATOM     17  C   UNL     1       4.006   4.644  16.421  0.00  0.00    +0.000 C 
BRANCH  17  18
ATOM     18  O   UNL     1       5.366   4.245  16.272  0.00  0.00    +0.000 OA
BRANCH  18  19
ATOM     19  C   UNL     1       6.032   4.122  17.531  0.00  0.00    +0.000 C 
BRANCH  19  20
ATOM     20  C   UNL     1       7.481   4.611  17.436  0.00  0.00    +0.000 C 
ATOM     21  C   UNL     1       7.632   6.026  16.897  0.00  0.00    +0.000 C 
ATOM     22  C   UNL     1       7.488   6.877  18.134  0.00  0.00    +0.000 C 
ATOM     23  C   UNL     1       8.068   6.000  19.225  0.00  0.00    +0.000 C 
ATOM     24  O   UNL     1       8.037   4.641  18.762  0.00  0.00    +0.000 OA
ENDBRANCH  19  20
ENDBRANCH  18  19
ENDBRANCH  17  18
ENDBRANCH   2  17
TORSDOF 4
ENDMDL
