MODEL 1
REMARK VINA RESULT:      -9.0      0.000      0.000
REMARK  Name = 
REMARK  6 active torsions:
REMARK  status: ('A' for Active; 'I' for Inactive)
REMARK    1  A    between atoms: C_2  and  C_3
REMARK    2  A    between atoms: C_2  and  C_19
REMARK    3  A    between atoms: C_7  and  N_8
REMARK    4  A    between atoms: C_9  and  C_11
REMARK    5  A    between atoms: C_23  and  C_24
REMARK    6  A    between atoms: C_25  and  C_26
REMARK                            x       y       z     vdW  Elec       q    Type
REMARK                         _______ _______ _______ _____ _____    ______ ____
ROOT
ATOM      1  O   UNL     1       2.743   4.691  18.089  0.00  0.00    +0.000 OA
ATOM      2  C   UNL     1       3.282   5.793  18.073  0.00  0.00    +0.000 C 
ENDROOT
BRANCH   2   3
ATOM      3  C   UNL     1       2.551   6.986  18.586  0.00  0.00    +0.000 A 
ATOM      4  C   UNL     1       2.132   6.999  19.922  0.00  0.00    +0.000 A 
ATOM      5  C   UNL     1       1.424   8.093  20.443  0.00  0.00    +0.000 A 
ATOM      6  C   UNL     1       1.127   9.185  19.601  0.00  0.00    +0.000 A 
ATOM      7  C   UNL     1       0.474  10.452  19.730  0.00  0.00    +0.000 A 
ATOM      8  N   UNL     1       0.466  11.106  18.557  0.00  0.00    +0.000 NA
ATOM      9  N   UNL     1       1.123  10.303  17.717  0.00  0.00    +0.000 N 
ATOM     10  C   UNL     1       1.547   9.133  18.278  0.00  0.00    +0.000 A 
ATOM     11  C   UNL     1       2.253   8.059  17.731  0.00  0.00    +0.000 A 
ATOM     12  H   UNL     1       1.259  10.619  16.764  0.00  0.00    +0.000 HD
BRANCH   7  13
ATOM     13  C   UNL     1      -0.039  10.996  20.961  0.00  0.00    +0.000 C 
ATOM     14  C   UNL     1      -1.071  11.857  21.039  0.00  0.00    +0.000 C 
BRANCH  14  15
ATOM     15  C   UNL     1      -1.519  12.605  22.222  0.00  0.00    +0.000 A 
ATOM     16  C   UNL     1      -2.716  12.177  22.819  0.00  0.00    +0.000 A 
ATOM     17  C   UNL     1      -3.247  12.838  23.924  0.00  0.00    +0.000 A 
ATOM     18  C   UNL     1      -2.580  13.932  24.460  0.00  0.00    +0.000 A 
ATOM     19  C   UNL     1      -1.377  14.359  23.895  0.00  0.00    +0.000 A 
ATOM     20  C   UNL     1      -0.845  13.695  22.782  0.00  0.00    +0.000 A 
ENDBRANCH  14  15
ENDBRANCH   7  13
ENDBRANCH   2   3
BRANCH   2  21
ATOM     21  C   UNL     1       4.654   5.927  17.522  0.00  0.00    +0.000 A 
ATOM     22  C   UNL     1       5.232   4.868  16.813  0.00  0.00    +0.000 A 
ATOM     23  C   UNL     1       6.538   4.978  16.359  0.00  0.00    +0.000 A 
ATOM     24  C   UNL     1       7.248   6.158  16.574  0.00  0.00    +0.000 A 
ATOM     25  C   UNL     1       6.665   7.253  17.225  0.00  0.00    +0.000 A 
ATOM     26  C   UNL     1       5.360   7.123  17.714  0.00  0.00    +0.000 A 
BRANCH  25  27
ATOM     27  N   UNL     1       7.344   8.477  17.407  0.00  0.00    +0.000 N 
ATOM     28  C   UNL     1       8.323   8.729  18.356  0.00  0.00    +0.000 C 
ATOM     29  O   UNL     1       8.768   7.933  19.177  0.00  0.00    +0.000 OA
ATOM     30  H   UNL     1       7.172   9.232  16.744  0.00  0.00    +0.000 HD
BRANCH  28  31
ATOM     31  C   UNL     1       8.900  10.108  18.328  0.00  0.00    +0.000 A 
ATOM     32  C   UNL     1       8.250  11.089  17.578  0.00  0.00    +0.000 A 
ATOM     33  C   UNL     1       8.771  12.377  17.571  0.00  0.00    +0.000 A 
ATOM     34  C   UNL     1       9.921  12.638  18.306  0.00  0.00    +0.000 A 
ATOM     35  C   UNL     1      10.499  11.591  19.014  0.00  0.00    +0.000 A 
ATOM     36 CL   UNL     1      11.925  11.846  19.933  0.00  0.00    +0.000 Cl
ATOM     37  N   UNL     1      10.026  10.326  19.053  0.00  0.00    +0.000 NA
ENDBRANCH  28  31
ENDBRANCH  25  27
ENDBRANCH   2  21
TORSDOF 6
ENDMDL
MODEL 2
REMARK VINA RESULT:      -9.0      5.599     11.470
REMARK  Name = 
REMARK  6 active torsions:
REMARK  status: ('A' for Active; 'I' for Inactive)
REMARK    1  A    between atoms: C_2  and  C_3
REMARK    2  A    between atoms: C_2  and  C_19
REMARK    3  A    between atoms: C_7  and  N_8
REMARK    4  A    between atoms: C_9  and  C_11
REMARK    5  A    between atoms: C_23  and  C_24
REMARK    6  A    between atoms: C_25  and  C_26
REMARK                            x       y       z     vdW  Elec       q    Type
REMARK                         _______ _______ _______ _____ _____    ______ ____
ROOT
ATOM      1  O   UNL     1       1.000   9.360  21.786  0.00  0.00    +0.000 OA
ATOM      2  C   UNL     1       1.114   9.372  20.564  0.00  0.00    +0.000 C 
ENDROOT
BRANCH   2   3
ATOM      3  C   UNL     1       1.740   8.215  19.864  0.00  0.00    +0.000 A 
ATOM      4  C   UNL     1       2.062   8.341  18.507  0.00  0.00    +0.000 A 
ATOM      5  C   UNL     1       2.636   7.272  17.801  0.00  0.00    +0.000 A 
ATOM      6  C   UNL     1       2.879   6.056  18.474  0.00  0.00    +0.000 A 
ATOM      7  C   UNL     1       3.442   4.781  18.149  0.00  0.00    +0.000 A 
ATOM      8  N   UNL     1       3.409   3.959  19.211  0.00  0.00    +0.000 NA
ATOM      9  N   UNL     1       2.876   4.694  20.191  0.00  0.00    +0.000 N 
ATOM     10  C   UNL     1       2.536   5.962  19.817  0.00  0.00    +0.000 A 
ATOM     11  C   UNL     1       1.963   7.008  20.544  0.00  0.00    +0.000 A 
ATOM     12  H   UNL     1       2.781   4.271  21.106  0.00  0.00    +0.000 HD
BRANCH   7  13
ATOM     13  C   UNL     1       4.040   4.440  16.884  0.00  0.00    +0.000 C 
ATOM     14  C   UNL     1       5.279   4.805  16.506  0.00  0.00    +0.000 C 
BRANCH  14  15
ATOM     15  C   UNL     1       5.879   4.671  15.170  0.00  0.00    +0.000 A 
ATOM     16  C   UNL     1       5.165   3.902  14.236  0.00  0.00    +0.000 A 
ATOM     17  C   UNL     1       5.662   3.684  12.953  0.00  0.00    +0.000 A 
ATOM     18  C   UNL     1       6.876   4.244  12.578  0.00  0.00    +0.000 A 
ATOM     19  C   UNL     1       7.589   5.030  13.486  0.00  0.00    +0.000 A 
ATOM     20  C   UNL     1       7.090   5.247  14.776  0.00  0.00    +0.000 A 
ENDBRANCH  14  15
ENDBRANCH   7  13
ENDBRANCH   2   3
BRANCH   2  21
ATOM     21  C   UNL     1       0.643  10.554  19.799  0.00  0.00    +0.000 A 
ATOM     22  C   UNL     1       1.560  11.351  19.104  0.00  0.00    +0.000 A 
ATOM     23  C   UNL     1       1.119  12.491  18.447  0.00  0.00    +0.000 A 
ATOM     24  C   UNL     1      -0.237  12.808  18.448  0.00  0.00    +0.000 A 
ATOM     25  C   UNL     1      -1.179  11.988  19.083  0.00  0.00    +0.000 A 
ATOM     26  C   UNL     1      -0.725  10.860  19.777  0.00  0.00    +0.000 A 
BRANCH  25  27
ATOM     27  N   UNL     1      -2.564  12.258  19.053  0.00  0.00    +0.000 N 
ATOM     28  C   UNL     1      -3.509  11.571  18.306  0.00  0.00    +0.000 C 
ATOM     29  O   UNL     1      -3.302  10.613  17.568  0.00  0.00    +0.000 OA
ATOM     30  H   UNL     1      -2.937  12.965  19.686  0.00  0.00    +0.000 HD
BRANCH  28  31
ATOM     31  C   UNL     1      -4.918  12.045  18.467  0.00  0.00    +0.000 A 
ATOM     32  C   UNL     1      -5.761  12.024  17.355  0.00  0.00    +0.000 A 
ATOM     33  C   UNL     1      -7.077  12.441  17.510  0.00  0.00    +0.000 A 
ATOM     34  C   UNL     1      -7.502  12.868  18.762  0.00  0.00    +0.000 A 
ATOM     35  C   UNL     1      -6.583  12.860  19.804  0.00  0.00    +0.000 A 
ATOM     36 CL   UNL     1      -7.043  13.385  21.371  0.00  0.00    +0.000 Cl
ATOM     37  N   UNL     1      -5.298  12.460  19.702  0.00  0.00    +0.000 NA
ENDBRANCH  28  31
ENDBRANCH  25  27
ENDBRANCH   2  21
TORSDOF 6
ENDMDL
MODEL 3
REMARK VINA RESULT:      -8.7      5.236     11.409
REMARK  Name = 
REMARK  6 active torsions:
REMARK  status: ('A' for Active; 'I' for Inactive)
REMARK    1  A    between atoms: C_2  and  C_3
REMARK    2  A    between atoms: C_2  and  C_19
REMARK    3  A    between atoms: C_7  and  N_8
REMARK    4  A    between atoms: C_9  and  C_11
REMARK    5  A    between atoms: C_23  and  C_24
REMARK    6  A    between atoms: C_25  and  C_26
REMARK                            x       y       z     vdW  Elec       q    Type
REMARK                         _______ _______ _______ _____ _____    ______ ____
ROOT
ATOM      1  O   UNL     1       0.978   8.535  22.166  0.00  0.00    +0.000 OA
ATOM      2  C   UNL     1       0.958   8.760  20.960  0.00  0.00    +0.000 C 
ENDROOT
BRANCH   2   3
ATOM      3  C   UNL     1       1.785   7.935  20.035  0.00  0.00    +0.000 A 
ATOM      4  C   UNL     1       2.146   8.469  18.792  0.00  0.00    +0.000 A 
ATOM      5  C   UNL     1       2.908   7.721  17.881  0.00  0.00    +0.000 A 
ATOM      6  C   UNL     1       3.303   6.411  18.227  0.00  0.00    +0.000 A 
ATOM      7  C   UNL     1       4.069   5.362  17.627  0.00  0.00    +0.000 A 
ATOM      8  N   UNL     1       4.113   4.285  18.428  0.00  0.00    +0.000 NA
ATOM      9  N   UNL     1       3.431   4.645  19.517  0.00  0.00    +0.000 N 
ATOM     10  C   UNL     1       2.917   5.909  19.464  0.00  0.00    +0.000 A 
ATOM     11  C   UNL     1       2.159   6.629  20.390  0.00  0.00    +0.000 A 
ATOM     12  H   UNL     1       3.360   3.979  20.277  0.00  0.00    +0.000 HD
BRANCH   7  13
ATOM     13  C   UNL     1       4.768   5.464  16.372  0.00  0.00    +0.000 C 
ATOM     14  C   UNL     1       4.965   4.434  15.527  0.00  0.00    +0.000 C 
BRANCH  14  15
ATOM     15  C   UNL     1       5.831   4.410  14.339  0.00  0.00    +0.000 A 
ATOM     16  C   UNL     1       5.431   3.567  13.289  0.00  0.00    +0.000 A 
ATOM     17  C   UNL     1       6.198   3.444  12.132  0.00  0.00    +0.000 A 
ATOM     18  C   UNL     1       7.372   4.174  12.002  0.00  0.00    +0.000 A 
ATOM     19  C   UNL     1       7.774   5.034  13.025  0.00  0.00    +0.000 A 
ATOM     20  C   UNL     1       7.004   5.155  14.188  0.00  0.00    +0.000 A 
ENDBRANCH  14  15
ENDBRANCH   7  13
ENDBRANCH   2   3
BRANCH   2  21
ATOM     21  C   UNL     1       0.123   9.871  20.439  0.00  0.00    +0.000 A 
ATOM     22  C   UNL     1      -0.247   9.898  19.089  0.00  0.00    +0.000 A 
ATOM     23  C   UNL     1      -0.972  10.974  18.597  0.00  0.00    +0.000 A 
ATOM     24  C   UNL     1      -1.362  11.997  19.459  0.00  0.00    +0.000 A 
ATOM     25  C   UNL     1      -1.056  11.957  20.826  0.00  0.00    +0.000 A 
ATOM     26  C   UNL     1      -0.293  10.888  21.310  0.00  0.00    +0.000 A 
BRANCH  25  27
ATOM     27  N   UNL     1      -1.486  12.952  21.730  0.00  0.00    +0.000 N 
ATOM     28  C   UNL     1      -2.692  12.961  22.415  0.00  0.00    +0.000 C 
ATOM     29  O   UNL     1      -3.569  12.105  22.361  0.00  0.00    +0.000 OA
ATOM     30  H   UNL     1      -0.838  13.699  21.976  0.00  0.00    +0.000 HD
BRANCH  28  31
ATOM     31  C   UNL     1      -2.898  14.126  23.329  0.00  0.00    +0.000 A 
ATOM     32  C   UNL     1      -1.824  14.566  24.103  0.00  0.00    +0.000 A 
ATOM     33  C   UNL     1      -2.007  15.664  24.935  0.00  0.00    +0.000 A 
ATOM     34  C   UNL     1      -3.254  16.278  24.968  0.00  0.00    +0.000 A 
ATOM     35  C   UNL     1      -4.262  15.758  24.166  0.00  0.00    +0.000 A 
ATOM     36 CL   UNL     1      -5.825  16.465  24.170  0.00  0.00    +0.000 Cl
ATOM     37  N   UNL     1      -4.129  14.698  23.340  0.00  0.00    +0.000 NA
ENDBRANCH  28  31
ENDBRANCH  25  27
ENDBRANCH   2  21
TORSDOF 6
ENDMDL
MODEL 4
REMARK VINA RESULT:      -8.7      1.191      1.334
REMARK  Name = 
REMARK  6 active torsions:
REMARK  status: ('A' for Active; 'I' for Inactive)
REMARK    1  A    between atoms: C_2  and  C_3
REMARK    2  A    between atoms: C_2  and  C_19
REMARK    3  A    between atoms: C_7  and  N_8
REMARK    4  A    between atoms: C_9  and  C_11
REMARK    5  A    between atoms: C_23  and  C_24
REMARK    6  A    between atoms: C_25  and  C_26
REMARK                            x       y       z     vdW  Elec       q    Type
REMARK                         _______ _______ _______ _____ _____    ______ ____
ROOT
ATOM      1  O   UNL     1       2.845   5.028  17.633  0.00  0.00    +0.000 OA
ATOM      2  C   UNL     1       3.438   6.067  17.905  0.00  0.00    +0.000 C 
ENDROOT
BRANCH   2   3
ATOM      3  C   UNL     1       2.687   7.233  18.450  0.00  0.00    +0.000 A 
ATOM      4  C   UNL     1       2.204   7.171  19.763  0.00  0.00    +0.000 A 
ATOM      5  C   UNL     1       1.474   8.236  20.313  0.00  0.00    +0.000 A 
ATOM      6  C   UNL     1       1.221   9.377  19.522  0.00  0.00    +0.000 A 
ATOM      7  C   UNL     1       0.566  10.637  19.692  0.00  0.00    +0.000 A 
ATOM      8  N   UNL     1       0.616  11.359  18.560  0.00  0.00    +0.000 NA
ATOM      9  N   UNL     1       1.310  10.602  17.708  0.00  0.00    +0.000 N 
ATOM     10  C   UNL     1       1.704   9.399  18.219  0.00  0.00    +0.000 A 
ATOM     11  C   UNL     1       2.432   8.354  17.646  0.00  0.00    +0.000 A 
ATOM     12  H   UNL     1       1.494  10.972  16.783  0.00  0.00    +0.000 HD
BRANCH   7  13
ATOM     13  C   UNL     1      -0.004  11.112  20.927  0.00  0.00    +0.000 C 
ATOM     14  C   UNL     1      -1.051  11.954  21.005  0.00  0.00    +0.000 C 
BRANCH  14  15
ATOM     15  C   UNL     1      -1.558  12.636  22.205  0.00  0.00    +0.000 A 
ATOM     16  C   UNL     1      -2.776  12.168  22.726  0.00  0.00    +0.000 A 
ATOM     17  C   UNL     1      -3.361  12.767  23.839  0.00  0.00    +0.000 A 
ATOM     18  C   UNL     1      -2.729  13.837  24.460  0.00  0.00    +0.000 A 
ATOM     19  C   UNL     1      -1.507  14.302  23.971  0.00  0.00    +0.000 A 
ATOM     20  C   UNL     1      -0.921  13.701  22.850  0.00  0.00    +0.000 A 
ENDBRANCH  14  15
ENDBRANCH   7  13
ENDBRANCH   2   3
BRANCH   2  21
ATOM     21  C   UNL     1       4.901   6.157  17.666  0.00  0.00    +0.000 A 
ATOM     22  C   UNL     1       5.649   4.994  17.452  0.00  0.00    +0.000 A 
ATOM     23  C   UNL     1       7.025   5.082  17.296  0.00  0.00    +0.000 A 
ATOM     24  C   UNL     1       7.644   6.331  17.309  0.00  0.00    +0.000 A 
ATOM     25  C   UNL     1       6.904   7.511  17.457  0.00  0.00    +0.000 A 
ATOM     26  C   UNL     1       5.521   7.414  17.652  0.00  0.00    +0.000 A 
BRANCH  25  27
ATOM     27  N   UNL     1       7.499   8.790  17.419  0.00  0.00    +0.000 N 
ATOM     28  C   UNL     1       8.460   9.265  18.300  0.00  0.00    +0.000 C 
ATOM     29  O   UNL     1       8.957   8.651  19.239  0.00  0.00    +0.000 OA
ATOM     30  H   UNL     1       7.278   9.408  16.639  0.00  0.00    +0.000 HD
BRANCH  28  31
ATOM     31  C   UNL     1       8.943  10.654  18.029  0.00  0.00    +0.000 A 
ATOM     32  C   UNL     1      10.316  10.873  17.920  0.00  0.00    +0.000 A 
ATOM     33  C   UNL     1      10.765  12.159  17.644  0.00  0.00    +0.000 A 
ATOM     34  C   UNL     1       9.831  13.176  17.492  0.00  0.00    +0.000 A 
ATOM     35  C   UNL     1       8.486  12.857  17.628  0.00  0.00    +0.000 A 
ATOM     36 CL   UNL     1       7.284  14.070  17.462  0.00  0.00    +0.000 Cl
ATOM     37  N   UNL     1       8.003  11.624  17.892  0.00  0.00    +0.000 NA
ENDBRANCH  28  31
ENDBRANCH  25  27
ENDBRANCH   2  21
TORSDOF 6
ENDMDL
MODEL 5
REMARK VINA RESULT:      -8.6      1.834      2.329
REMARK  Name = 
REMARK  6 active torsions:
REMARK  status: ('A' for Active; 'I' for Inactive)
REMARK    1  A    between atoms: C_2  and  C_3
REMARK    2  A    between atoms: C_2  and  C_19
REMARK    3  A    between atoms: C_7  and  N_8
REMARK    4  A    between atoms: C_9  and  C_11
REMARK    5  A    between atoms: C_23  and  C_24
REMARK    6  A    between atoms: C_25  and  C_26
REMARK                            x       y       z     vdW  Elec       q    Type
REMARK                         _______ _______ _______ _____ _____    ______ ____
ROOT
ATOM      1  O   UNL     1       2.385   4.841  17.793  0.00  0.00    +0.000 OA
ATOM      2  C   UNL     1       3.016   5.883  17.938  0.00  0.00    +0.000 C 
ENDROOT
BRANCH   2   3
ATOM      3  C   UNL     1       2.388   7.043  18.632  0.00  0.00    +0.000 A 
ATOM      4  C   UNL     1       1.993   8.151  17.873  0.00  0.00    +0.000 A 
ATOM      5  C   UNL     1       1.414   9.274  18.485  0.00  0.00    +0.000 A 
ATOM      6  C   UNL     1       1.241   9.280  19.885  0.00  0.00    +0.000 A 
ATOM      7  C   UNL     1       0.698  10.173  20.863  0.00  0.00    +0.000 A 
ATOM      8  N   UNL     1       0.810   9.655  22.097  0.00  0.00    +0.000 NA
ATOM      9  N   UNL     1       1.371   8.458  21.912  0.00  0.00    +0.000 N 
ATOM     10  C   UNL     1       1.656   8.169  20.609  0.00  0.00    +0.000 A 
ATOM     11  C   UNL     1       2.235   7.039  20.027  0.00  0.00    +0.000 A 
ATOM     12  H   UNL     1       1.526   7.874  22.725  0.00  0.00    +0.000 HD
BRANCH   7  13
ATOM     13  C   UNL     1       0.047  11.423  20.569  0.00  0.00    +0.000 C 
ATOM     14  C   UNL     1       0.637  12.459  19.943  0.00  0.00    +0.000 C 
BRANCH  14  15
ATOM     15  C   UNL     1       0.112  13.823  19.787  0.00  0.00    +0.000 A 
ATOM     16  C   UNL     1      -1.155  14.074  20.339  0.00  0.00    +0.000 A 
ATOM     17  C   UNL     1      -1.759  15.323  20.217  0.00  0.00    +0.000 A 
ATOM     18  C   UNL     1      -1.098  16.348  19.552  0.00  0.00    +0.000 A 
ATOM     19  C   UNL     1       0.171  16.124  19.017  0.00  0.00    +0.000 A 
ATOM     20  C   UNL     1       0.777  14.867  19.138  0.00  0.00    +0.000 A 
ENDBRANCH  14  15
ENDBRANCH   7  13
ENDBRANCH   2   3
BRANCH   2  21
ATOM     21  C   UNL     1       4.396   5.982  17.399  0.00  0.00    +0.000 A 
ATOM     22  C   UNL     1       4.946   4.916  16.679  0.00  0.00    +0.000 A 
ATOM     23  C   UNL     1       6.259   4.992  16.237  0.00  0.00    +0.000 A 
ATOM     24  C   UNL     1       7.003   6.145  16.474  0.00  0.00    +0.000 A 
ATOM     25  C   UNL     1       6.449   7.249  17.136  0.00  0.00    +0.000 A 
ATOM     26  C   UNL     1       5.137   7.153  17.614  0.00  0.00    +0.000 A 
BRANCH  25  27
ATOM     27  N   UNL     1       7.164   8.448  17.341  0.00  0.00    +0.000 N 
ATOM     28  C   UNL     1       8.207   8.629  18.237  0.00  0.00    +0.000 C 
ATOM     29  O   UNL     1       8.686   7.780  18.982  0.00  0.00    +0.000 OA
ATOM     30  H   UNL     1       6.967   9.243  16.734  0.00  0.00    +0.000 HD
BRANCH  28  31
ATOM     31  C   UNL     1       8.810   9.998  18.247  0.00  0.00    +0.000 A 
ATOM     32  C   UNL     1       8.159  11.020  17.558  0.00  0.00    +0.000 A 
ATOM     33  C   UNL     1       8.705  12.297  17.587  0.00  0.00    +0.000 A 
ATOM     34  C   UNL     1       9.881  12.506  18.298  0.00  0.00    +0.000 A 
ATOM     35  C   UNL     1      10.458  11.420  18.945  0.00  0.00    +0.000 A 
ATOM     36 CL   UNL     1      11.914  11.611  19.831  0.00  0.00    +0.000 Cl
ATOM     37  N   UNL     1       9.961  10.164  18.948  0.00  0.00    +0.000 NA
ENDBRANCH  28  31
ENDBRANCH  25  27
ENDBRANCH   2  21
TORSDOF 6
ENDMDL
MODEL 6
REMARK VINA RESULT:      -8.5      5.482     11.805
REMARK  Name = 
REMARK  6 active torsions:
REMARK  status: ('A' for Active; 'I' for Inactive)
REMARK    1  A    between atoms: C_2  and  C_3
REMARK    2  A    between atoms: C_2  and  C_19
REMARK    3  A    between atoms: C_7  and  N_8
REMARK    4  A    between atoms: C_9  and  C_11
REMARK    5  A    between atoms: C_23  and  C_24
REMARK    6  A    between atoms: C_25  and  C_26
REMARK                            x       y       z     vdW  Elec       q    Type
REMARK                         _______ _______ _______ _____ _____    ______ ____
ROOT
ATOM      1  O   UNL     1       0.625  12.616  19.112  0.00  0.00    +0.000 OA
ATOM      2  C   UNL     1       0.025  11.557  18.952  0.00  0.00    +0.000 C 
ENDROOT
BRANCH   2   3
ATOM      3  C   UNL     1       0.772  10.267  18.979  0.00  0.00    +0.000 A 
ATOM      4  C   UNL     1       1.514   9.894  17.852  0.00  0.00    +0.000 A 
ATOM      5  C   UNL     1       2.219   8.680  17.824  0.00  0.00    +0.000 A 
ATOM      6  C   UNL     1       2.164   7.827  18.947  0.00  0.00    +0.000 A 
ATOM      7  C   UNL     1       2.725   6.566  19.325  0.00  0.00    +0.000 A 
ATOM      8  N   UNL     1       2.308   6.206  20.550  0.00  0.00    +0.000 NA
ATOM      9  N   UNL     1       1.537   7.217  20.956  0.00  0.00    +0.000 N 
ATOM     10  C   UNL     1       1.407   8.224  20.043  0.00  0.00    +0.000 A 
ATOM     11  C   UNL     1       0.696   9.425  20.099  0.00  0.00    +0.000 A 
ATOM     12  H   UNL     1       1.131   7.165  21.882  0.00  0.00    +0.000 HD
BRANCH   7  13
ATOM     13  C   UNL     1       3.671   5.815  18.542  0.00  0.00    +0.000 C 
ATOM     14  C   UNL     1       4.672   6.364  17.827  0.00  0.00    +0.000 C 
BRANCH  14  15
ATOM     15  C   UNL     1       5.544   5.692  16.853  0.00  0.00    +0.000 A 
ATOM     16  C   UNL     1       5.153   5.763  15.506  0.00  0.00    +0.000 A 
ATOM     17  C   UNL     1       5.891   5.131  14.508  0.00  0.00    +0.000 A 
ATOM     18  C   UNL     1       7.041   4.428  14.839  0.00  0.00    +0.000 A 
ATOM     19  C   UNL     1       7.459   4.365  16.170  0.00  0.00    +0.000 A 
ATOM     20  C   UNL     1       6.716   4.998  17.174  0.00  0.00    +0.000 A 
ENDBRANCH  14  15
ENDBRANCH   7  13
ENDBRANCH   2   3
BRANCH   2  21
ATOM     21  C   UNL     1      -1.440  11.577  18.712  0.00  0.00    +0.000 A 
ATOM     22  C   UNL     1      -1.962  11.070  17.517  0.00  0.00    +0.000 A 
ATOM     23  C   UNL     1      -3.325  11.154  17.274  0.00  0.00    +0.000 A 
ATOM     24  C   UNL     1      -4.168  11.702  18.239  0.00  0.00    +0.000 A 
ATOM     25  C   UNL     1      -3.672  12.155  19.469  0.00  0.00    +0.000 A 
ATOM     26  C   UNL     1      -2.292  12.103  19.694  0.00  0.00    +0.000 A 
BRANCH  25  27
ATOM     27  N   UNL     1      -4.511  12.663  20.484  0.00  0.00    +0.000 N 
ATOM     28  C   UNL     1      -4.395  13.907  21.085  0.00  0.00    +0.000 C 
ATOM     29  O   UNL     1      -3.563  14.770  20.825  0.00  0.00    +0.000 OA
ATOM     30  H   UNL     1      -5.326  12.118  20.760  0.00  0.00    +0.000 HD
BRANCH  28  31
ATOM     31  C   UNL     1      -5.426  14.212  22.125  0.00  0.00    +0.000 A 
ATOM     32  C   UNL     1      -6.396  13.250  22.406  0.00  0.00    +0.000 A 
ATOM     33  C   UNL     1      -7.338  13.522  23.390  0.00  0.00    +0.000 A 
ATOM     34  C   UNL     1      -7.282  14.743  24.052  0.00  0.00    +0.000 A 
ATOM     35  C   UNL     1      -6.282  15.638  23.693  0.00  0.00    +0.000 A 
ATOM     36 CL   UNL     1      -6.165  17.165  24.465  0.00  0.00    +0.000 Cl
ATOM     37  N   UNL     1      -5.344  15.416  22.748  0.00  0.00    +0.000 NA
ENDBRANCH  28  31
ENDBRANCH  25  27
ENDBRANCH   2  21
TORSDOF 6
ENDMDL
MODEL 7
REMARK VINA RESULT:      -8.5      4.354      5.853
REMARK  Name = 
REMARK  6 active torsions:
REMARK  status: ('A' for Active; 'I' for Inactive)
REMARK    1  A    between atoms: C_2  and  C_3
REMARK    2  A    between atoms: C_2  and  C_19
REMARK    3  A    between atoms: C_7  and  N_8
REMARK    4  A    between atoms: C_9  and  C_11
REMARK    5  A    between atoms: C_23  and  C_24
REMARK    6  A    between atoms: C_25  and  C_26
REMARK                            x       y       z     vdW  Elec       q    Type
REMARK                         _______ _______ _______ _____ _____    ______ ____
ROOT
ATOM      1  O   UNL     1       2.819   4.272  20.091  0.00  0.00    +0.000 OA
ATOM      2  C   UNL     1       3.303   5.246  19.522  0.00  0.00    +0.000 C 
ENDROOT
BRANCH   2   3
ATOM      3  C   UNL     1       2.609   6.563  19.581  0.00  0.00    +0.000 A 
ATOM      4  C   UNL     1       1.866   6.885  20.724  0.00  0.00    +0.000 A 
ATOM      5  C   UNL     1       1.180   8.105  20.817  0.00  0.00    +0.000 A 
ATOM      6  C   UNL     1       1.237   9.010  19.736  0.00  0.00    +0.000 A 
ATOM      7  C   UNL     1       0.724  10.313  19.441  0.00  0.00    +0.000 A 
ATOM      8  N   UNL     1       1.093  10.704  18.210  0.00  0.00    +0.000 NA
ATOM      9  N   UNL     1       1.845   9.702  17.748  0.00  0.00    +0.000 N 
ATOM     10  C   UNL     1       1.973   8.654  18.613  0.00  0.00    +0.000 A 
ATOM     11  C   UNL     1       2.665   7.447  18.492  0.00  0.00    +0.000 A 
ATOM     12  H   UNL     1       2.256   9.800  16.828  0.00  0.00    +0.000 HD
BRANCH   7  13
ATOM     13  C   UNL     1      -0.019  11.136  20.359  0.00  0.00    +0.000 C 
ATOM     14  C   UNL     1      -1.226  11.670  20.094  0.00  0.00    +0.000 C 
BRANCH  14  15
ATOM     15  C   UNL     1      -1.951  12.673  20.889  0.00  0.00    +0.000 A 
ATOM     16  C   UNL     1      -3.346  12.709  20.732  0.00  0.00    +0.000 A 
ATOM     17  C   UNL     1      -4.123  13.644  21.412  0.00  0.00    +0.000 A 
ATOM     18  C   UNL     1      -3.518  14.550  22.273  0.00  0.00    +0.000 A 
ATOM     19  C   UNL     1      -2.135  14.515  22.459  0.00  0.00    +0.000 A 
ATOM     20  C   UNL     1      -1.354  13.576  21.773  0.00  0.00    +0.000 A 
ENDBRANCH  14  15
ENDBRANCH   7  13
ENDBRANCH   2   3
BRANCH   2  21
ATOM     21  C   UNL     1       4.568   5.092  18.761  0.00  0.00    +0.000 A 
ATOM     22  C   UNL     1       5.787   5.455  19.345  0.00  0.00    +0.000 A 
ATOM     23  C   UNL     1       6.956   5.370  18.602  0.00  0.00    +0.000 A 
ATOM     24  C   UNL     1       6.913   4.884  17.297  0.00  0.00    +0.000 A 
ATOM     25  C   UNL     1       5.712   4.456  16.717  0.00  0.00    +0.000 A 
ATOM     26  C   UNL     1       4.530   4.579  17.457  0.00  0.00    +0.000 A 
BRANCH  25  27
ATOM     27  N   UNL     1       5.649   3.909  15.417  0.00  0.00    +0.000 N 
ATOM     28  C   UNL     1       6.233   4.448  14.281  0.00  0.00    +0.000 C 
ATOM     29  O   UNL     1       6.907   5.472  14.221  0.00  0.00    +0.000 OA
ATOM     30  H   UNL     1       5.209   2.998  15.293  0.00  0.00    +0.000 HD
BRANCH  28  31
ATOM     31  C   UNL     1       6.033   3.661  13.025  0.00  0.00    +0.000 A 
ATOM     32  C   UNL     1       7.113   2.947  12.506  0.00  0.00    +0.000 A 
ATOM     33  C   UNL     1       6.921   2.195  11.353  0.00  0.00    +0.000 A 
ATOM     34  C   UNL     1       5.665   2.187  10.760  0.00  0.00    +0.000 A 
ATOM     35  C   UNL     1       4.656   2.938  11.350  0.00  0.00    +0.000 A 
ATOM     36 CL   UNL     1       3.086   2.977  10.662  0.00  0.00    +0.000 Cl
ATOM     37  N   UNL     1       4.794   3.679  12.471  0.00  0.00    +0.000 NA
ENDBRANCH  28  31
ENDBRANCH  25  27
ENDBRANCH   2  21
TORSDOF 6
ENDMDL
MODEL 8
REMARK VINA RESULT:      -8.5      5.463     11.455
REMARK  Name = 
REMARK  6 active torsions:
REMARK  status: ('A' for Active; 'I' for Inactive)
REMARK    1  A    between atoms: C_2  and  C_3
REMARK    2  A    between atoms: C_2  and  C_19
REMARK    3  A    between atoms: C_7  and  N_8
REMARK    4  A    between atoms: C_9  and  C_11
REMARK    5  A    between atoms: C_23  and  C_24
REMARK    6  A    between atoms: C_25  and  C_26
REMARK                            x       y       z     vdW  Elec       q    Type
REMARK                         _______ _______ _______ _____ _____    ______ ____
ROOT
ATOM      1  O   UNL     1      -4.923  11.218  16.497  0.00  0.00    +0.000 OA
ATOM      2  C   UNL     1      -4.450  11.242  17.629  0.00  0.00    +0.000 C 
ENDROOT
BRANCH   2   3
ATOM      3  C   UNL     1      -2.998  10.976  17.834  0.00  0.00    +0.000 A 
ATOM      4  C   UNL     1      -2.555   9.648  17.883  0.00  0.00    +0.000 A 
ATOM      5  C   UNL     1      -1.200   9.349  18.093  0.00  0.00    +0.000 A 
ATOM      6  C   UNL     1      -0.281  10.405  18.265  0.00  0.00    +0.000 A 
ATOM      7  C   UNL     1       1.129  10.535  18.473  0.00  0.00    +0.000 A 
ATOM      8  N   UNL     1       1.478  11.827  18.585  0.00  0.00    +0.000 NA
ATOM      9  N   UNL     1       0.338  12.501  18.419  0.00  0.00    +0.000 N 
ATOM     10  C   UNL     1      -0.757  11.710  18.223  0.00  0.00    +0.000 A 
ATOM     11  C   UNL     1      -2.099  12.038  18.016  0.00  0.00    +0.000 A 
ATOM     12  H   UNL     1       0.375  13.513  18.440  0.00  0.00    +0.000 HD
BRANCH   7  13
ATOM     13  C   UNL     1       2.067   9.443  18.482  0.00  0.00    +0.000 C 
ATOM     14  C   UNL     1       1.963   8.346  17.709  0.00  0.00    +0.000 C 
BRANCH  14  15
ATOM     15  C   UNL     1       2.756   7.111  17.802  0.00  0.00    +0.000 A 
ATOM     16  C   UNL     1       2.092   5.973  18.288  0.00  0.00    +0.000 A 
ATOM     17  C   UNL     1       2.761   4.762  18.448  0.00  0.00    +0.000 A 
ATOM     18  C   UNL     1       4.105   4.665  18.110  0.00  0.00    +0.000 A 
ATOM     19  C   UNL     1       4.776   5.780  17.603  0.00  0.00    +0.000 A 
ATOM     20  C   UNL     1       4.104   6.998  17.445  0.00  0.00    +0.000 A 
ENDBRANCH  14  15
ENDBRANCH   7  13
ENDBRANCH   2   3
BRANCH   2  21
ATOM     21  C   UNL     1      -5.338  11.516  18.786  0.00  0.00    +0.000 A 
ATOM     22  C   UNL     1      -6.535  10.807  18.935  0.00  0.00    +0.000 A 
ATOM     23  C   UNL     1      -7.391  11.118  19.983  0.00  0.00    +0.000 A 
ATOM     24  C   UNL     1      -7.030  12.101  20.902  0.00  0.00    +0.000 A 
ATOM     25  C   UNL     1      -5.807  12.777  20.806  0.00  0.00    +0.000 A 
ATOM     26  C   UNL     1      -4.965  12.487  19.727  0.00  0.00    +0.000 A 
BRANCH  25  27
ATOM     27  N   UNL     1      -5.395  13.738  21.754  0.00  0.00    +0.000 N 
ATOM     28  C   UNL     1      -4.904  13.469  23.023  0.00  0.00    +0.000 C 
ATOM     29  O   UNL     1      -4.735  12.360  23.521  0.00  0.00    +0.000 OA
ATOM     30  H   UNL     1      -5.373  14.718  21.476  0.00  0.00    +0.000 HD
BRANCH  28  31
ATOM     31  C   UNL     1      -4.519  14.669  23.827  0.00  0.00    +0.000 A 
ATOM     32  C   UNL     1      -5.378  15.768  23.840  0.00  0.00    +0.000 A 
ATOM     33  C   UNL     1      -5.032  16.874  24.607  0.00  0.00    +0.000 A 
ATOM     34  C   UNL     1      -3.844  16.846  25.326  0.00  0.00    +0.000 A 
ATOM     35  C   UNL     1      -3.053  15.707  25.241  0.00  0.00    +0.000 A 
ATOM     36 CL   UNL     1      -1.570  15.613  26.098  0.00  0.00    +0.000 Cl
ATOM     37  N   UNL     1      -3.349  14.608  24.514  0.00  0.00    +0.000 NA
ENDBRANCH  28  31
ENDBRANCH  25  27
ENDBRANCH   2  21
TORSDOF 6
ENDMDL
MODEL 9
REMARK VINA RESULT:      -8.4      4.920      9.879
REMARK  Name = 
REMARK  6 active torsions:
REMARK  status: ('A' for Active; 'I' for Inactive)
REMARK    1  A    between atoms: C_2  and  C_3
REMARK    2  A    between atoms: C_2  and  C_19
REMARK    3  A    between atoms: C_7  and  N_8
REMARK    4  A    between atoms: C_9  and  C_11
REMARK    5  A    between atoms: C_23  and  C_24
REMARK    6  A    between atoms: C_25  and  C_26
REMARK                            x       y       z     vdW  Elec       q    Type
REMARK                         _______ _______ _______ _____ _____    ______ ____
ROOT
ATOM      1  O   UNL     1       1.677   8.885  21.561  0.00  0.00    +0.000 OA
ATOM      2  C   UNL     1       1.433   8.666  20.378  0.00  0.00    +0.000 C 
ENDROOT
BRANCH   2   3
ATOM      3  C   UNL     1       2.079   7.515  19.686  0.00  0.00    +0.000 A 
ATOM      4  C   UNL     1       2.735   7.740  18.470  0.00  0.00    +0.000 A 
ATOM      5  C   UNL     1       3.341   6.684  17.773  0.00  0.00    +0.000 A 
ATOM      6  C   UNL     1       3.276   5.380  18.307  0.00  0.00    +0.000 A 
ATOM      7  C   UNL     1       3.756   4.081  17.946  0.00  0.00    +0.000 A 
ATOM      8  N   UNL     1       3.373   3.163  18.848  0.00  0.00    +0.000 NA
ATOM      9  N   UNL     1       2.702   3.855  19.772  0.00  0.00    +0.000 N 
ATOM     10  C   UNL     1       2.606   5.191  19.510  0.00  0.00    +0.000 A 
ATOM     11  C   UNL     1       1.993   6.222  20.225  0.00  0.00    +0.000 A 
ATOM     12  H   UNL     1       2.339   3.352  20.573  0.00  0.00    +0.000 HD
BRANCH   7  13
ATOM     13  C   UNL     1       4.603   3.798  16.816  0.00  0.00    +0.000 C 
ATOM     14  C   UNL     1       5.027   4.723  15.935  0.00  0.00    +0.000 C 
BRANCH  14  15
ATOM     15  C   UNL     1       5.718   4.487  14.658  0.00  0.00    +0.000 A 
ATOM     16  C   UNL     1       6.948   5.141  14.480  0.00  0.00    +0.000 A 
ATOM     17  C   UNL     1       7.666   5.012  13.293  0.00  0.00    +0.000 A 
ATOM     18  C   UNL     1       7.172   4.214  12.270  0.00  0.00    +0.000 A 
ATOM     19  C   UNL     1       5.962   3.538  12.438  0.00  0.00    +0.000 A 
ATOM     20  C   UNL     1       5.239   3.670  13.630  0.00  0.00    +0.000 A 
ENDBRANCH  14  15
ENDBRANCH   7  13
ENDBRANCH   2   3
BRANCH   2  21
ATOM     21  C   UNL     1       0.510   9.568  19.645  0.00  0.00    +0.000 A 
ATOM     22  C   UNL     1      -0.739   9.100  19.221  0.00  0.00    +0.000 A 
ATOM     23  C   UNL     1      -1.567   9.930  18.478  0.00  0.00    +0.000 A 
ATOM     24  C   UNL     1      -1.167  11.235  18.199  0.00  0.00    +0.000 A 
ATOM     25  C   UNL     1       0.051  11.742  18.669  0.00  0.00    +0.000 A 
ATOM     26  C   UNL     1       0.899  10.890  19.385  0.00  0.00    +0.000 A 
BRANCH  25  27
ATOM     27  N   UNL     1       0.455  13.076  18.446  0.00  0.00    +0.000 N 
ATOM     28  C   UNL     1      -0.146  14.207  18.978  0.00  0.00    +0.000 C 
ATOM     29  O   UNL     1      -1.110  14.233  19.737  0.00  0.00    +0.000 OA
ATOM     30  H   UNL     1       1.308  13.244  17.913  0.00  0.00    +0.000 HD
BRANCH  28  31
ATOM     31  C   UNL     1       0.489  15.506  18.600  0.00  0.00    +0.000 A 
ATOM     32  C   UNL     1      -0.335  16.598  18.326  0.00  0.00    +0.000 A 
ATOM     33  C   UNL     1       0.255  17.813  17.999  0.00  0.00    +0.000 A 
ATOM     34  C   UNL     1       1.642  17.892  17.952  0.00  0.00    +0.000 A 
ATOM     35  C   UNL     1       2.374  16.746  18.233  0.00  0.00    +0.000 A 
ATOM     36 CL   UNL     1       4.088  16.776  18.183  0.00  0.00    +0.000 Cl
ATOM     37  N   UNL     1       1.845  15.547  18.559  0.00  0.00    +0.000 NA
ENDBRANCH  28  31
ENDBRANCH  25  27
ENDBRANCH   2  21
TORSDOF 6
ENDMDL
