MODEL 1
REMARK VINA RESULT:      -8.8      0.000      0.000
REMARK  Name = 
REMARK  4 active torsions:
REMARK  status: ('A' for Active; 'I' for Inactive)
REMARK    1  A    between atoms: C_1  and  N_2
REMARK    2  A    between atoms: N_5  and  C_6
REMARK    3  A    between atoms: C_13  and  N_14
REMARK    4  A    between atoms: C_15  and  C_17
REMARK                            x       y       z     vdW  Elec       q    Type
REMARK                         _______ _______ _______ _____ _____    ______ ____
ROOT
ATOM      1  C   UNL     1       7.044   5.817  19.557  0.00  0.00    +0.000 C 
ATOM      2  N   UNL     1       6.366   5.262  18.401  0.00  0.00    +0.000 N 
ATOM      3  C   UNL     1       6.840   5.553  17.134  0.00  0.00    +0.000 C 
ATOM      4  O   UNL     1       7.920   6.117  16.953  0.00  0.00    +0.000 OA
ATOM      5  N   UNL     1       6.030   5.155  16.075  0.00  0.00    +0.000 N 
ATOM      6  C   UNL     1       6.288   5.726  14.767  0.00  0.00    +0.000 C 
ATOM      7  C   UNL     1       4.942   4.287  16.196  0.00  0.00    +0.000 C 
ATOM      8  O   UNL     1       4.482   3.651  15.252  0.00  0.00    +0.000 OA
ATOM      9  C   UNL     1       4.276   4.351  17.548  0.00  0.00    +0.000 C 
ATOM     10  C   UNL     1       3.559   5.720  17.517  0.00  0.00    +0.000 C 
ATOM     11  C   UNL     1       2.719   5.936  18.738  0.00  0.00    +0.000 A 
ATOM     12  C   UNL     1       2.525   7.254  19.162  0.00  0.00    +0.000 A 
ATOM     13  C   UNL     1       1.767   7.547  20.285  0.00  0.00    +0.000 A 
ATOM     14  C   UNL     1       1.224   6.472  21.000  0.00  0.00    +0.000 A 
ATOM     15  C   UNL     1       1.414   5.153  20.565  0.00  0.00    +0.000 A 
ATOM     16  C   UNL     1       2.150   4.851  19.416  0.00  0.00    +0.000 A 
ATOM     17  N   UNL     1       2.325   3.568  18.933  0.00  0.00    +0.000 N 
ATOM     18  C   UNL     1       2.220   2.385  19.777  0.00  0.00    +0.000 C 
ATOM     19  C   UNL     1       2.615   1.235  18.857  0.00  0.00    +0.000 C 
ATOM     20  C   UNL     1       3.623   1.845  17.889  0.00  0.00    +0.000 C 
ATOM     21  C   UNL     1       3.167   3.304  17.735  0.00  0.00    +0.000 C 
ATOM     22  C   UNL     1       5.330   4.370  18.641  0.00  0.00    +0.000 C 
ATOM     23  O   UNL     1       5.286   3.693  19.666  0.00  0.00    +0.000 OA
ENDROOT
BRANCH  13  24
ATOM     24  N   UNL     1       1.522   8.872  20.704  0.00  0.00    +0.000 N 
ATOM     25  C   UNL     1       0.895   9.845  19.938  0.00  0.00    +0.000 C 
ATOM     26  O   UNL     1       0.427   9.697  18.813  0.00  0.00    +0.000 OA
ATOM     27  H   UNL     1       1.694   9.072  21.681  0.00  0.00    +0.000 HD
BRANCH  25  28
ATOM     28  C   UNL     1       0.729  11.187  20.551  0.00  0.00    +0.000 A 
ATOM     29  C   UNL     1       1.423  12.315  20.101  0.00  0.00    +0.000 A 
ATOM     30  C   UNL     1       1.170  13.558  20.688  0.00  0.00    +0.000 A 
ATOM     31  C   UNL     1       0.226  13.667  21.708  0.00  0.00    +0.000 A 
ATOM     32  F   UNL     1      -0.017  14.865  22.255  0.00  0.00    +0.000 F 
ATOM     33  C   UNL     1      -0.473  12.557  22.159  0.00  0.00    +0.000 A 
ATOM     34  C   UNL     1      -0.223  11.315  21.579  0.00  0.00    +0.000 A 
ENDBRANCH  25  28
ENDBRANCH  13  24
TORSDOF 2
ENDMDL
MODEL 2
REMARK VINA RESULT:      -8.8      1.575      1.872
REMARK  Name = 
REMARK  4 active torsions:
REMARK  status: ('A' for Active; 'I' for Inactive)
REMARK    1  A    between atoms: C_1  and  N_2
REMARK    2  A    between atoms: N_5  and  C_6
REMARK    3  A    between atoms: C_13  and  N_14
REMARK    4  A    between atoms: C_15  and  C_17
REMARK                            x       y       z     vdW  Elec       q    Type
REMARK                         _______ _______ _______ _____ _____    ______ ____
ROOT
ATOM      1  C   UNL     1       7.188   6.654  18.551  0.00  0.00    +0.000 C 
ATOM      2  N   UNL     1       6.367   5.664  17.879  0.00  0.00    +0.000 N 
ATOM      3  C   UNL     1       6.618   5.365  16.552  0.00  0.00    +0.000 C 
ATOM      4  O   UNL     1       7.623   5.771  15.967  0.00  0.00    +0.000 OA
ATOM      5  N   UNL     1       5.673   4.562  15.920  0.00  0.00    +0.000 N 
ATOM      6  C   UNL     1       5.688   4.500  14.471  0.00  0.00    +0.000 C 
ATOM      7  C   UNL     1       4.668   3.855  16.585  0.00  0.00    +0.000 C 
ATOM      8  O   UNL     1       4.098   2.880  16.100  0.00  0.00    +0.000 OA
ATOM      9  C   UNL     1       4.221   4.515  17.866  0.00  0.00    +0.000 C 
ATOM     10  C   UNL     1       3.435   5.748  17.366  0.00  0.00    +0.000 C 
ATOM     11  C   UNL     1       2.788   6.491  18.494  0.00  0.00    +0.000 A 
ATOM     12  C   UNL     1       2.592   7.865  18.331  0.00  0.00    +0.000 A 
ATOM     13  C   UNL     1       2.006   8.634  19.326  0.00  0.00    +0.000 A 
ATOM     14  C   UNL     1       1.644   7.989  20.515  0.00  0.00    +0.000 A 
ATOM     15  C   UNL     1       1.834   6.609  20.669  0.00  0.00    +0.000 A 
ATOM     16  C   UNL     1       2.395   5.822  19.659  0.00  0.00    +0.000 A 
ATOM     17  N   UNL     1       2.561   4.452  19.756  0.00  0.00    +0.000 N 
ATOM     18  C   UNL     1       2.656   3.758  21.033  0.00  0.00    +0.000 C 
ATOM     19  C   UNL     1       2.962   2.314  20.651  0.00  0.00    +0.000 C 
ATOM     20  C   UNL     1       3.769   2.421  19.362  0.00  0.00    +0.000 C 
ATOM     21  C   UNL     1       3.215   3.677  18.669  0.00  0.00    +0.000 C 
ATOM     22  C   UNL     1       5.433   4.987  18.650  0.00  0.00    +0.000 C 
ATOM     23  O   UNL     1       5.589   4.825  19.859  0.00  0.00    +0.000 OA
ENDROOT
BRANCH  13  24
ATOM     24  N   UNL     1       1.759  10.014  19.165  0.00  0.00    +0.000 N 
ATOM     25  C   UNL     1       0.499  10.594  19.108  0.00  0.00    +0.000 C 
ATOM     26  O   UNL     1      -0.575  10.014  19.227  0.00  0.00    +0.000 OA
ATOM     27  H   UNL     1       2.563  10.625  19.238  0.00  0.00    +0.000 HD
BRANCH  25  28
ATOM     28  C   UNL     1       0.440  12.067  18.931  0.00  0.00    +0.000 A 
ATOM     29  C   UNL     1      -0.744  12.799  19.072  0.00  0.00    +0.000 A 
ATOM     30  C   UNL     1      -0.711  14.191  18.952  0.00  0.00    +0.000 A 
ATOM     31  C   UNL     1       0.497  14.839  18.701  0.00  0.00    +0.000 A 
ATOM     32  F   UNL     1       0.519  16.174  18.599  0.00  0.00    +0.000 F 
ATOM     33  C   UNL     1       1.679  14.125  18.565  0.00  0.00    +0.000 A 
ATOM     34  C   UNL     1       1.652  12.737  18.681  0.00  0.00    +0.000 A 
ENDBRANCH  25  28
ENDBRANCH  13  24
TORSDOF 2
ENDMDL
MODEL 3
REMARK VINA RESULT:      -8.2      2.028      4.292
REMARK  Name = 
REMARK  4 active torsions:
REMARK  status: ('A' for Active; 'I' for Inactive)
REMARK    1  A    between atoms: C_1  and  N_2
REMARK    2  A    between atoms: N_5  and  C_6
REMARK    3  A    between atoms: C_13  and  N_14
REMARK    4  A    between atoms: C_15  and  C_17
REMARK                            x       y       z     vdW  Elec       q    Type
REMARK                         _______ _______ _______ _____ _____    ______ ____
ROOT
ATOM      1  C   UNL     1       0.442   3.335  18.050  0.00  0.00    +0.000 C 
ATOM      2  N   UNL     1       1.796   3.288  18.570  0.00  0.00    +0.000 N 
ATOM      3  C   UNL     1       2.083   2.457  19.639  0.00  0.00    +0.000 C 
ATOM      4  O   UNL     1       1.278   1.622  20.053  0.00  0.00    +0.000 OA
ATOM      5  N   UNL     1       3.343   2.612  20.208  0.00  0.00    +0.000 N 
ATOM      6  C   UNL     1       3.574   2.036  21.519  0.00  0.00    +0.000 C 
ATOM      7  C   UNL     1       4.387   3.337  19.629  0.00  0.00    +0.000 C 
ATOM      8  O   UNL     1       5.568   3.163  19.919  0.00  0.00    +0.000 OA
ATOM      9  C   UNL     1       3.913   4.476  18.761  0.00  0.00    +0.000 C 
ATOM     10  C   UNL     1       3.377   5.497  19.789  0.00  0.00    +0.000 C 
ATOM     11  C   UNL     1       2.962   6.780  19.137  0.00  0.00    +0.000 A 
ATOM     12  C   UNL     1       1.947   7.517  19.752  0.00  0.00    +0.000 A 
ATOM     13  C   UNL     1       1.495   8.712  19.215  0.00  0.00    +0.000 A 
ATOM     14  C   UNL     1       2.071   9.142  18.014  0.00  0.00    +0.000 A 
ATOM     15  C   UNL     1       3.096   8.405  17.405  0.00  0.00    +0.000 A 
ATOM     16  C   UNL     1       3.579   7.215  17.958  0.00  0.00    +0.000 A 
ATOM     17  N   UNL     1       4.615   6.480  17.411  0.00  0.00    +0.000 N 
ATOM     18  C   UNL     1       4.975   6.552  16.001  0.00  0.00    +0.000 C 
ATOM     19  C   UNL     1       6.060   5.493  15.839  0.00  0.00    +0.000 C 
ATOM     20  C   UNL     1       5.703   4.418  16.859  0.00  0.00    +0.000 C 
ATOM     21  C   UNL     1       5.048   5.192  18.014  0.00  0.00    +0.000 C 
ATOM     22  C   UNL     1       2.763   4.010  17.884  0.00  0.00    +0.000 C 
ATOM     23  O   UNL     1       2.656   4.255  16.684  0.00  0.00    +0.000 OA
ENDROOT
BRANCH  13  24
ATOM     24  N   UNL     1       0.502   9.494  19.844  0.00  0.00    +0.000 N 
ATOM     25  C   UNL     1       0.601  10.025  21.123  0.00  0.00    +0.000 C 
ATOM     26  O   UNL     1       1.564   9.935  21.876  0.00  0.00    +0.000 OA
ATOM     27  H   UNL     1      -0.268   9.796  19.260  0.00  0.00    +0.000 HD
BRANCH  25  28
ATOM     28  C   UNL     1      -0.552  10.820  21.615  0.00  0.00    +0.000 A 
ATOM     29  C   UNL     1      -0.990  10.775  22.944  0.00  0.00    +0.000 A 
ATOM     30  C   UNL     1      -2.044  11.599  23.349  0.00  0.00    +0.000 A 
ATOM     31  C   UNL     1      -2.644  12.463  22.434  0.00  0.00    +0.000 A 
ATOM     32  F   UNL     1      -3.644  13.256  22.836  0.00  0.00    +0.000 F 
ATOM     33  C   UNL     1      -2.214  12.522  21.116  0.00  0.00    +0.000 A 
ATOM     34  C   UNL     1      -1.166  11.701  20.706  0.00  0.00    +0.000 A 
ENDBRANCH  25  28
ENDBRANCH  13  24
TORSDOF 2
ENDMDL
MODEL 4
REMARK VINA RESULT:      -7.9      3.991      9.797
REMARK  Name = 
REMARK  4 active torsions:
REMARK  status: ('A' for Active; 'I' for Inactive)
REMARK    1  A    between atoms: C_1  and  N_2
REMARK    2  A    between atoms: N_5  and  C_6
REMARK    3  A    between atoms: C_13  and  N_14
REMARK    4  A    between atoms: C_15  and  C_17
REMARK                            x       y       z     vdW  Elec       q    Type
REMARK                         _______ _______ _______ _____ _____    ______ ____
ROOT
ATOM      1  C   UNL     1       2.506  14.860  17.651  0.00  0.00    +0.000 C 
ATOM      2  N   UNL     1       2.096  14.810  19.042  0.00  0.00    +0.000 N 
ATOM      3  C   UNL     1       2.957  15.276  20.019  0.00  0.00    +0.000 C 
ATOM      4  O   UNL     1       3.985  15.897  19.744  0.00  0.00    +0.000 OA
ATOM      5  N   UNL     1       2.584  15.014  21.334  0.00  0.00    +0.000 N 
ATOM      6  C   UNL     1       3.588  15.159  22.370  0.00  0.00    +0.000 C 
ATOM      7  C   UNL     1       1.320  14.561  21.720  0.00  0.00    +0.000 C 
ATOM      8  O   UNL     1       0.877  14.695  22.858  0.00  0.00    +0.000 OA
ATOM      9  C   UNL     1       0.635  13.731  20.663  0.00  0.00    +0.000 C 
ATOM     10  C   UNL     1       1.440  12.412  20.682  0.00  0.00    +0.000 C 
ATOM     11  C   UNL     1       0.841  11.381  19.776  0.00  0.00    +0.000 A 
ATOM     12  C   UNL     1       1.705  10.437  19.213  0.00  0.00    +0.000 A 
ATOM     13  C   UNL     1       1.239   9.451  18.358  0.00  0.00    +0.000 A 
ATOM     14  C   UNL     1      -0.128   9.450  18.053  0.00  0.00    +0.000 A 
ATOM     15  C   UNL     1      -0.992  10.392  18.628  0.00  0.00    +0.000 A 
ATOM     16  C   UNL     1      -0.534  11.371  19.515  0.00  0.00    +0.000 A 
ATOM     17  N   UNL     1      -1.360  12.291  20.134  0.00  0.00    +0.000 N 
ATOM     18  C   UNL     1      -2.652  12.685  19.588  0.00  0.00    +0.000 C 
ATOM     19  C   UNL     1      -3.128  13.795  20.519  0.00  0.00    +0.000 C 
ATOM     20  C   UNL     1      -1.848  14.474  20.992  0.00  0.00    +0.000 C 
ATOM     21  C   UNL     1      -0.807  13.344  21.026  0.00  0.00    +0.000 C 
ATOM     22  C   UNL     1       0.799  14.390  19.305  0.00  0.00    +0.000 C 
ATOM     23  O   UNL     1      -0.104  14.531  18.482  0.00  0.00    +0.000 OA
ENDROOT
BRANCH  13  24
ATOM     24  N   UNL     1       2.086   8.462  17.814  0.00  0.00    +0.000 N 
ATOM     25  C   UNL     1       2.548   7.347  18.500  0.00  0.00    +0.000 C 
ATOM     26  O   UNL     1       2.265   7.031  19.651  0.00  0.00    +0.000 OA
ATOM     27  H   UNL     1       2.246   8.508  16.816  0.00  0.00    +0.000 HD
BRANCH  25  28
ATOM     28  C   UNL     1       3.437   6.417  17.758  0.00  0.00    +0.000 A 
ATOM     29  C   UNL     1       3.270   5.028  17.785  0.00  0.00    +0.000 A 
ATOM     30  C   UNL     1       4.107   4.219  17.012  0.00  0.00    +0.000 A 
ATOM     31  C   UNL     1       5.094   4.799  16.216  0.00  0.00    +0.000 A 
ATOM     32  F   UNL     1       5.883   4.016  15.471  0.00  0.00    +0.000 F 
ATOM     33  C   UNL     1       5.266   6.175  16.176  0.00  0.00    +0.000 A 
ATOM     34  C   UNL     1       4.436   6.986  16.947  0.00  0.00    +0.000 A 
ENDBRANCH  25  28
ENDBRANCH  13  24
TORSDOF 2
ENDMDL
MODEL 5
REMARK VINA RESULT:      -7.6      5.554     11.956
REMARK  Name = 
REMARK  4 active torsions:
REMARK  status: ('A' for Active; 'I' for Inactive)
REMARK    1  A    between atoms: C_1  and  N_2
REMARK    2  A    between atoms: N_5  and  C_6
REMARK    3  A    between atoms: C_13  and  N_14
REMARK    4  A    between atoms: C_15  and  C_17
REMARK                            x       y       z     vdW  Elec       q    Type
REMARK                         _______ _______ _______ _____ _____    ______ ____
ROOT
ATOM      1  C   UNL     1      -6.859  11.151  20.828  0.00  0.00    +0.000 C 
ATOM      2  N   UNL     1      -6.585  12.549  20.557  0.00  0.00    +0.000 N 
ATOM      3  C   UNL     1      -7.046  13.113  19.380  0.00  0.00    +0.000 C 
ATOM      4  O   UNL     1      -7.832  12.525  18.636  0.00  0.00    +0.000 OA
ATOM      5  N   UNL     1      -6.580  14.393  19.095  0.00  0.00    +0.000 N 
ATOM      6  C   UNL     1      -6.737  14.891  17.742  0.00  0.00    +0.000 C 
ATOM      7  C   UNL     1      -5.913  15.211  20.009  0.00  0.00    +0.000 C 
ATOM      8  O   UNL     1      -5.847  16.433  19.895  0.00  0.00    +0.000 OA
ATOM      9  C   UNL     1      -5.128  14.439  21.041  0.00  0.00    +0.000 C 
ATOM     10  C   UNL     1      -3.941  13.878  20.225  0.00  0.00    +0.000 C 
ATOM     11  C   UNL     1      -2.953  13.167  21.097  0.00  0.00    +0.000 A 
ATOM     12  C   UNL     1      -2.212  12.132  20.520  0.00  0.00    +0.000 A 
ATOM     13  C   UNL     1      -1.280  11.415  21.254  0.00  0.00    +0.000 A 
ATOM     14  C   UNL     1      -1.126  11.745  22.606  0.00  0.00    +0.000 A 
ATOM     15  C   UNL     1      -1.864  12.791  23.178  0.00  0.00    +0.000 A 
ATOM     16  C   UNL     1      -2.783  13.539  22.436  0.00  0.00    +0.000 A 
ATOM     17  N   UNL     1      -3.499  14.603  22.952  0.00  0.00    +0.000 N 
ATOM     18  C   UNL     1      -3.772  14.755  24.375  0.00  0.00    +0.000 C 
ATOM     19  C   UNL     1      -4.686  15.973  24.451  0.00  0.00    +0.000 C 
ATOM     20  C   UNL     1      -5.476  15.944  23.148  0.00  0.00    +0.000 C 
ATOM     21  C   UNL     1      -4.505  15.326  22.128  0.00  0.00    +0.000 C 
ATOM     22  C   UNL     1      -5.962  13.280  21.559  0.00  0.00    +0.000 C 
ATOM     23  O   UNL     1      -6.073  12.974  22.745  0.00  0.00    +0.000 OA
ENDROOT
BRANCH  13  24
ATOM     24  N   UNL     1      -0.490  10.395  20.679  0.00  0.00    +0.000 N 
ATOM     25  C   UNL     1       0.576  10.608  19.816  0.00  0.00    +0.000 C 
ATOM     26  O   UNL     1       1.017  11.695  19.457  0.00  0.00    +0.000 OA
ATOM     27  H   UNL     1      -0.634   9.461  21.040  0.00  0.00    +0.000 HD
BRANCH  25  28
ATOM     28  C   UNL     1       1.286   9.406  19.311  0.00  0.00    +0.000 A 
ATOM     29  C   UNL     1       1.816   9.328  18.018  0.00  0.00    +0.000 A 
ATOM     30  C   UNL     1       2.526   8.188  17.633  0.00  0.00    +0.000 A 
ATOM     31  C   UNL     1       2.708   7.143  18.537  0.00  0.00    +0.000 A 
ATOM     32  F   UNL     1       3.400   6.060  18.161  0.00  0.00    +0.000 F 
ATOM     33  C   UNL     1       2.194   7.211  19.824  0.00  0.00    +0.000 A 
ATOM     34  C   UNL     1       1.483   8.344  20.213  0.00  0.00    +0.000 A 
ENDBRANCH  25  28
ENDBRANCH  13  24
TORSDOF 2
ENDMDL
MODEL 6
REMARK VINA RESULT:      -7.6      7.372     11.461
REMARK  Name = 
REMARK  4 active torsions:
REMARK  status: ('A' for Active; 'I' for Inactive)
REMARK    1  A    between atoms: C_1  and  N_2
REMARK    2  A    between atoms: N_5  and  C_6
REMARK    3  A    between atoms: C_13  and  N_14
REMARK    4  A    between atoms: C_15  and  C_17
REMARK                            x       y       z     vdW  Elec       q    Type
REMARK                         _______ _______ _______ _____ _____    ______ ____
ROOT
ATOM      1  C   UNL     1       7.128  13.851  22.126  0.00  0.00    +0.000 C 
ATOM      2  N   UNL     1       7.300  14.836  21.075  0.00  0.00    +0.000 N 
ATOM      3  C   UNL     1       6.249  15.679  20.758  0.00  0.00    +0.000 C 
ATOM      4  O   UNL     1       5.235  15.749  21.452  0.00  0.00    +0.000 OA
ATOM      5  N   UNL     1       6.416  16.456  19.616  0.00  0.00    +0.000 N 
ATOM      6  C   UNL     1       5.241  17.085  19.042  0.00  0.00    +0.000 C 
ATOM      7  C   UNL     1       7.629  16.623  18.945  0.00  0.00    +0.000 C 
ATOM      8  O   UNL     1       7.861  17.572  18.200  0.00  0.00    +0.000 OA
ATOM      9  C   UNL     1       8.551  15.436  19.074  0.00  0.00    +0.000 C 
ATOM     10  C   UNL     1       7.869  14.369  18.189  0.00  0.00    +0.000 C 
ATOM     11  C   UNL     1       8.698  13.126  18.076  0.00  0.00    +0.000 A 
ATOM     12  C   UNL     1       8.025  11.919  17.871  0.00  0.00    +0.000 A 
ATOM     13  C   UNL     1       8.711  10.719  17.760  0.00  0.00    +0.000 A 
ATOM     14  C   UNL     1      10.104  10.755  17.891  0.00  0.00    +0.000 A 
ATOM     15  C   UNL     1      10.776  11.969  18.087  0.00  0.00    +0.000 A 
ATOM     16  C   UNL     1      10.093  13.187  18.168  0.00  0.00    +0.000 A 
ATOM     17  N   UNL     1      10.722  14.410  18.319  0.00  0.00    +0.000 N 
ATOM     18  C   UNL     1      12.049  14.548  18.902  0.00  0.00    +0.000 C 
ATOM     19  C   UNL     1      12.265  16.055  18.985  0.00  0.00    +0.000 C 
ATOM     20  C   UNL     1      10.871  16.631  19.205  0.00  0.00    +0.000 C 
ATOM     21  C   UNL     1       9.938  15.666  18.455  0.00  0.00    +0.000 C 
ATOM     22  C   UNL     1       8.564  14.949  20.513  0.00  0.00    +0.000 C 
ATOM     23  O   UNL     1       9.579  14.650  21.140  0.00  0.00    +0.000 OA
ENDROOT
BRANCH  13  24
ATOM     24  N   UNL     1       8.054   9.495  17.509  0.00  0.00    +0.000 N 
ATOM     25  C   UNL     1       8.238   8.330  18.241  0.00  0.00    +0.000 C 
ATOM     26  O   UNL     1       8.956   8.195  19.226  0.00  0.00    +0.000 OA
ATOM     27  H   UNL     1       7.297   9.522  16.837  0.00  0.00    +0.000 HD
BRANCH  25  28
ATOM     28  C   UNL     1       7.458   7.138  17.822  0.00  0.00    +0.000 A 
ATOM     29  C   UNL     1       7.786   5.839  18.226  0.00  0.00    +0.000 A 
ATOM     30  C   UNL     1       6.968   4.773  17.843  0.00  0.00    +0.000 A 
ATOM     31  C   UNL     1       5.832   5.009  17.071  0.00  0.00    +0.000 A 
ATOM     32  F   UNL     1       5.050   3.981  16.720  0.00  0.00    +0.000 F 
ATOM     33  C   UNL     1       5.492   6.293  16.670  0.00  0.00    +0.000 A 
ATOM     34  C   UNL     1       6.305   7.360  17.047  0.00  0.00    +0.000 A 
ENDBRANCH  25  28
ENDBRANCH  13  24
TORSDOF 2
ENDMDL
MODEL 7
REMARK VINA RESULT:      -7.6      5.376     12.267
REMARK  Name = 
REMARK  4 active torsions:
REMARK  status: ('A' for Active; 'I' for Inactive)
REMARK    1  A    between atoms: C_1  and  N_2
REMARK    2  A    between atoms: N_5  and  C_6
REMARK    3  A    between atoms: C_13  and  N_14
REMARK    4  A    between atoms: C_15  and  C_17
REMARK                            x       y       z     vdW  Elec       q    Type
REMARK                         _______ _______ _______ _____ _____    ______ ____
ROOT
ATOM      1  C   UNL     1      -4.200  12.296  24.496  0.00  0.00    +0.000 C 
ATOM      2  N   UNL     1      -4.916  13.146  23.563  0.00  0.00    +0.000 N 
ATOM      3  C   UNL     1      -6.196  12.795  23.173  0.00  0.00    +0.000 C 
ATOM      4  O   UNL     1      -6.822  11.886  23.720  0.00  0.00    +0.000 OA
ATOM      5  N   UNL     1      -6.741  13.541  22.132  0.00  0.00    +0.000 N 
ATOM      6  C   UNL     1      -7.908  13.014  21.452  0.00  0.00    +0.000 C 
ATOM      7  C   UNL     1      -6.203  14.739  21.655  0.00  0.00    +0.000 C 
ATOM      8  O   UNL     1      -6.860  15.569  21.030  0.00  0.00    +0.000 OA
ATOM      9  C   UNL     1      -4.706  14.827  21.815  0.00  0.00    +0.000 C 
ATOM     10  C   UNL     1      -4.185  13.827  20.758  0.00  0.00    +0.000 C 
ATOM     11  C   UNL     1      -2.690  13.847  20.661  0.00  0.00    +0.000 A 
ATOM     12  C   UNL     1      -2.054  12.668  20.265  0.00  0.00    +0.000 A 
ATOM     13  C   UNL     1      -0.674  12.594  20.154  0.00  0.00    +0.000 A 
ATOM     14  C   UNL     1       0.065  13.737  20.482  0.00  0.00    +0.000 A 
ATOM     15  C   UNL     1      -0.578  14.921  20.869  0.00  0.00    +0.000 A 
ATOM     16  C   UNL     1      -1.971  15.012  20.953  0.00  0.00    +0.000 A 
ATOM     17  N   UNL     1      -2.644  16.172  21.291  0.00  0.00    +0.000 N 
ATOM     18  C   UNL     1      -2.031  17.243  22.064  0.00  0.00    +0.000 C 
ATOM     19  C   UNL     1      -3.169  18.230  22.300  0.00  0.00    +0.000 C 
ATOM     20  C   UNL     1      -4.422  17.364  22.368  0.00  0.00    +0.000 C 
ATOM     21  C   UNL     1      -4.126  16.193  21.418  0.00  0.00    +0.000 C 
ATOM     22  C   UNL     1      -4.307  14.338  23.196  0.00  0.00    +0.000 C 
ATOM     23  O   UNL     1      -3.502  14.905  23.933  0.00  0.00    +0.000 OA
ENDROOT
BRANCH  13  24
ATOM     24  N   UNL     1      -0.014  11.426  19.713  0.00  0.00    +0.000 N 
ATOM     25  C   UNL     1       0.667  10.540  20.537  0.00  0.00    +0.000 C 
ATOM     26  O   UNL     1       0.765  10.610  21.758  0.00  0.00    +0.000 OA
ATOM     27  H   UNL     1      -0.176  11.156  18.751  0.00  0.00    +0.000 HD
BRANCH  25  28
ATOM     28  C   UNL     1       1.302   9.366  19.888  0.00  0.00    +0.000 A 
ATOM     29  C   UNL     1       1.538   8.163  20.563  0.00  0.00    +0.000 A 
ATOM     30  C   UNL     1       2.083   7.080  19.870  0.00  0.00    +0.000 A 
ATOM     31  C   UNL     1       2.380   7.200  18.513  0.00  0.00    +0.000 A 
ATOM     32  F   UNL     1       2.891   6.152  17.856  0.00  0.00    +0.000 F 
ATOM     33  C   UNL     1       2.145   8.385  17.830  0.00  0.00    +0.000 A 
ATOM     34  C   UNL     1       1.603   9.469  18.517  0.00  0.00    +0.000 A 
ENDBRANCH  25  28
ENDBRANCH  13  24
TORSDOF 2
ENDMDL
MODEL 8
REMARK VINA RESULT:      -7.6      1.974      4.220
REMARK  Name = 
REMARK  4 active torsions:
REMARK  status: ('A' for Active; 'I' for Inactive)
REMARK    1  A    between atoms: C_1  and  N_2
REMARK    2  A    between atoms: N_5  and  C_6
REMARK    3  A    between atoms: C_13  and  N_14
REMARK    4  A    between atoms: C_15  and  C_17
REMARK                            x       y       z     vdW  Elec       q    Type
REMARK                         _______ _______ _______ _____ _____    ______ ____
ROOT
ATOM      1  C   UNL     1       0.339   3.376  18.197  0.00  0.00    +0.000 C 
ATOM      2  N   UNL     1       1.710   3.259  18.658  0.00  0.00    +0.000 N 
ATOM      3  C   UNL     1       1.991   2.453  19.747  0.00  0.00    +0.000 C 
ATOM      4  O   UNL     1       1.154   1.690  20.230  0.00  0.00    +0.000 OA
ATOM      5  N   UNL     1       3.284   2.545  20.253  0.00  0.00    +0.000 N 
ATOM      6  C   UNL     1       3.538   2.006  21.576  0.00  0.00    +0.000 C 
ATOM      7  C   UNL     1       4.345   3.176  19.600  0.00  0.00    +0.000 C 
ATOM      8  O   UNL     1       5.524   2.935  19.844  0.00  0.00    +0.000 OA
ATOM      9  C   UNL     1       3.906   4.310  18.706  0.00  0.00    +0.000 C 
ATOM     10  C   UNL     1       3.486   5.403  19.714  0.00  0.00    +0.000 C 
ATOM     11  C   UNL     1       3.124   6.685  19.028  0.00  0.00    +0.000 A 
ATOM     12  C   UNL     1       2.189   7.511  19.656  0.00  0.00    +0.000 A 
ATOM     13  C   UNL     1       1.790   8.712  19.090  0.00  0.00    +0.000 A 
ATOM     14  C   UNL     1       2.337   9.056  17.848  0.00  0.00    +0.000 A 
ATOM     15  C   UNL     1       3.283   8.229  17.226  0.00  0.00    +0.000 A 
ATOM     16  C   UNL     1       3.713   7.032  17.806  0.00  0.00    +0.000 A 
ATOM     17  N   UNL     1       4.673   6.210  17.245  0.00  0.00    +0.000 N 
ATOM     18  C   UNL     1       4.970   6.203  15.819  0.00  0.00    +0.000 C 
ATOM     19  C   UNL     1       5.975   5.068  15.653  0.00  0.00    +0.000 C 
ATOM     20  C   UNL     1       5.598   4.060  16.732  0.00  0.00    +0.000 C 
ATOM     21  C   UNL     1       5.049   4.920  17.882  0.00  0.00    +0.000 C 
ATOM     22  C   UNL     1       2.689   3.888  17.901  0.00  0.00    +0.000 C 
ATOM     23  O   UNL     1       2.542   4.093  16.698  0.00  0.00    +0.000 OA
ENDROOT
BRANCH  13  24
ATOM     24  N   UNL     1       0.880   9.582  19.729  0.00  0.00    +0.000 N 
ATOM     25  C   UNL     1      -0.202  10.192  19.111  0.00  0.00    +0.000 C 
ATOM     26  O   UNL     1      -0.555  10.043  17.946  0.00  0.00    +0.000 OA
ATOM     27  H   UNL     1       0.952   9.644  20.737  0.00  0.00    +0.000 HD
BRANCH  25  28
ATOM     28  C   UNL     1      -1.047  11.079  19.949  0.00  0.00    +0.000 A 
ATOM     29  C   UNL     1      -2.102  11.836  19.426  0.00  0.00    +0.000 A 
ATOM     30  C   UNL     1      -2.893  12.601  20.286  0.00  0.00    +0.000 A 
ATOM     31  C   UNL     1      -2.634  12.599  21.656  0.00  0.00    +0.000 A 
ATOM     32  F   UNL     1      -3.407  13.327  22.473  0.00  0.00    +0.000 F 
ATOM     33  C   UNL     1      -1.597  11.848  22.189  0.00  0.00    +0.000 A 
ATOM     34  C   UNL     1      -0.803  11.086  21.335  0.00  0.00    +0.000 A 
ENDBRANCH  25  28
ENDBRANCH  13  24
TORSDOF 2
ENDMDL
MODEL 9
REMARK VINA RESULT:      -7.5      7.702     11.875
REMARK  Name = 
REMARK  4 active torsions:
REMARK  status: ('A' for Active; 'I' for Inactive)
REMARK    1  A    between atoms: C_1  and  N_2
REMARK    2  A    between atoms: N_5  and  C_6
REMARK    3  A    between atoms: C_13  and  N_14
REMARK    4  A    between atoms: C_15  and  C_17
REMARK                            x       y       z     vdW  Elec       q    Type
REMARK                         _______ _______ _______ _____ _____    ______ ____
ROOT
ATOM      1  C   UNL     1       7.469  14.192  22.253  0.00  0.00    +0.000 C 
ATOM      2  N   UNL     1       7.491  15.193  21.204  0.00  0.00    +0.000 N 
ATOM      3  C   UNL     1       6.350  15.934  20.951  0.00  0.00    +0.000 C 
ATOM      4  O   UNL     1       5.371  15.904  21.698  0.00  0.00    +0.000 OA
ATOM      5  N   UNL     1       6.381  16.728  19.809  0.00  0.00    +0.000 N 
ATOM      6  C   UNL     1       5.124  17.246  19.303  0.00  0.00    +0.000 C 
ATOM      7  C   UNL     1       7.536  17.014  19.078  0.00  0.00    +0.000 C 
ATOM      8  O   UNL     1       7.637  17.984  18.331  0.00  0.00    +0.000 OA
ATOM      9  C   UNL     1       8.572  15.920  19.147  0.00  0.00    +0.000 C 
ATOM     10  C   UNL     1       7.948  14.796  18.289  0.00  0.00    +0.000 C 
ATOM     11  C   UNL     1       8.884  13.639  18.120  0.00  0.00    +0.000 A 
ATOM     12  C   UNL     1       8.319  12.374  17.938  0.00  0.00    +0.000 A 
ATOM     13  C   UNL     1       9.109  11.246  17.780  0.00  0.00    +0.000 A 
ATOM     14  C   UNL     1      10.498  11.413  17.839  0.00  0.00    +0.000 A 
ATOM     15  C   UNL     1      11.060  12.685  18.011  0.00  0.00    +0.000 A 
ATOM     16  C   UNL     1      10.271  13.832  18.140  0.00  0.00    +0.000 A 
ATOM     17  N   UNL     1      10.787  15.108  18.270  0.00  0.00    +0.000 N 
ATOM     18  C   UNL     1      12.125  15.369  18.784  0.00  0.00    +0.000 C 
ATOM     19  C   UNL     1      12.200  16.890  18.871  0.00  0.00    +0.000 C 
ATOM     20  C   UNL     1      10.771  17.329  19.168  0.00  0.00    +0.000 C 
ATOM     21  C   UNL     1       9.896  16.284  18.458  0.00  0.00    +0.000 C 
ATOM     22  C   UNL     1       8.707  15.429  20.578  0.00  0.00    +0.000 C 
ATOM     23  O   UNL     1       9.777  15.225  21.149  0.00  0.00    +0.000 OA
ENDROOT
BRANCH  13  24
ATOM     24  N   UNL     1       8.559   9.966  17.552  0.00  0.00    +0.000 N 
ATOM     25  C   UNL     1       8.541   8.932  18.478  0.00  0.00    +0.000 C 
ATOM     26  O   UNL     1       8.956   8.981  19.631  0.00  0.00    +0.000 OA
ATOM     27  H   UNL     1       8.020   9.855  16.702  0.00  0.00    +0.000 HD
BRANCH  25  28
ATOM     28  C   UNL     1       7.919   7.653  18.052  0.00  0.00    +0.000 A 
ATOM     29  C   UNL     1       7.188   7.526  16.865  0.00  0.00    +0.000 A 
ATOM     30  C   UNL     1       6.684   6.275  16.498  0.00  0.00    +0.000 A 
ATOM     31  C   UNL     1       6.918   5.166  17.309  0.00  0.00    +0.000 A 
ATOM     32  F   UNL     1       6.440   3.970  16.942  0.00  0.00    +0.000 F 
ATOM     33  C   UNL     1       7.646   5.277  18.484  0.00  0.00    +0.000 A 
ATOM     34  C   UNL     1       8.149   6.522  18.856  0.00  0.00    +0.000 A 
ENDBRANCH  25  28
ENDBRANCH  13  24
TORSDOF 2
ENDMDL
