MODEL 1
REMARK VINA RESULT:      -6.9      0.000      0.000
REMARK  Name = 
REMARK  5 active torsions:
REMARK  status: ('A' for Active; 'I' for Inactive)
REMARK    1  A    between atoms: C_1  and  O_2
REMARK    2  A    between atoms: O_2  and  C_3
REMARK    3  A    between atoms: C_6  and  O_7
REMARK    4  A    between atoms: O_7  and  C_8
REMARK    5  A    between atoms: C_11  and  C_12
REMARK                            x       y       z     vdW  Elec       q    Type
REMARK                         _______ _______ _______ _____ _____    ______ ____
ROOT
ATOM      1  C   UNL     1       4.044   4.314  17.544  0.00  0.00    +0.000 A 
ATOM      2  C   UNL     1       4.099   3.079  18.182  0.00  0.00    +0.000 A 
ATOM      3  C   UNL     1       3.520   2.921  19.438  0.00  0.00    +0.000 A 
ATOM      4  C   UNL     1       2.882   3.998  20.067  0.00  0.00    +0.000 A 
ATOM      5  C   UNL     1       2.821   5.266  19.454  0.00  0.00    +0.000 A 
ATOM      6  N   UNL     1       2.196   6.311  20.059  0.00  0.00    +0.000 NA
ATOM      7  C   UNL     1       2.150   7.528  19.462  0.00  0.00    +0.000 A 
ATOM      8  C   UNL     1       2.731   7.742  18.221  0.00  0.00    +0.000 A 
ATOM      9  C   UNL     1       3.368   6.684  17.585  0.00  0.00    +0.000 A 
ATOM     10  C   UNL     1       3.424   5.415  18.184  0.00  0.00    +0.000 A 
ENDROOT
BRANCH   7  11
ATOM     11  C   UNL     1       1.416   8.586  20.185  0.00  0.00    +0.000 A 
ATOM     12  C   UNL     1       0.961   9.751  19.551  0.00  0.00    +0.000 A 
ATOM     13  C   UNL     1       0.230  10.683  20.274  0.00  0.00    +0.000 A 
ATOM     14  N   UNL     1      -0.076  10.548  21.578  0.00  0.00    +0.000 NA
ATOM     15  C   UNL     1       0.386   9.439  22.189  0.00  0.00    +0.000 A 
ATOM     16  C   UNL     1       1.123   8.452  21.551  0.00  0.00    +0.000 A 
ENDBRANCH   7  11
BRANCH   1  18
ATOM     17  C   UNL     1       5.919   4.027  16.116  0.00  0.00    +0.000 C 
ATOM     18  O   UNL     1       4.607   4.545  16.311  0.00  0.00    +0.000 OA
ENDBRANCH   1  18
BRANCH   4  19
ATOM     19  O   UNL     1       2.286   3.897  21.306  0.00  0.00    +0.000 OA
ATOM     20  C   UNL     1       1.585   2.698  21.608  0.00  0.00    +0.000 C 
ENDBRANCH   4  19
TORSDOF 3
ENDMDL
MODEL 2
REMARK VINA RESULT:      -6.8      0.281      1.082
REMARK  Name = 
REMARK  5 active torsions:
REMARK  status: ('A' for Active; 'I' for Inactive)
REMARK    1  A    between atoms: C_1  and  O_2
REMARK    2  A    between atoms: O_2  and  C_3
REMARK    3  A    between atoms: C_6  and  O_7
REMARK    4  A    between atoms: O_7  and  C_8
REMARK    5  A    between atoms: C_11  and  C_12
REMARK                            x       y       z     vdW  Elec       q    Type
REMARK                         _______ _______ _______ _____ _____    ______ ____
ROOT
ATOM      1  C   UNL     1       4.022   4.575  17.659  0.00  0.00    +0.000 A 
ATOM      2  C   UNL     1       4.095   3.325  18.264  0.00  0.00    +0.000 A 
ATOM      3  C   UNL     1       3.497   3.119  19.504  0.00  0.00    +0.000 A 
ATOM      4  C   UNL     1       2.820   4.162  20.148  0.00  0.00    +0.000 A 
ATOM      5  C   UNL     1       2.738   5.444  19.569  0.00  0.00    +0.000 A 
ATOM      6  N   UNL     1       2.075   6.456  20.189  0.00  0.00    +0.000 NA
ATOM      7  C   UNL     1       2.009   7.687  19.623  0.00  0.00    +0.000 A 
ATOM      8  C   UNL     1       2.608   7.949  18.400  0.00  0.00    +0.000 A 
ATOM      9  C   UNL     1       3.284   6.925  17.749  0.00  0.00    +0.000 A 
ATOM     10  C   UNL     1       3.361   5.642  18.315  0.00  0.00    +0.000 A 
ENDROOT
BRANCH   7  11
ATOM     11  C   UNL     1       1.235   8.707  20.360  0.00  0.00    +0.000 A 
ATOM     12  C   UNL     1       1.014   8.626  21.743  0.00  0.00    +0.000 A 
ATOM     13  C   UNL     1       0.325   9.644  22.386  0.00  0.00    +0.000 A 
ATOM     14  N   UNL     1      -0.166  10.730  21.759  0.00  0.00    +0.000 NA
ATOM     15  C   UNL     1       0.028  10.791  20.426  0.00  0.00    +0.000 A 
ATOM     16  C   UNL     1       0.704   9.823  19.697  0.00  0.00    +0.000 A 
ENDBRANCH   7  11
BRANCH   1  18
ATOM     17  C   UNL     1       5.973   4.492  16.308  0.00  0.00    +0.000 C 
ATOM     18  O   UNL     1       4.602   4.853  16.444  0.00  0.00    +0.000 OA
ENDBRANCH   1  18
BRANCH   4  19
ATOM     19  O   UNL     1       2.203   4.012  21.373  0.00  0.00    +0.000 OA
ATOM     20  C   UNL     1       1.737   2.717  21.726  0.00  0.00    +0.000 C 
ENDBRANCH   4  19
TORSDOF 3
ENDMDL
MODEL 3
REMARK VINA RESULT:      -6.8      0.933      1.434
REMARK  Name = 
REMARK  5 active torsions:
REMARK  status: ('A' for Active; 'I' for Inactive)
REMARK    1  A    between atoms: C_1  and  O_2
REMARK    2  A    between atoms: O_2  and  C_3
REMARK    3  A    between atoms: C_6  and  O_7
REMARK    4  A    between atoms: O_7  and  C_8
REMARK    5  A    between atoms: C_11  and  C_12
REMARK                            x       y       z     vdW  Elec       q    Type
REMARK                         _______ _______ _______ _____ _____    ______ ____
ROOT
ATOM      1  C   UNL     1       4.775   4.330  17.960  0.00  0.00    +0.000 A 
ATOM      2  C   UNL     1       4.678   3.185  18.742  0.00  0.00    +0.000 A 
ATOM      3  C   UNL     1       3.782   3.147  19.807  0.00  0.00    +0.000 A 
ATOM      4  C   UNL     1       2.977   4.255  20.098  0.00  0.00    +0.000 A 
ATOM      5  C   UNL     1       3.060   5.437  19.333  0.00  0.00    +0.000 A 
ATOM      6  N   UNL     1       2.274   6.510  19.609  0.00  0.00    +0.000 NA
ATOM      7  C   UNL     1       2.369   7.644  18.869  0.00  0.00    +0.000 A 
ATOM      8  C   UNL     1       3.262   7.739  17.811  0.00  0.00    +0.000 A 
ATOM      9  C   UNL     1       4.068   6.649  17.512  0.00  0.00    +0.000 A 
ATOM     10  C   UNL     1       3.983   5.465  18.263  0.00  0.00    +0.000 A 
ENDROOT
BRANCH   7  11
ATOM     11  C   UNL     1       1.446   8.740  19.227  0.00  0.00    +0.000 A 
ATOM     12  C   UNL     1       1.007   8.951  20.542  0.00  0.00    +0.000 A 
ATOM     13  C   UNL     1       0.183  10.031  20.823  0.00  0.00    +0.000 A 
ATOM     14  N   UNL     1      -0.242  10.911  19.897  0.00  0.00    +0.000 NA
ATOM     15  C   UNL     1       0.162  10.689  18.630  0.00  0.00    +0.000 A 
ATOM     16  C   UNL     1       0.985   9.638  18.253  0.00  0.00    +0.000 A 
ENDBRANCH   7  11
BRANCH   1  18
ATOM     17  C   UNL     1       7.029   4.534  17.240  0.00  0.00    +0.000 C 
ATOM     18  O   UNL     1       5.648   4.443  16.904  0.00  0.00    +0.000 OA
ENDBRANCH   1  18
BRANCH   4  19
ATOM     19  O   UNL     1       2.067   4.271  21.135  0.00  0.00    +0.000 OA
ATOM     20  C   UNL     1       1.692   3.024  21.705  0.00  0.00    +0.000 C 
ENDBRANCH   4  19
TORSDOF 3
ENDMDL
MODEL 4
REMARK VINA RESULT:      -6.6      1.383      1.517
REMARK  Name = 
REMARK  5 active torsions:
REMARK  status: ('A' for Active; 'I' for Inactive)
REMARK    1  A    between atoms: C_1  and  O_2
REMARK    2  A    between atoms: O_2  and  C_3
REMARK    3  A    between atoms: C_6  and  O_7
REMARK    4  A    between atoms: O_7  and  C_8
REMARK    5  A    between atoms: C_11  and  C_12
REMARK                            x       y       z     vdW  Elec       q    Type
REMARK                         _______ _______ _______ _____ _____    ______ ____
ROOT
ATOM      1  C   UNL     1       4.693   3.983  16.881  0.00  0.00    +0.000 A 
ATOM      2  C   UNL     1       4.188   2.710  17.125  0.00  0.00    +0.000 A 
ATOM      3  C   UNL     1       3.003   2.559  17.839  0.00  0.00    +0.000 A 
ATOM      4  C   UNL     1       2.313   3.681  18.315  0.00  0.00    +0.000 A 
ATOM      5  C   UNL     1       2.803   4.984  18.097  0.00  0.00    +0.000 A 
ATOM      6  N   UNL     1       2.131   6.075  18.552  0.00  0.00    +0.000 NA
ATOM      7  C   UNL     1       2.618   7.323  18.341  0.00  0.00    +0.000 A 
ATOM      8  C   UNL     1       3.806   7.526  17.655  0.00  0.00    +0.000 A 
ATOM      9  C   UNL     1       4.503   6.423  17.177  0.00  0.00    +0.000 A 
ATOM     10  C   UNL     1       4.014   5.122  17.382  0.00  0.00    +0.000 A 
ENDROOT
BRANCH   7  11
ATOM     11  C   UNL     1       1.794   8.442  18.844  0.00  0.00    +0.000 A 
ATOM     12  C   UNL     1       1.321   9.461  18.004  0.00  0.00    +0.000 A 
ATOM     13  C   UNL     1       0.506  10.455  18.527  0.00  0.00    +0.000 A 
ATOM     14  N   UNL     1       0.132  10.516  19.819  0.00  0.00    +0.000 NA
ATOM     15  C   UNL     1       0.610   9.548  20.627  0.00  0.00    +0.000 A 
ATOM     16  C   UNL     1       1.430   8.515  20.196  0.00  0.00    +0.000 A 
ENDBRANCH   7  11
BRANCH   1  18
ATOM     17  C   UNL     1       5.832   3.936  14.798  0.00  0.00    +0.000 C 
ATOM     18  O   UNL     1       5.864   4.205  16.197  0.00  0.00    +0.000 OA
ENDBRANCH   1  18
BRANCH   4  19
ATOM     19  O   UNL     1       1.131   3.591  19.021  0.00  0.00    +0.000 OA
ATOM     20  C   UNL     1       1.162   2.936  20.282  0.00  0.00    +0.000 C 
ENDBRANCH   4  19
TORSDOF 3
ENDMDL
MODEL 5
REMARK VINA RESULT:      -6.6      1.388      1.862
REMARK  Name = 
REMARK  5 active torsions:
REMARK  status: ('A' for Active; 'I' for Inactive)
REMARK    1  A    between atoms: C_1  and  O_2
REMARK    2  A    between atoms: O_2  and  C_3
REMARK    3  A    between atoms: C_6  and  O_7
REMARK    4  A    between atoms: O_7  and  C_8
REMARK    5  A    between atoms: C_11  and  C_12
REMARK                            x       y       z     vdW  Elec       q    Type
REMARK                         _______ _______ _______ _____ _____    ______ ____
ROOT
ATOM      1  C   UNL     1       4.654   3.883  16.874  0.00  0.00    +0.000 A 
ATOM      2  C   UNL     1       4.120   2.624  17.127  0.00  0.00    +0.000 A 
ATOM      3  C   UNL     1       2.938   2.506  17.853  0.00  0.00    +0.000 A 
ATOM      4  C   UNL     1       2.281   3.647  18.330  0.00  0.00    +0.000 A 
ATOM      5  C   UNL     1       2.802   4.937  18.102  0.00  0.00    +0.000 A 
ATOM      6  N   UNL     1       2.161   6.045  18.558  0.00  0.00    +0.000 NA
ATOM      7  C   UNL     1       2.678   7.280  18.337  0.00  0.00    +0.000 A 
ATOM      8  C   UNL     1       3.865   7.450  17.640  0.00  0.00    +0.000 A 
ATOM      9  C   UNL     1       4.528   6.328  17.161  0.00  0.00    +0.000 A 
ATOM     10  C   UNL     1       4.010   5.040  17.375  0.00  0.00    +0.000 A 
ENDROOT
BRANCH   7  11
ATOM     11  C   UNL     1       1.887   8.421  18.843  0.00  0.00    +0.000 A 
ATOM     12  C   UNL     1       1.424   8.486  20.165  0.00  0.00    +0.000 A 
ATOM     13  C   UNL     1       0.732   9.610  20.594  0.00  0.00    +0.000 A 
ATOM     14  N   UNL     1       0.462  10.669  19.808  0.00  0.00    +0.000 NA
ATOM     15  C   UNL     1       0.887  10.591  18.531  0.00  0.00    +0.000 A 
ATOM     16  C   UNL     1       1.585   9.510  18.012  0.00  0.00    +0.000 A 
ENDBRANCH   7  11
BRANCH   1  18
ATOM     17  C   UNL     1       5.734   3.966  14.760  0.00  0.00    +0.000 C 
ATOM     18  O   UNL     1       5.825   4.072  16.178  0.00  0.00    +0.000 OA
ENDBRANCH   1  18
BRANCH   4  19
ATOM     19  O   UNL     1       1.104   3.590  19.047  0.00  0.00    +0.000 OA
ATOM     20  C   UNL     1       1.141   2.989  20.335  0.00  0.00    +0.000 C 
ENDBRANCH   4  19
TORSDOF 3
ENDMDL
MODEL 6
REMARK VINA RESULT:      -6.6      2.995      6.653
REMARK  Name = 
REMARK  5 active torsions:
REMARK  status: ('A' for Active; 'I' for Inactive)
REMARK    1  A    between atoms: C_1  and  O_2
REMARK    2  A    between atoms: O_2  and  C_3
REMARK    3  A    between atoms: C_6  and  O_7
REMARK    4  A    between atoms: O_7  and  C_8
REMARK    5  A    between atoms: C_11  and  C_12
REMARK                            x       y       z     vdW  Elec       q    Type
REMARK                         _______ _______ _______ _____ _____    ______ ____
ROOT
ATOM      1  C   UNL     1       2.464   6.100  19.460  0.00  0.00    +0.000 A 
ATOM      2  C   UNL     1       1.746   5.080  20.075  0.00  0.00    +0.000 A 
ATOM      3  C   UNL     1       1.810   3.785  19.569  0.00  0.00    +0.000 A 
ATOM      4  C   UNL     1       2.592   3.500  18.443  0.00  0.00    +0.000 A 
ATOM      5  C   UNL     1       3.322   4.513  17.788  0.00  0.00    +0.000 A 
ATOM      6  N   UNL     1       4.088   4.237  16.700  0.00  0.00    +0.000 NA
ATOM      7  C   UNL     1       4.779   5.223  16.075  0.00  0.00    +0.000 A 
ATOM      8  C   UNL     1       4.731   6.533  16.526  0.00  0.00    +0.000 A 
ATOM      9  C   UNL     1       3.958   6.831  17.642  0.00  0.00    +0.000 A 
ATOM     10  C   UNL     1       3.237   5.826  18.306  0.00  0.00    +0.000 A 
ENDROOT
BRANCH   7  11
ATOM     11  C   UNL     1       5.610   4.813  14.924  0.00  0.00    +0.000 A 
ATOM     12  C   UNL     1       5.142   3.930  13.938  0.00  0.00    +0.000 A 
ATOM     13  C   UNL     1       5.951   3.626  12.853  0.00  0.00    +0.000 A 
ATOM     14  N   UNL     1       7.189   4.127  12.676  0.00  0.00    +0.000 NA
ATOM     15  C   UNL     1       7.643   4.954  13.639  0.00  0.00    +0.000 A 
ATOM     16  C   UNL     1       6.908   5.317  14.759  0.00  0.00    +0.000 A 
ENDBRANCH   7  11
BRANCH   1  18
ATOM     17  C   UNL     1       1.390   7.735  20.806  0.00  0.00    +0.000 C 
ATOM     18  O   UNL     1       2.435   7.403  19.897  0.00  0.00    +0.000 OA
ENDBRANCH   1  18
BRANCH   4  19
ATOM     19  O   UNL     1       2.699   2.234  17.904  0.00  0.00    +0.000 OA
ATOM     20  C   UNL     1       3.616   1.332  18.508  0.00  0.00    +0.000 C 
ENDBRANCH   4  19
TORSDOF 3
ENDMDL
MODEL 7
REMARK VINA RESULT:      -6.5      4.261      5.365
REMARK  Name = 
REMARK  5 active torsions:
REMARK  status: ('A' for Active; 'I' for Inactive)
REMARK    1  A    between atoms: C_1  and  O_2
REMARK    2  A    between atoms: O_2  and  C_3
REMARK    3  A    between atoms: C_6  and  O_7
REMARK    4  A    between atoms: O_7  and  C_8
REMARK    5  A    between atoms: C_11  and  C_12
REMARK                            x       y       z     vdW  Elec       q    Type
REMARK                         _______ _______ _______ _____ _____    ______ ____
ROOT
ATOM      1  C   UNL     1       5.811   4.350  14.836  0.00  0.00    +0.000 A 
ATOM      2  C   UNL     1       7.130   4.768  14.974  0.00  0.00    +0.000 A 
ATOM      3  C   UNL     1       7.680   4.919  16.244  0.00  0.00    +0.000 A 
ATOM      4  C   UNL     1       6.915   4.651  17.386  0.00  0.00    +0.000 A 
ATOM      5  C   UNL     1       5.571   4.237  17.281  0.00  0.00    +0.000 A 
ATOM      6  N   UNL     1       4.829   3.969  18.389  0.00  0.00    +0.000 NA
ATOM      7  C   UNL     1       3.535   3.578  18.274  0.00  0.00    +0.000 A 
ATOM      8  C   UNL     1       2.933   3.436  17.032  0.00  0.00    +0.000 A 
ATOM      9  C   UNL     1       3.680   3.699  15.890  0.00  0.00    +0.000 A 
ATOM     10  C   UNL     1       5.022   4.101  15.986  0.00  0.00    +0.000 A 
ENDROOT
BRANCH   7  11
ATOM     11  C   UNL     1       2.827   3.277  19.535  0.00  0.00    +0.000 A 
ATOM     12  C   UNL     1       1.472   3.585  19.726  0.00  0.00    +0.000 A 
ATOM     13  C   UNL     1       0.850   3.228  20.914  0.00  0.00    +0.000 A 
ATOM     14  N   UNL     1       1.473   2.595  21.926  0.00  0.00    +0.000 NA
ATOM     15  C   UNL     1       2.782   2.324  21.747  0.00  0.00    +0.000 A 
ATOM     16  C   UNL     1       3.488   2.642  20.596  0.00  0.00    +0.000 A 
ENDBRANCH   7  11
BRANCH   1  18
ATOM     17  C   UNL     1       5.936   3.472  12.633  0.00  0.00    +0.000 C 
ATOM     18  O   UNL     1       5.199   4.195  13.614  0.00  0.00    +0.000 OA
ENDBRANCH   1  18
BRANCH   4  19
ATOM     19  O   UNL     1       7.410   4.775  18.667  0.00  0.00    +0.000 OA
ATOM     20  C   UNL     1       7.852   6.059  19.084  0.00  0.00    +0.000 C 
ENDBRANCH   4  19
TORSDOF 3
ENDMDL
MODEL 8
REMARK VINA RESULT:      -6.5      2.733      6.912
REMARK  Name = 
REMARK  5 active torsions:
REMARK  status: ('A' for Active; 'I' for Inactive)
REMARK    1  A    between atoms: C_1  and  O_2
REMARK    2  A    between atoms: O_2  and  C_3
REMARK    3  A    between atoms: C_6  and  O_7
REMARK    4  A    between atoms: O_7  and  C_8
REMARK    5  A    between atoms: C_11  and  C_12
REMARK                            x       y       z     vdW  Elec       q    Type
REMARK                         _______ _______ _______ _____ _____    ______ ____
ROOT
ATOM      1  C   UNL     1       2.635   4.527  20.116  0.00  0.00    +0.000 A 
ATOM      2  C   UNL     1       2.042   5.724  20.502  0.00  0.00    +0.000 A 
ATOM      3  C   UNL     1       2.199   6.861  19.715  0.00  0.00    +0.000 A 
ATOM      4  C   UNL     1       2.951   6.810  18.535  0.00  0.00    +0.000 A 
ATOM      5  C   UNL     1       3.577   5.616  18.122  0.00  0.00    +0.000 A 
ATOM      6  N   UNL     1       4.301   5.562  16.973  0.00  0.00    +0.000 NA
ATOM      7  C   UNL     1       4.904   4.408  16.591  0.00  0.00    +0.000 A 
ATOM      8  C   UNL     1       4.797   3.254  17.352  0.00  0.00    +0.000 A 
ATOM      9  C   UNL     1       4.054   3.290  18.526  0.00  0.00    +0.000 A 
ATOM     10  C   UNL     1       3.420   4.473  18.938  0.00  0.00    +0.000 A 
ENDROOT
BRANCH   7  11
ATOM     11  C   UNL     1       5.637   4.445  15.309  0.00  0.00    +0.000 A 
ATOM     12  C   UNL     1       6.835   5.158  15.150  0.00  0.00    +0.000 A 
ATOM     13  C   UNL     1       7.505   5.109  13.936  0.00  0.00    +0.000 A 
ATOM     14  N   UNL     1       7.071   4.413  12.868  0.00  0.00    +0.000 NA
ATOM     15  C   UNL     1       5.907   3.751  13.017  0.00  0.00    +0.000 A 
ATOM     16  C   UNL     1       5.167   3.740  14.191  0.00  0.00    +0.000 A 
ENDBRANCH   7  11
BRANCH   1  18
ATOM     17  C   UNL     1       1.213   2.907  21.111  0.00  0.00    +0.000 C 
ATOM     18  O   UNL     1       2.534   3.371  20.853  0.00  0.00    +0.000 OA
ENDBRANCH   1  18
BRANCH   4  19
ATOM     19  O   UNL     1       3.134   7.903  17.713  0.00  0.00    +0.000 OA
ATOM     20  C   UNL     1       2.164   8.940  17.767  0.00  0.00    +0.000 C 
ENDBRANCH   4  19
TORSDOF 3
ENDMDL
MODEL 9
REMARK VINA RESULT:      -6.5      4.218      5.403
REMARK  Name = 
REMARK  5 active torsions:
REMARK  status: ('A' for Active; 'I' for Inactive)
REMARK    1  A    between atoms: C_1  and  O_2
REMARK    2  A    between atoms: O_2  and  C_3
REMARK    3  A    between atoms: C_6  and  O_7
REMARK    4  A    between atoms: O_7  and  C_8
REMARK    5  A    between atoms: C_11  and  C_12
REMARK                            x       y       z     vdW  Elec       q    Type
REMARK                         _______ _______ _______ _____ _____    ______ ____
ROOT
ATOM      1  C   UNL     1       5.805   4.322  14.856  0.00  0.00    +0.000 A 
ATOM      2  C   UNL     1       7.119   4.755  14.997  0.00  0.00    +0.000 A 
ATOM      3  C   UNL     1       7.663   4.916  16.268  0.00  0.00    +0.000 A 
ATOM      4  C   UNL     1       6.898   4.644  17.409  0.00  0.00    +0.000 A 
ATOM      5  C   UNL     1       5.558   4.216  17.302  0.00  0.00    +0.000 A 
ATOM      6  N   UNL     1       4.816   3.944  18.407  0.00  0.00    +0.000 NA
ATOM      7  C   UNL     1       3.526   3.540  18.290  0.00  0.00    +0.000 A 
ATOM      8  C   UNL     1       2.931   3.386  17.047  0.00  0.00    +0.000 A 
ATOM      9  C   UNL     1       3.677   3.653  15.906  0.00  0.00    +0.000 A 
ATOM     10  C   UNL     1       5.015   4.069  16.005  0.00  0.00    +0.000 A 
ENDROOT
BRANCH   7  11
ATOM     11  C   UNL     1       2.817   3.236  19.550  0.00  0.00    +0.000 A 
ATOM     12  C   UNL     1       3.435   2.563  20.614  0.00  0.00    +0.000 A 
ATOM     13  C   UNL     1       2.732   2.355  21.793  0.00  0.00    +0.000 A 
ATOM     14  N   UNL     1       1.463   2.760  21.990  0.00  0.00    +0.000 NA
ATOM     15  C   UNL     1       0.866   3.384  20.955  0.00  0.00    +0.000 A 
ATOM     16  C   UNL     1       1.486   3.636  19.740  0.00  0.00    +0.000 A 
ENDBRANCH   7  11
BRANCH   1  18
ATOM     17  C   UNL     1       5.993   3.548  12.619  0.00  0.00    +0.000 C 
ATOM     18  O   UNL     1       5.199   4.156  13.634  0.00  0.00    +0.000 OA
ENDBRANCH   1  18
BRANCH   4  19
ATOM     19  O   UNL     1       7.388   4.778  18.691  0.00  0.00    +0.000 OA
ATOM     20  C   UNL     1       7.913   6.043  19.070  0.00  0.00    +0.000 C 
ENDBRANCH   4  19
TORSDOF 3
ENDMDL
