MODEL 1
REMARK VINA RESULT:      -6.4      0.000      0.000
REMARK  Name = 
REMARK  4 active torsions:
REMARK  status: ('A' for Active; 'I' for Inactive)
REMARK    1  A    between atoms: O_1  and  C_2
REMARK    2  A    between atoms: C_5  and  C_6
REMARK    3  A    between atoms: C_6  and  C_7
REMARK    4  A    between atoms: C_13  and  O_14
REMARK                            x       y       z     vdW  Elec       q    Type
REMARK                         _______ _______ _______ _____ _____    ______ ____
ROOT
ATOM      1  C   UNL     1       6.855   4.491  17.393  0.00  0.00    +0.000 A 
ATOM      2  C   UNL     1       5.891   4.254  16.421  0.00  0.00    +0.000 A 
ATOM      3  C   UNL     1       4.552   4.535  16.695  0.00  0.00    +0.000 A 
ATOM      4  C   UNL     1       4.163   5.022  17.955  0.00  0.00    +0.000 A 
ATOM      5  C   UNL     1       5.151   5.302  18.910  0.00  0.00    +0.000 A 
ATOM      6  C   UNL     1       6.491   5.037  18.623  0.00  0.00    +0.000 A 
ENDROOT
BRANCH   1   7
ATOM      7  O   UNL     1       8.167   4.187  17.152  0.00  0.00    +0.000 OA
ATOM      8  H   UNL     1       8.214   3.569  16.407  0.00  0.00    +0.000 HD
ENDBRANCH   1   7
BRANCH   6   9
ATOM      9  O   UNL     1       7.457   5.288  19.557  0.00  0.00    +0.000 OA
ATOM     10  H   UNL     1       7.231   6.100  20.035  0.00  0.00    +0.000 HD
ENDBRANCH   6   9
BRANCH   4  11
ATOM     11  C   UNL     1       2.692   5.169  18.291  0.00  0.00    +0.000 C 
BRANCH  11  12
ATOM     12  C   UNL     1       2.177   3.935  19.036  0.00  0.00    +0.000 C 
ATOM     13  C   UNL     1       1.188   4.257  20.176  0.00  0.00    +0.000 C 
ATOM     14  N   UNL     1       0.409   3.038  20.172  0.00  0.00    +0.000 N 
ATOM     15  C   UNL     1       0.511   2.525  18.914  0.00  0.00    +0.000 C 
ATOM     16  N   UNL     1       1.429   3.001  18.124  0.00  0.00    +0.000 NA
ATOM     17  H   UNL     1      -0.506   3.058  20.608  0.00  0.00    +0.000 HD
ENDBRANCH  11  12
ENDBRANCH   4  11
TORSDOF 4
ENDMDL
MODEL 2
REMARK VINA RESULT:      -6.4      3.689      5.698
REMARK  Name = 
REMARK  4 active torsions:
REMARK  status: ('A' for Active; 'I' for Inactive)
REMARK    1  A    between atoms: O_1  and  C_2
REMARK    2  A    between atoms: C_5  and  C_6
REMARK    3  A    between atoms: C_6  and  C_7
REMARK    4  A    between atoms: C_13  and  O_14
REMARK                            x       y       z     vdW  Elec       q    Type
REMARK                         _______ _______ _______ _____ _____    ______ ____
ROOT
ATOM      1  C   UNL     1       1.507   3.605  19.951  0.00  0.00    +0.000 A 
ATOM      2  C   UNL     1       2.017   4.876  20.188  0.00  0.00    +0.000 A 
ATOM      3  C   UNL     1       2.874   5.460  19.253  0.00  0.00    +0.000 A 
ATOM      4  C   UNL     1       3.253   4.764  18.092  0.00  0.00    +0.000 A 
ATOM      5  C   UNL     1       2.693   3.502  17.843  0.00  0.00    +0.000 A 
ATOM      6  C   UNL     1       1.822   2.931  18.772  0.00  0.00    +0.000 A 
ENDROOT
BRANCH   1   7
ATOM      7  O   UNL     1       0.696   3.005  20.874  0.00  0.00    +0.000 OA
ATOM      8  H   UNL     1       0.052   2.449  20.411  0.00  0.00    +0.000 HD
ENDBRANCH   1   7
BRANCH   6   9
ATOM      9  O   UNL     1       1.288   1.693  18.545  0.00  0.00    +0.000 OA
ATOM     10  H   UNL     1       0.752   1.724  17.738  0.00  0.00    +0.000 HD
ENDBRANCH   6   9
BRANCH   4  11
ATOM     11  C   UNL     1       4.307   5.343  17.169  0.00  0.00    +0.000 C 
BRANCH  11  12
ATOM     12  C   UNL     1       5.584   4.501  17.203  0.00  0.00    +0.000 C 
ATOM     13  C   UNL     1       6.542   4.765  16.023  0.00  0.00    +0.000 C 
ATOM     14  N   UNL     1       7.802   4.443  16.656  0.00  0.00    +0.000 N 
ATOM     15  C   UNL     1       7.618   4.640  17.992  0.00  0.00    +0.000 C 
ATOM     16  N   UNL     1       6.402   4.771  18.436  0.00  0.00    +0.000 NA
ATOM     17  H   UNL     1       8.651   4.798  16.232  0.00  0.00    +0.000 HD
ENDBRANCH  11  12
ENDBRANCH   4  11
TORSDOF 4
ENDMDL
MODEL 3
REMARK VINA RESULT:      -6.4      1.231      1.735
REMARK  Name = 
REMARK  4 active torsions:
REMARK  status: ('A' for Active; 'I' for Inactive)
REMARK    1  A    between atoms: O_1  and  C_2
REMARK    2  A    between atoms: C_5  and  C_6
REMARK    3  A    between atoms: C_6  and  C_7
REMARK    4  A    between atoms: C_13  and  O_14
REMARK                            x       y       z     vdW  Elec       q    Type
REMARK                         _______ _______ _______ _____ _____    ______ ____
ROOT
ATOM      1  C   UNL     1       6.730   5.124  16.079  0.00  0.00    +0.000 A 
ATOM      2  C   UNL     1       5.474   5.657  15.815  0.00  0.00    +0.000 A 
ATOM      3  C   UNL     1       4.483   5.607  16.797  0.00  0.00    +0.000 A 
ATOM      4  C   UNL     1       4.730   4.993  18.037  0.00  0.00    +0.000 A 
ATOM      5  C   UNL     1       6.016   4.502  18.308  0.00  0.00    +0.000 A 
ATOM      6  C   UNL     1       7.009   4.573  17.328  0.00  0.00    +0.000 A 
ENDROOT
BRANCH   1   7
ATOM      7  O   UNL     1       7.700   5.134  15.115  0.00  0.00    +0.000 OA
ATOM      8  H   UNL     1       7.516   5.854  14.493  0.00  0.00    +0.000 HD
ENDBRANCH   1   7
BRANCH   6   9
ATOM      9  O   UNL     1       8.258   4.078  17.579  0.00  0.00    +0.000 OA
ATOM     10  H   UNL     1       8.348   3.215  17.147  0.00  0.00    +0.000 HD
ENDBRANCH   6   9
BRANCH   4  11
ATOM     11  C   UNL     1       3.600   4.802  19.028  0.00  0.00    +0.000 C 
BRANCH  11  12
ATOM     12  C   UNL     1       2.520   3.881  18.456  0.00  0.00    +0.000 C 
ATOM     13  C   UNL     1       2.969   2.415  18.288  0.00  0.00    +0.000 C 
ATOM     14  N   UNL     1       1.692   1.752  18.440  0.00  0.00    +0.000 N 
ATOM     15  C   UNL     1       0.915   2.588  19.184  0.00  0.00    +0.000 C 
ATOM     16  N   UNL     1       1.308   3.818  19.345  0.00  0.00    +0.000 NA
ATOM     17  H   UNL     1       1.694   0.766  18.673  0.00  0.00    +0.000 HD
ENDBRANCH  11  12
ENDBRANCH   4  11
TORSDOF 4
ENDMDL
MODEL 4
REMARK VINA RESULT:      -6.3      1.762      2.004
REMARK  Name = 
REMARK  4 active torsions:
REMARK  status: ('A' for Active; 'I' for Inactive)
REMARK    1  A    between atoms: O_1  and  C_2
REMARK    2  A    between atoms: C_5  and  C_6
REMARK    3  A    between atoms: C_6  and  C_7
REMARK    4  A    between atoms: C_13  and  O_14
REMARK                            x       y       z     vdW  Elec       q    Type
REMARK                         _______ _______ _______ _____ _____    ______ ____
ROOT
ATOM      1  C   UNL     1       6.759   5.160  15.415  0.00  0.00    +0.000 A 
ATOM      2  C   UNL     1       5.797   4.173  15.238  0.00  0.00    +0.000 A 
ATOM      3  C   UNL     1       4.829   3.970  16.223  0.00  0.00    +0.000 A 
ATOM      4  C   UNL     1       4.837   4.729  17.407  0.00  0.00    +0.000 A 
ATOM      5  C   UNL     1       5.784   5.753  17.551  0.00  0.00    +0.000 A 
ATOM      6  C   UNL     1       6.738   5.965  16.553  0.00  0.00    +0.000 A 
ENDROOT
BRANCH   1   7
ATOM      7  O   UNL     1       7.735   5.347  14.476  0.00  0.00    +0.000 OA
ATOM      8  H   UNL     1       8.197   4.508  14.331  0.00  0.00    +0.000 HD
ENDBRANCH   1   7
BRANCH   6   9
ATOM      9  O   UNL     1       7.677   6.949  16.696  0.00  0.00    +0.000 OA
ATOM     10  H   UNL     1       7.891   7.309  15.823  0.00  0.00    +0.000 HD
ENDBRANCH   6   9
BRANCH   4  11
ATOM     11  C   UNL     1       3.883   4.388  18.534  0.00  0.00    +0.000 C 
BRANCH  11  12
ATOM     12  C   UNL     1       2.868   3.332  18.090  0.00  0.00    +0.000 C 
ATOM     13  C   UNL     1       3.062   1.955  18.758  0.00  0.00    +0.000 C 
ATOM     14  N   UNL     1       1.696   1.478  18.730  0.00  0.00    +0.000 N 
ATOM     15  C   UNL     1       0.906   2.587  18.701  0.00  0.00    +0.000 C 
ATOM     16  N   UNL     1       1.458   3.734  18.427  0.00  0.00    +0.000 NA
ATOM     17  H   UNL     1       1.443   0.726  19.360  0.00  0.00    +0.000 HD
ENDBRANCH  11  12
ENDBRANCH   4  11
TORSDOF 4
ENDMDL
MODEL 5
REMARK VINA RESULT:      -6.2      1.257      1.382
REMARK  Name = 
REMARK  4 active torsions:
REMARK  status: ('A' for Active; 'I' for Inactive)
REMARK    1  A    between atoms: O_1  and  C_2
REMARK    2  A    between atoms: C_5  and  C_6
REMARK    3  A    between atoms: C_6  and  C_7
REMARK    4  A    between atoms: C_13  and  O_14
REMARK                            x       y       z     vdW  Elec       q    Type
REMARK                         _______ _______ _______ _____ _____    ______ ____
ROOT
ATOM      1  C   UNL     1       6.333   5.759  16.724  0.00  0.00    +0.000 A 
ATOM      2  C   UNL     1       5.243   6.578  16.454  0.00  0.00    +0.000 A 
ATOM      3  C   UNL     1       4.189   6.645  17.366  0.00  0.00    +0.000 A 
ATOM      4  C   UNL     1       4.202   5.868  18.538  0.00  0.00    +0.000 A 
ATOM      5  C   UNL     1       5.329   5.083  18.821  0.00  0.00    +0.000 A 
ATOM      6  C   UNL     1       6.389   5.035  17.914  0.00  0.00    +0.000 A 
ENDROOT
BRANCH   1   7
ATOM      7  O   UNL     1       7.357   5.655  15.823  0.00  0.00    +0.000 OA
ATOM      8  H   UNL     1       7.985   4.987  16.137  0.00  0.00    +0.000 HD
ENDBRANCH   1   7
BRANCH   6   9
ATOM      9  O   UNL     1       7.482   4.257  18.174  0.00  0.00    +0.000 OA
ATOM     10  H   UNL     1       8.077   4.737  18.769  0.00  0.00    +0.000 HD
ENDBRANCH   6   9
BRANCH   4  11
ATOM     11  C   UNL     1       2.981   5.829  19.436  0.00  0.00    +0.000 C 
BRANCH  11  12
ATOM     12  C   UNL     1       2.501   4.390  19.643  0.00  0.00    +0.000 C 
ATOM     13  C   UNL     1       1.334   4.255  20.642  0.00  0.00    +0.000 C 
ATOM     14  N   UNL     1       0.697   3.069  20.112  0.00  0.00    +0.000 N 
ATOM     15  C   UNL     1       1.029   3.016  18.792  0.00  0.00    +0.000 C 
ATOM     16  N   UNL     1       1.993   3.780  18.365  0.00  0.00    +0.000 NA
ATOM     17  H   UNL     1      -0.266   2.891  20.371  0.00  0.00    +0.000 HD
ENDBRANCH  11  12
ENDBRANCH   4  11
TORSDOF 4
ENDMDL
MODEL 6
REMARK VINA RESULT:      -6.1      1.724      2.208
REMARK  Name = 
REMARK  4 active torsions:
REMARK  status: ('A' for Active; 'I' for Inactive)
REMARK    1  A    between atoms: O_1  and  C_2
REMARK    2  A    between atoms: C_5  and  C_6
REMARK    3  A    between atoms: C_6  and  C_7
REMARK    4  A    between atoms: C_13  and  O_14
REMARK                            x       y       z     vdW  Elec       q    Type
REMARK                         _______ _______ _______ _____ _____    ______ ____
ROOT
ATOM      1  C   UNL     1       6.616   5.365  16.016  0.00  0.00    +0.000 A 
ATOM      2  C   UNL     1       5.398   6.023  15.890  0.00  0.00    +0.000 A 
ATOM      3  C   UNL     1       4.480   5.981  16.941  0.00  0.00    +0.000 A 
ATOM      4  C   UNL     1       4.760   5.253  18.110  0.00  0.00    +0.000 A 
ATOM      5  C   UNL     1       6.011   4.634  18.244  0.00  0.00    +0.000 A 
ATOM      6  C   UNL     1       6.933   4.696  17.197  0.00  0.00    +0.000 A 
ENDROOT
BRANCH   1   7
ATOM      7  O   UNL     1       7.511   5.368  14.982  0.00  0.00    +0.000 OA
ATOM      8  H   UNL     1       7.025   5.449  14.147  0.00  0.00    +0.000 HD
ENDBRANCH   1   7
BRANCH   6   9
ATOM      9  O   UNL     1       8.147   4.079  17.312  0.00  0.00    +0.000 OA
ATOM     10  H   UNL     1       8.076   3.362  17.960  0.00  0.00    +0.000 HD
ENDBRANCH   6   9
BRANCH   4  11
ATOM     11  C   UNL     1       3.691   5.082  19.172  0.00  0.00    +0.000 C 
BRANCH  11  12
ATOM     12  C   UNL     1       3.003   3.722  19.042  0.00  0.00    +0.000 C 
ATOM     13  C   UNL     1       2.495   3.408  17.619  0.00  0.00    +0.000 C 
ATOM     14  N   UNL     1       2.583   1.964  17.644  0.00  0.00    +0.000 N 
ATOM     15  C   UNL     1       3.537   1.656  18.566  0.00  0.00    +0.000 C 
ATOM     16  N   UNL     1       3.933   2.589  19.382  0.00  0.00    +0.000 NA
ATOM     17  H   UNL     1       2.598   1.474  16.757  0.00  0.00    +0.000 HD
ENDBRANCH  11  12
ENDBRANCH   4  11
TORSDOF 4
ENDMDL
MODEL 7
REMARK VINA RESULT:      -6.1      1.525      1.971
REMARK  Name = 
REMARK  4 active torsions:
REMARK  status: ('A' for Active; 'I' for Inactive)
REMARK    1  A    between atoms: O_1  and  C_2
REMARK    2  A    between atoms: C_5  and  C_6
REMARK    3  A    between atoms: C_6  and  C_7
REMARK    4  A    between atoms: C_13  and  O_14
REMARK                            x       y       z     vdW  Elec       q    Type
REMARK                         _______ _______ _______ _____ _____    ______ ____
ROOT
ATOM      1  C   UNL     1       6.595   6.097  16.915  0.00  0.00    +0.000 A 
ATOM      2  C   UNL     1       5.341   6.694  16.935  0.00  0.00    +0.000 A 
ATOM      3  C   UNL     1       4.215   5.924  17.233  0.00  0.00    +0.000 A 
ATOM      4  C   UNL     1       4.332   4.545  17.479  0.00  0.00    +0.000 A 
ATOM      5  C   UNL     1       5.609   3.965  17.504  0.00  0.00    +0.000 A 
ATOM      6  C   UNL     1       6.733   4.745  17.224  0.00  0.00    +0.000 A 
ENDROOT
BRANCH   1   7
ATOM      7  O   UNL     1       7.703   6.830  16.591  0.00  0.00    +0.000 OA
ATOM      8  H   UNL     1       7.442   7.541  15.986  0.00  0.00    +0.000 HD
ENDBRANCH   1   7
BRANCH   6   9
ATOM      9  O   UNL     1       7.979   4.181  17.227  0.00  0.00    +0.000 OA
ATOM     10  H   UNL     1       8.631   4.860  17.457  0.00  0.00    +0.000 HD
ENDBRANCH   6   9
BRANCH   4  11
ATOM     11  C   UNL     1       3.088   3.693  17.640  0.00  0.00    +0.000 C 
BRANCH  11  12
ATOM     12  C   UNL     1       2.239   4.184  18.814  0.00  0.00    +0.000 C 
ATOM     13  C   UNL     1       0.976   3.337  19.073  0.00  0.00    +0.000 C 
ATOM     14  N   UNL     1       0.829   3.551  20.497  0.00  0.00    +0.000 N 
ATOM     15  C   UNL     1       2.072   3.850  20.968  0.00  0.00    +0.000 C 
ATOM     16  N   UNL     1       3.002   4.153  20.110  0.00  0.00    +0.000 NA
ATOM     17  H   UNL     1       0.264   2.893  21.020  0.00  0.00    +0.000 HD
ENDBRANCH  11  12
ENDBRANCH   4  11
TORSDOF 4
ENDMDL
MODEL 8
REMARK VINA RESULT:      -6.1      3.556      5.505
REMARK  Name = 
REMARK  4 active torsions:
REMARK  status: ('A' for Active; 'I' for Inactive)
REMARK    1  A    between atoms: O_1  and  C_2
REMARK    2  A    between atoms: C_5  and  C_6
REMARK    3  A    between atoms: C_6  and  C_7
REMARK    4  A    between atoms: C_13  and  O_14
REMARK                            x       y       z     vdW  Elec       q    Type
REMARK                         _______ _______ _______ _____ _____    ______ ____
ROOT
ATOM      1  C   UNL     1       1.313   3.401  19.661  0.00  0.00    +0.000 A 
ATOM      2  C   UNL     1       1.314   3.273  18.277  0.00  0.00    +0.000 A 
ATOM      3  C   UNL     1       2.338   3.858  17.531  0.00  0.00    +0.000 A 
ATOM      4  C   UNL     1       3.350   4.604  18.161  0.00  0.00    +0.000 A 
ATOM      5  C   UNL     1       3.364   4.685  19.561  0.00  0.00    +0.000 A 
ATOM      6  C   UNL     1       2.347   4.081  20.303  0.00  0.00    +0.000 A 
ENDROOT
BRANCH   1   7
ATOM      7  O   UNL     1       0.297   2.864  20.403  0.00  0.00    +0.000 OA
ATOM      8  H   UNL     1       0.170   3.404  21.197  0.00  0.00    +0.000 HD
ENDBRANCH   1   7
BRANCH   6   9
ATOM      9  O   UNL     1       2.344   4.173  21.667  0.00  0.00    +0.000 OA
ATOM     10  H   UNL     1       3.028   4.801  21.942  0.00  0.00    +0.000 HD
ENDBRANCH   6   9
BRANCH   4  11
ATOM     11  C   UNL     1       4.362   5.366  17.328  0.00  0.00    +0.000 C 
BRANCH  11  12
ATOM     12  C   UNL     1       5.630   4.538  17.115  0.00  0.00    +0.000 C 
ATOM     13  C   UNL     1       6.493   5.004  15.924  0.00  0.00    +0.000 C 
ATOM     14  N   UNL     1       7.797   4.585  16.391  0.00  0.00    +0.000 N 
ATOM     15  C   UNL     1       7.721   4.551  17.751  0.00  0.00    +0.000 C 
ATOM     16  N   UNL     1       6.546   4.598  18.307  0.00  0.00    +0.000 NA
ATOM     17  H   UNL     1       8.612   5.011  15.968  0.00  0.00    +0.000 HD
ENDBRANCH  11  12
ENDBRANCH   4  11
TORSDOF 4
ENDMDL
MODEL 9
REMARK VINA RESULT:      -6.1      1.857      2.473
REMARK  Name = 
REMARK  4 active torsions:
REMARK  status: ('A' for Active; 'I' for Inactive)
REMARK    1  A    between atoms: O_1  and  C_2
REMARK    2  A    between atoms: C_5  and  C_6
REMARK    3  A    between atoms: C_6  and  C_7
REMARK    4  A    between atoms: C_13  and  O_14
REMARK                            x       y       z     vdW  Elec       q    Type
REMARK                         _______ _______ _______ _____ _____    ______ ____
ROOT
ATOM      1  C   UNL     1       6.755   6.418  17.210  0.00  0.00    +0.000 A 
ATOM      2  C   UNL     1       6.992   5.882  18.470  0.00  0.00    +0.000 A 
ATOM      3  C   UNL     1       5.949   5.268  19.165  0.00  0.00    +0.000 A 
ATOM      4  C   UNL     1       4.654   5.216  18.620  0.00  0.00    +0.000 A 
ATOM      5  C   UNL     1       4.440   5.718  17.327  0.00  0.00    +0.000 A 
ATOM      6  C   UNL     1       5.493   6.313  16.629  0.00  0.00    +0.000 A 
ENDROOT
BRANCH   1   7
ATOM      7  O   UNL     1       7.759   7.054  16.532  0.00  0.00    +0.000 OA
ATOM      8  H   UNL     1       8.207   7.665  17.136  0.00  0.00    +0.000 HD
ENDBRANCH   1   7
BRANCH   6   9
ATOM      9  O   UNL     1       5.287   6.822  15.377  0.00  0.00    +0.000 OA
ATOM     10  H   UNL     1       5.103   6.092  14.767  0.00  0.00    +0.000 HD
ENDBRANCH   6   9
BRANCH   4  11
ATOM     11  C   UNL     1       3.500   4.693  19.452  0.00  0.00    +0.000 C 
BRANCH  11  12
ATOM     12  C   UNL     1       2.625   3.740  18.634  0.00  0.00    +0.000 C 
ATOM     13  C   UNL     1       3.110   2.276  18.646  0.00  0.00    +0.000 C 
ATOM     14  N   UNL     1       1.844   1.600  18.463  0.00  0.00    +0.000 N 
ATOM     15  C   UNL     1       0.888   2.448  18.934  0.00  0.00    +0.000 C 
ATOM     16  N   UNL     1       1.215   3.688  19.156  0.00  0.00    +0.000 NA
ATOM     17  H   UNL     1       1.786   0.622  18.721  0.00  0.00    +0.000 HD
ENDBRANCH  11  12
ENDBRANCH   4  11
TORSDOF 4
ENDMDL
