MODEL 1
REMARK VINA RESULT:      -7.8      0.000      0.000
REMARK  Name = 
REMARK  0 active torsions:
REMARK  status: ('A' for Active; 'I' for Inactive)
REMARK                            x       y       z     vdW  Elec       q    Type
REMARK                         _______ _______ _______ _____ _____    ______ ____
ROOT
ATOM      1  O   UNL     1       7.772   5.200  18.753  0.00  0.00    +0.000 OA
ATOM      2  C   UNL     1       6.685   4.810  18.345  0.00  0.00    +0.000 A 
ATOM      3  C   UNL     1       5.603   4.491  19.308  0.00  0.00    +0.000 A 
ATOM      4  C   UNL     1       4.428   4.064  18.826  0.00  0.00    +0.000 A 
ATOM      5  C   UNL     1       3.261   3.710  19.658  0.00  0.00    +0.000 A 
ATOM      6  C   UNL     1       3.108   3.728  21.041  0.00  0.00    +0.000 A 
ATOM      7  C   UNL     1       1.881   3.338  21.595  0.00  0.00    +0.000 A 
ATOM      8  C   UNL     1       0.820   2.933  20.774  0.00  0.00    +0.000 A 
ATOM      9  C   UNL     1       0.972   2.914  19.390  0.00  0.00    +0.000 A 
ATOM     10  C   UNL     1       2.190   3.303  18.855  0.00  0.00    +0.000 A 
ATOM     11  S   UNL     1       2.610   3.358  17.136  0.00  0.00    +0.000 S 
ATOM     12  N   UNL     1       4.159   3.903  17.467  0.00  0.00    +0.000 N 
ATOM     13  C   UNL     1       5.137   4.185  16.484  0.00  0.00    +0.000 A 
ATOM     14  C   UNL     1       4.910   4.037  15.105  0.00  0.00    +0.000 A 
ATOM     15  C   UNL     1       5.907   4.328  14.171  0.00  0.00    +0.000 A 
ATOM     16  C   UNL     1       7.154   4.777  14.597  0.00  0.00    +0.000 A 
ATOM     17  C   UNL     1       7.409   4.933  15.959  0.00  0.00    +0.000 A 
ATOM     18  C   UNL     1       6.407   4.640  16.895  0.00  0.00    +0.000 A 
ENDROOT
TORSDOF 0
ENDMDL
MODEL 2
REMARK VINA RESULT:      -7.3      1.497      1.543
REMARK  Name = 
REMARK  0 active torsions:
REMARK  status: ('A' for Active; 'I' for Inactive)
REMARK                            x       y       z     vdW  Elec       q    Type
REMARK                         _______ _______ _______ _____ _____    ______ ____
ROOT
ATOM      1  O   UNL     1       6.692   7.530  17.072  0.00  0.00    +0.000 OA
ATOM      2  C   UNL     1       5.939   6.567  17.007  0.00  0.00    +0.000 A 
ATOM      3  C   UNL     1       4.890   6.376  18.039  0.00  0.00    +0.000 A 
ATOM      4  C   UNL     1       4.085   5.310  17.937  0.00  0.00    +0.000 A 
ATOM      5  C   UNL     1       3.000   4.988  18.885  0.00  0.00    +0.000 A 
ATOM      6  C   UNL     1       2.581   5.660  20.029  0.00  0.00    +0.000 A 
ATOM      7  C   UNL     1       1.510   5.140  20.769  0.00  0.00    +0.000 A 
ATOM      8  C   UNL     1       0.866   3.962  20.369  0.00  0.00    +0.000 A 
ATOM      9  C   UNL     1       1.284   3.288  19.224  0.00  0.00    +0.000 A 
ATOM     10  C   UNL     1       2.345   3.813  18.501  0.00  0.00    +0.000 A 
ATOM     11  S   UNL     1       3.044   3.132  17.024  0.00  0.00    +0.000 S 
ATOM     12  N   UNL     1       4.172   4.366  16.915  0.00  0.00    +0.000 N 
ATOM     13  C   UNL     1       5.144   4.475  15.892  0.00  0.00    +0.000 A 
ATOM     14  C   UNL     1       5.268   3.548  14.844  0.00  0.00    +0.000 A 
ATOM     15  C   UNL     1       6.245   3.698  13.855  0.00  0.00    +0.000 A 
ATOM     16  C   UNL     1       7.118   4.781  13.894  0.00  0.00    +0.000 A 
ATOM     17  C   UNL     1       7.019   5.717  14.923  0.00  0.00    +0.000 A 
ATOM     18  C   UNL     1       6.039   5.565  15.914  0.00  0.00    +0.000 A 
ENDROOT
TORSDOF 0
ENDMDL
MODEL 3
REMARK VINA RESULT:      -7.0      4.599      6.354
REMARK  Name = 
REMARK  0 active torsions:
REMARK  status: ('A' for Active; 'I' for Inactive)
REMARK                            x       y       z     vdW  Elec       q    Type
REMARK                         _______ _______ _______ _____ _____    ______ ____
ROOT
ATOM      1  O   UNL     1       2.123   9.935  17.364  0.00  0.00    +0.000 OA
ATOM      2  C   UNL     1       2.085   8.990  18.142  0.00  0.00    +0.000 A 
ATOM      3  C   UNL     1       2.672   7.685  17.752  0.00  0.00    +0.000 A 
ATOM      4  C   UNL     1       2.609   6.673  18.627  0.00  0.00    +0.000 A 
ATOM      5  C   UNL     1       3.148   5.320  18.382  0.00  0.00    +0.000 A 
ATOM      6  C   UNL     1       3.800   4.804  17.266  0.00  0.00    +0.000 A 
ATOM      7  C   UNL     1       4.219   3.467  17.281  0.00  0.00    +0.000 A 
ATOM      8  C   UNL     1       3.987   2.655  18.399  0.00  0.00    +0.000 A 
ATOM      9  C   UNL     1       3.333   3.169  19.517  0.00  0.00    +0.000 A 
ATOM     10  C   UNL     1       2.924   4.494  19.488  0.00  0.00    +0.000 A 
ATOM     11  S   UNL     1       2.082   5.358  20.784  0.00  0.00    +0.000 S 
ATOM     12  N   UNL     1       2.024   6.772  19.889  0.00  0.00    +0.000 N 
ATOM     13  C   UNL     1       1.442   7.982  20.337  0.00  0.00    +0.000 A 
ATOM     14  C   UNL     1       0.842   8.127  21.600  0.00  0.00    +0.000 A 
ATOM     15  C   UNL     1       0.279   9.343  21.999  0.00  0.00    +0.000 A 
ATOM     16  C   UNL     1       0.307  10.440  21.143  0.00  0.00    +0.000 A 
ATOM     17  C   UNL     1       0.895  10.326  19.884  0.00  0.00    +0.000 A 
ATOM     18  C   UNL     1       1.458   9.105  19.485  0.00  0.00    +0.000 A 
ENDROOT
TORSDOF 0
ENDMDL
MODEL 4
REMARK VINA RESULT:      -7.0      3.800      4.079
REMARK  Name = 
REMARK  0 active torsions:
REMARK  status: ('A' for Active; 'I' for Inactive)
REMARK                            x       y       z     vdW  Elec       q    Type
REMARK                         _______ _______ _______ _____ _____    ______ ____
ROOT
ATOM      1  O   UNL     1       4.101   3.246  19.663  0.00  0.00    +0.000 OA
ATOM      2  C   UNL     1       3.854   4.353  19.201  0.00  0.00    +0.000 A 
ATOM      3  C   UNL     1       2.944   5.273  19.925  0.00  0.00    +0.000 A 
ATOM      4  C   UNL     1       2.695   6.475  19.388  0.00  0.00    +0.000 A 
ATOM      5  C   UNL     1       1.814   7.494  19.991  0.00  0.00    +0.000 A 
ATOM      6  C   UNL     1       1.080   7.458  21.172  0.00  0.00    +0.000 A 
ATOM      7  C   UNL     1       0.308   8.573  21.528  0.00  0.00    +0.000 A 
ATOM      8  C   UNL     1       0.270   9.710  20.710  0.00  0.00    +0.000 A 
ATOM      9  C   UNL     1       1.004   9.747  19.526  0.00  0.00    +0.000 A 
ATOM     10  C   UNL     1       1.763   8.638  19.187  0.00  0.00    +0.000 A 
ATOM     11  S   UNL     1       2.769   8.460  17.741  0.00  0.00    +0.000 S 
ATOM     12  N   UNL     1       3.244   6.916  18.185  0.00  0.00    +0.000 N 
ATOM     13  C   UNL     1       4.121   6.099  17.432  0.00  0.00    +0.000 A 
ATOM     14  C   UNL     1       4.696   6.503  16.215  0.00  0.00    +0.000 A 
ATOM     15  C   UNL     1       5.558   5.661  15.507  0.00  0.00    +0.000 A 
ATOM     16  C   UNL     1       5.864   4.396  16.002  0.00  0.00    +0.000 A 
ATOM     17  C   UNL     1       5.308   3.969  17.207  0.00  0.00    +0.000 A 
ATOM     18  C   UNL     1       4.443   4.815  17.916  0.00  0.00    +0.000 A 
ENDROOT
TORSDOF 0
ENDMDL
MODEL 5
REMARK VINA RESULT:      -6.8      4.509      5.911
REMARK  Name = 
REMARK  0 active torsions:
REMARK  status: ('A' for Active; 'I' for Inactive)
REMARK                            x       y       z     vdW  Elec       q    Type
REMARK                         _______ _______ _______ _____ _____    ______ ____
ROOT
ATOM      1  O   UNL     1       4.323   4.927  16.992  0.00  0.00    +0.000 OA
ATOM      2  C   UNL     1       3.648   5.409  17.893  0.00  0.00    +0.000 A 
ATOM      3  C   UNL     1       3.199   6.820  17.809  0.00  0.00    +0.000 A 
ATOM      4  C   UNL     1       2.464   7.314  18.815  0.00  0.00    +0.000 A 
ATOM      5  C   UNL     1       1.946   8.696  18.872  0.00  0.00    +0.000 A 
ATOM      6  C   UNL     1       2.085   9.743  17.966  0.00  0.00    +0.000 A 
ATOM      7  C   UNL     1       1.489  10.978  18.257  0.00  0.00    +0.000 A 
ATOM      8  C   UNL     1       0.762  11.162  19.441  0.00  0.00    +0.000 A 
ATOM      9  C   UNL     1       0.623  10.115  20.348  0.00  0.00    +0.000 A 
ATOM     10  C   UNL     1       1.218   8.899  20.048  0.00  0.00    +0.000 A 
ATOM     11  S   UNL     1       1.174   7.438  21.046  0.00  0.00    +0.000 S 
ATOM     12  N   UNL     1       2.094   6.579  19.940  0.00  0.00    +0.000 N 
ATOM     13  C   UNL     1       2.482   5.228  20.097  0.00  0.00    +0.000 A 
ATOM     14  C   UNL     1       2.132   4.449  21.214  0.00  0.00    +0.000 A 
ATOM     15  C   UNL     1       2.539   3.117  21.325  0.00  0.00    +0.000 A 
ATOM     16  C   UNL     1       3.304   2.534  20.319  0.00  0.00    +0.000 A 
ATOM     17  C   UNL     1       3.667   3.281  19.200  0.00  0.00    +0.000 A 
ATOM     18  C   UNL     1       3.259   4.618  19.090  0.00  0.00    +0.000 A 
ENDROOT
TORSDOF 0
ENDMDL
MODEL 6
REMARK VINA RESULT:      -6.7      4.428      4.936
REMARK  Name = 
REMARK  0 active torsions:
REMARK  status: ('A' for Active; 'I' for Inactive)
REMARK                            x       y       z     vdW  Elec       q    Type
REMARK                         _______ _______ _______ _____ _____    ______ ____
ROOT
ATOM      1  O   UNL     1       2.962   3.708  20.546  0.00  0.00    +0.000 OA
ATOM      2  C   UNL     1       2.885   4.788  19.973  0.00  0.00    +0.000 A 
ATOM      3  C   UNL     1       2.049   5.873  20.543  0.00  0.00    +0.000 A 
ATOM      4  C   UNL     1       1.988   7.039  19.887  0.00  0.00    +0.000 A 
ATOM      5  C   UNL     1       1.201   8.207  20.330  0.00  0.00    +0.000 A 
ATOM      6  C   UNL     1       0.390   8.369  21.449  0.00  0.00    +0.000 A 
ATOM      7  C   UNL     1      -0.260   9.595  21.647  0.00  0.00    +0.000 A 
ATOM      8  C   UNL     1      -0.101  10.646  20.734  0.00  0.00    +0.000 A 
ATOM      9  C   UNL     1       0.709  10.486  19.613  0.00  0.00    +0.000 A 
ATOM     10  C   UNL     1       1.346   9.268  19.430  0.00  0.00    +0.000 A 
ATOM     11  S   UNL     1       2.417   8.838  18.087  0.00  0.00    +0.000 S 
ATOM     12  N   UNL     1       2.666   7.298  18.697  0.00  0.00    +0.000 N 
ATOM     13  C   UNL     1       3.484   6.317  18.087  0.00  0.00    +0.000 A 
ATOM     14  C   UNL     1       4.186   6.533  16.889  0.00  0.00    +0.000 A 
ATOM     15  C   UNL     1       4.982   5.533  16.325  0.00  0.00    +0.000 A 
ATOM     16  C   UNL     1       5.095   4.294  16.949  0.00  0.00    +0.000 A 
ATOM     17  C   UNL     1       4.411   4.050  18.139  0.00  0.00    +0.000 A 
ATOM     18  C   UNL     1       3.611   5.054  18.703  0.00  0.00    +0.000 A 
ENDROOT
TORSDOF 0
ENDMDL
MODEL 7
REMARK VINA RESULT:      -6.7      4.398      5.263
REMARK  Name = 
REMARK  0 active torsions:
REMARK  status: ('A' for Active; 'I' for Inactive)
REMARK                            x       y       z     vdW  Elec       q    Type
REMARK                         _______ _______ _______ _____ _____    ______ ____
ROOT
ATOM      1  O   UNL     1       2.095   3.622  21.650  0.00  0.00    +0.000 OA
ATOM      2  C   UNL     1       2.220   4.501  20.806  0.00  0.00    +0.000 A 
ATOM      3  C   UNL     1       1.694   5.862  21.070  0.00  0.00    +0.000 A 
ATOM      4  C   UNL     1       1.847   6.797  20.122  0.00  0.00    +0.000 A 
ATOM      5  C   UNL     1       1.378   8.192  20.241  0.00  0.00    +0.000 A 
ATOM      6  C   UNL     1       0.711   8.828  21.283  0.00  0.00    +0.000 A 
ATOM      7  C   UNL     1       0.369  10.180  21.148  0.00  0.00    +0.000 A 
ATOM      8  C   UNL     1       0.691  10.888  19.982  0.00  0.00    +0.000 A 
ATOM      9  C   UNL     1       1.358  10.253  18.938  0.00  0.00    +0.000 A 
ATOM     10  C   UNL     1       1.690   8.915  19.085  0.00  0.00    +0.000 A 
ATOM     11  S   UNL     1       2.533   7.909  17.897  0.00  0.00    +0.000 S 
ATOM     12  N   UNL     1       2.475   6.568  18.899  0.00  0.00    +0.000 N 
ATOM     13  C   UNL     1       3.004   5.297  18.570  0.00  0.00    +0.000 A 
ATOM     14  C   UNL     1       3.644   5.021  17.350  0.00  0.00    +0.000 A 
ATOM     15  C   UNL     1       4.151   3.749  17.069  0.00  0.00    +0.000 A 
ATOM     16  C   UNL     1       4.029   2.726  18.005  0.00  0.00    +0.000 A 
ATOM     17  C   UNL     1       3.399   2.970  19.224  0.00  0.00    +0.000 A 
ATOM     18  C   UNL     1       2.890   4.247  19.503  0.00  0.00    +0.000 A 
ENDROOT
TORSDOF 0
ENDMDL
MODEL 8
REMARK VINA RESULT:      -6.6      2.622      5.438
REMARK  Name = 
REMARK  0 active torsions:
REMARK  status: ('A' for Active; 'I' for Inactive)
REMARK                            x       y       z     vdW  Elec       q    Type
REMARK                         _______ _______ _______ _____ _____    ______ ____
ROOT
ATOM      1  O   UNL     1       4.663   1.783  20.666  0.00  0.00    +0.000 OA
ATOM      2  C   UNL     1       4.466   2.747  19.936  0.00  0.00    +0.000 A 
ATOM      3  C   UNL     1       5.558   3.718  19.680  0.00  0.00    +0.000 A 
ATOM      4  C   UNL     1       5.305   4.760  18.877  0.00  0.00    +0.000 A 
ATOM      5  C   UNL     1       6.288   5.806  18.530  0.00  0.00    +0.000 A 
ATOM      6  C   UNL     1       7.614   5.955  18.923  0.00  0.00    +0.000 A 
ATOM      7  C   UNL     1       8.346   7.052  18.448  0.00  0.00    +0.000 A 
ATOM      8  C   UNL     1       7.756   7.990  17.590  0.00  0.00    +0.000 A 
ATOM      9  C   UNL     1       6.428   7.843  17.196  0.00  0.00    +0.000 A 
ATOM     10  C   UNL     1       5.716   6.753  17.674  0.00  0.00    +0.000 A 
ATOM     11  S   UNL     1       4.028   6.364  17.310  0.00  0.00    +0.000 S 
ATOM     12  N   UNL     1       4.074   4.988  18.264  0.00  0.00    +0.000 N 
ATOM     13  C   UNL     1       2.981   4.109  18.457  0.00  0.00    +0.000 A 
ATOM     14  C   UNL     1       1.724   4.300  17.859  0.00  0.00    +0.000 A 
ATOM     15  C   UNL     1       0.674   3.404  18.080  0.00  0.00    +0.000 A 
ATOM     16  C   UNL     1       0.861   2.296  18.902  0.00  0.00    +0.000 A 
ATOM     17  C   UNL     1       2.098   2.082  19.508  0.00  0.00    +0.000 A 
ATOM     18  C   UNL     1       3.149   2.982  19.287  0.00  0.00    +0.000 A 
ENDROOT
TORSDOF 0
ENDMDL
MODEL 9
REMARK VINA RESULT:      -6.5      2.071      5.879
REMARK  Name = 
REMARK  0 active torsions:
REMARK  status: ('A' for Active; 'I' for Inactive)
REMARK                            x       y       z     vdW  Elec       q    Type
REMARK                         _______ _______ _______ _____ _____    ______ ____
ROOT
ATOM      1  O   UNL     1       2.171   7.282  19.812  0.00  0.00    +0.000 OA
ATOM      2  C   UNL     1       2.641   6.277  19.294  0.00  0.00    +0.000 A 
ATOM      3  C   UNL     1       3.540   6.398  18.121  0.00  0.00    +0.000 A 
ATOM      4  C   UNL     1       4.034   5.277  17.579  0.00  0.00    +0.000 A 
ATOM      5  C   UNL     1       4.938   5.239  16.413  0.00  0.00    +0.000 A 
ATOM      6  C   UNL     1       5.457   6.279  15.647  0.00  0.00    +0.000 A 
ATOM      7  C   UNL     1       6.306   5.975  14.574  0.00  0.00    +0.000 A 
ATOM      8  C   UNL     1       6.632   4.647  14.271  0.00  0.00    +0.000 A 
ATOM      9  C   UNL     1       6.113   3.605  15.036  0.00  0.00    +0.000 A 
ATOM     10  C   UNL     1       5.275   3.919  16.094  0.00  0.00    +0.000 A 
ATOM     11  S   UNL     1       4.503   2.769  17.196  0.00  0.00    +0.000 S 
ATOM     12  N   UNL     1       3.755   3.996  18.055  0.00  0.00    +0.000 N 
ATOM     13  C   UNL     1       2.907   3.794  19.170  0.00  0.00    +0.000 A 
ATOM     14  C   UNL     1       2.599   2.523  19.683  0.00  0.00    +0.000 A 
ATOM     15  C   UNL     1       1.755   2.372  20.788  0.00  0.00    +0.000 A 
ATOM     16  C   UNL     1       1.204   3.492  21.404  0.00  0.00    +0.000 A 
ATOM     17  C   UNL     1       1.492   4.766  20.917  0.00  0.00    +0.000 A 
ATOM     18  C   UNL     1       2.337   4.915  19.808  0.00  0.00    +0.000 A 
ENDROOT
TORSDOF 0
ENDMDL
