MODEL 1
REMARK VINA RESULT:      -8.2      0.000      0.000
REMARK  Name = 
REMARK  10 active torsions:
REMARK  status: ('A' for Active; 'I' for Inactive)
REMARK    1  A    between atoms: C_2  and  C_3
REMARK    2  A    between atoms: C_4  and  C_5
REMARK    3  A    between atoms: N_12  and  C_13
REMARK    4  A    between atoms: C_13  and  C_14
REMARK    5  A    between atoms: C_14  and  C_15
REMARK    6  A    between atoms: C_15  and  C_16
REMARK    7  A    between atoms: C_16  and  C_17
REMARK    8  A    between atoms: C_17  and  N_18
REMARK    9  A    between atoms: C_21  and  C_22
REMARK   10  A    between atoms: N_24  and  C_25
REMARK                            x       y       z     vdW  Elec       q    Type
REMARK                         _______ _______ _______ _____ _____    ______ ____
ROOT
ATOM      1  C   UNL     1       3.718   4.842  17.471  0.00  0.00    +0.000 C 
ENDROOT
BRANCH   1   2
ATOM      2  N   UNL     1       5.120   4.696  17.915  0.00  0.00    +0.000 NA
ATOM      3  C   UNL     1       6.063   5.023  16.824  0.00  0.00    +0.000 C 
ATOM      4  C   UNL     1       7.529   4.922  17.266  0.00  0.00    +0.000 C 
ATOM      5  C   UNL     1       7.842   5.834  18.460  0.00  0.00    +0.000 C 
ATOM      6  C   UNL     1       6.818   5.539  19.563  0.00  0.00    +0.000 C 
ATOM      7  C   UNL     1       5.362   5.591  19.064  0.00  0.00    +0.000 C 
BRANCH   5   8
ATOM      8  C   UNL     1       7.911   7.315  18.028  0.00  0.00    +0.000 C 
ATOM      9  O   UNL     1       7.342   7.693  17.005  0.00  0.00    +0.000 OA
ATOM     10  N   UNL     1       8.679   8.114  18.857  0.00  0.00    +0.000 N 
ATOM     11  H   UNL     1       9.316   7.645  19.489  0.00  0.00    +0.000 HD
BRANCH  10  12
ATOM     12  C   UNL     1       8.782   9.514  18.753  0.00  0.00    +0.000 A 
ATOM     13  C   UNL     1       8.150  10.233  17.734  0.00  0.00    +0.000 A 
ATOM     14  C   UNL     1       8.322  11.609  17.619  0.00  0.00    +0.000 A 
ATOM     15  C   UNL     1       9.126  12.279  18.538  0.00  0.00    +0.000 A 
ATOM     16  C   UNL     1       9.725  11.572  19.577  0.00  0.00    +0.000 A 
ATOM     17 CL   UNL     1      10.722  12.400  20.707  0.00  0.00    +0.000 Cl
ATOM     18  C   UNL     1       9.542  10.195  19.703  0.00  0.00    +0.000 A 
ENDBRANCH  10  12
ENDBRANCH   5   8
ENDBRANCH   1   2
BRANCH   1  19
ATOM     19  C   UNL     1       3.063   3.490  17.169  0.00  0.00    +0.000 C 
BRANCH  19  20
ATOM     20  C   UNL     1       1.606   3.430  17.617  0.00  0.00    +0.000 C 
BRANCH  20  21
ATOM     21  C   UNL     1       1.414   2.276  18.604  0.00  0.00    +0.000 C 
BRANCH  21  22
ATOM     22  C   UNL     1       1.047   2.787  19.991  0.00  0.00    +0.000 C 
BRANCH  22  25
ATOM     23  O   UNL     1       2.625   4.402  21.717  0.00  0.00    +0.000 OA
ATOM     24  C   UNL     1       1.859   4.926  20.916  0.00  0.00    +0.000 C 
ATOM     25  N   UNL     1       1.053   4.235  20.044  0.00  0.00    +0.000 N 
ATOM     26  H   UNL     1       0.405   4.732  19.451  0.00  0.00    +0.000 HD
BRANCH  24  27
ATOM     27  C   UNL     1       1.713   6.397  20.783  0.00  0.00    +0.000 C 
ATOM     28  C   UNL     1       1.747   6.970  19.571  0.00  0.00    +0.000 C 
BRANCH  28  29
ATOM     29  C   UNL     1       1.585   8.414  19.334  0.00  0.00    +0.000 A 
ATOM     30  C   UNL     1       0.977   9.265  20.269  0.00  0.00    +0.000 A 
ATOM     31  C   UNL     1       0.857  10.635  20.014  0.00  0.00    +0.000 A 
ATOM     32  C   UNL     1       1.357  11.165  18.829  0.00  0.00    +0.000 A 
ATOM     33 CL   UNL     1       1.209  12.850  18.517  0.00  0.00    +0.000 Cl
ATOM     34  C   UNL     1       1.981  10.338  17.898  0.00  0.00    +0.000 A 
ATOM     35  C   UNL     1       2.098   8.968  18.153  0.00  0.00    +0.000 A 
ENDBRANCH  28  29
ENDBRANCH  24  27
ENDBRANCH  22  25
ENDBRANCH  21  22
ENDBRANCH  20  21
ENDBRANCH  19  20
ENDBRANCH   1  19
TORSDOF 10
ENDMDL
MODEL 2
REMARK VINA RESULT:      -8.1      1.751      7.454
REMARK  Name = 
REMARK  10 active torsions:
REMARK  status: ('A' for Active; 'I' for Inactive)
REMARK    1  A    between atoms: C_2  and  C_3
REMARK    2  A    between atoms: C_4  and  C_5
REMARK    3  A    between atoms: N_12  and  C_13
REMARK    4  A    between atoms: C_13  and  C_14
REMARK    5  A    between atoms: C_14  and  C_15
REMARK    6  A    between atoms: C_15  and  C_16
REMARK    7  A    between atoms: C_16  and  C_17
REMARK    8  A    between atoms: C_17  and  N_18
REMARK    9  A    between atoms: C_21  and  C_22
REMARK   10  A    between atoms: N_24  and  C_25
REMARK                            x       y       z     vdW  Elec       q    Type
REMARK                         _______ _______ _______ _____ _____    ______ ____
ROOT
ATOM      1  C   UNL     1       4.656   3.119  17.038  0.00  0.00    +0.000 C 
ENDROOT
BRANCH   1   2
ATOM      2  N   UNL     1       3.663   3.075  18.132  0.00  0.00    +0.000 NA
ATOM      3  C   UNL     1       4.195   3.700  19.362  0.00  0.00    +0.000 C 
ATOM      4  C   UNL     1       3.172   3.709  20.506  0.00  0.00    +0.000 C 
ATOM      5  C   UNL     1       1.875   4.432  20.122  0.00  0.00    +0.000 C 
ATOM      6  C   UNL     1       1.364   3.826  18.808  0.00  0.00    +0.000 C 
ATOM      7  C   UNL     1       2.439   3.781  17.707  0.00  0.00    +0.000 C 
BRANCH   5   8
ATOM      8  C   UNL     1       2.079   5.963  20.084  0.00  0.00    +0.000 C 
ATOM      9  O   UNL     1       2.942   6.458  19.361  0.00  0.00    +0.000 OA
ATOM     10  N   UNL     1       1.255   6.668  20.943  0.00  0.00    +0.000 N 
ATOM     11  H   UNL     1       0.799   6.144  21.680  0.00  0.00    +0.000 HD
BRANCH  10  12
ATOM     12  C   UNL     1       1.156   8.071  20.990  0.00  0.00    +0.000 A 
ATOM     13  C   UNL     1       0.939   8.762  22.186  0.00  0.00    +0.000 A 
ATOM     14  C   UNL     1       0.782  10.145  22.194  0.00  0.00    +0.000 A 
ATOM     15  C   UNL     1       0.852  10.849  20.994  0.00  0.00    +0.000 A 
ATOM     16  C   UNL     1       1.108  10.169  19.806  0.00  0.00    +0.000 A 
ATOM     17 CL   UNL     1       1.188  11.039  18.326  0.00  0.00    +0.000 Cl
ATOM     18  C   UNL     1       1.280   8.784  19.799  0.00  0.00    +0.000 A 
ENDBRANCH  10  12
ENDBRANCH   5   8
ENDBRANCH   1   2
BRANCH   1  19
ATOM     19  C   UNL     1       4.512   4.379  16.178  0.00  0.00    +0.000 C 
BRANCH  19  20
ATOM     20  C   UNL     1       5.644   4.531  15.165  0.00  0.00    +0.000 C 
BRANCH  20  21
ATOM     21  C   UNL     1       6.697   5.501  15.705  0.00  0.00    +0.000 C 
BRANCH  21  22
ATOM     22  C   UNL     1       6.161   6.299  16.887  0.00  0.00    +0.000 C 
BRANCH  22  25
ATOM     23  O   UNL     1       8.137   6.900  18.841  0.00  0.00    +0.000 OA
ATOM     24  C   UNL     1       7.807   7.749  18.019  0.00  0.00    +0.000 C 
ATOM     25  N   UNL     1       6.862   7.558  17.041  0.00  0.00    +0.000 N 
ATOM     26  H   UNL     1       6.601   8.321  16.434  0.00  0.00    +0.000 HD
BRANCH  24  27
ATOM     27  C   UNL     1       8.406   9.105  17.978  0.00  0.00    +0.000 C 
ATOM     28  C   UNL     1       9.101   9.567  19.029  0.00  0.00    +0.000 C 
BRANCH  28  29
ATOM     29  C   UNL     1       9.754  10.885  19.073  0.00  0.00    +0.000 A 
ATOM     30  C   UNL     1       9.988  11.569  20.276  0.00  0.00    +0.000 A 
ATOM     31  C   UNL     1      10.627  12.813  20.276  0.00  0.00    +0.000 A 
ATOM     32  C   UNL     1      11.049  13.375  19.076  0.00  0.00    +0.000 A 
ATOM     33 CL   UNL     1      11.836  14.904  19.079  0.00  0.00    +0.000 Cl
ATOM     34  C   UNL     1      10.843  12.702  17.874  0.00  0.00    +0.000 A 
ATOM     35  C   UNL     1      10.201  11.459  17.875  0.00  0.00    +0.000 A 
ENDBRANCH  28  29
ENDBRANCH  24  27
ENDBRANCH  22  25
ENDBRANCH  21  22
ENDBRANCH  20  21
ENDBRANCH  19  20
ENDBRANCH   1  19
TORSDOF 10
ENDMDL
MODEL 3
REMARK VINA RESULT:      -7.8      3.426      8.965
REMARK  Name = 
REMARK  10 active torsions:
REMARK  status: ('A' for Active; 'I' for Inactive)
REMARK    1  A    between atoms: C_2  and  C_3
REMARK    2  A    between atoms: C_4  and  C_5
REMARK    3  A    between atoms: N_12  and  C_13
REMARK    4  A    between atoms: C_13  and  C_14
REMARK    5  A    between atoms: C_14  and  C_15
REMARK    6  A    between atoms: C_15  and  C_16
REMARK    7  A    between atoms: C_16  and  C_17
REMARK    8  A    between atoms: C_17  and  N_18
REMARK    9  A    between atoms: C_21  and  C_22
REMARK   10  A    between atoms: N_24  and  C_25
REMARK                            x       y       z     vdW  Elec       q    Type
REMARK                         _______ _______ _______ _____ _____    ______ ____
ROOT
ATOM      1  C   UNL     1       2.452   6.359  19.516  0.00  0.00    +0.000 C 
ENDROOT
BRANCH   1   2
ATOM      2  N   UNL     1       2.444   7.838  19.491  0.00  0.00    +0.000 NA
ATOM      3  C   UNL     1       2.351   8.348  18.107  0.00  0.00    +0.000 C 
ATOM      4  C   UNL     1       2.297   9.880  18.049  0.00  0.00    +0.000 C 
ATOM      5  C   UNL     1       1.121  10.452  18.852  0.00  0.00    +0.000 C 
ATOM      6  C   UNL     1       1.182   9.865  20.268  0.00  0.00    +0.000 C 
ATOM      7  C   UNL     1       1.297   8.330  20.279  0.00  0.00    +0.000 C 
BRANCH   5   8
ATOM      8  C   UNL     1      -0.220  10.222  18.121  0.00  0.00    +0.000 C 
ATOM      9  O   UNL     1      -0.463   9.137  17.595  0.00  0.00    +0.000 OA
ATOM     10  N   UNL     1      -1.049  11.329  18.090  0.00  0.00    +0.000 N 
ATOM     11  H   UNL     1      -0.629  12.226  18.299  0.00  0.00    +0.000 HD
BRANCH  10  12
ATOM     12  C   UNL     1      -2.371  11.330  17.606  0.00  0.00    +0.000 A 
ATOM     13  C   UNL     1      -2.671  11.084  16.263  0.00  0.00    +0.000 A 
ATOM     14  C   UNL     1      -3.982  11.153  15.801  0.00  0.00    +0.000 A 
ATOM     15  C   UNL     1      -5.007  11.462  16.691  0.00  0.00    +0.000 A 
ATOM     16  C   UNL     1      -4.717  11.669  18.037  0.00  0.00    +0.000 A 
ATOM     17 CL   UNL     1      -5.983  12.056  19.133  0.00  0.00    +0.000 Cl
ATOM     18  C   UNL     1      -3.405  11.585  18.505  0.00  0.00    +0.000 A 
ENDBRANCH  10  12
ENDBRANCH   5   8
ENDBRANCH   1   2
BRANCH   1  19
ATOM     19  C   UNL     1       2.437   5.757  18.107  0.00  0.00    +0.000 C 
BRANCH  19  20
ATOM     20  C   UNL     1       3.617   4.823  17.854  0.00  0.00    +0.000 C 
BRANCH  20  21
ATOM     21  C   UNL     1       4.766   5.171  18.802  0.00  0.00    +0.000 C 
BRANCH  21  22
ATOM     22  C   UNL     1       6.117   4.820  18.189  0.00  0.00    +0.000 C 
BRANCH  22  25
ATOM     23  O   UNL     1       6.559   7.138  16.604  0.00  0.00    +0.000 OA
ATOM     24  C   UNL     1       7.233   6.943  17.610  0.00  0.00    +0.000 C 
ATOM     25  N   UNL     1       7.100   5.855  18.438  0.00  0.00    +0.000 N 
ATOM     26  H   UNL     1       7.728   5.732  19.218  0.00  0.00    +0.000 HD
BRANCH  24  27
ATOM     27  C   UNL     1       8.288   7.882  18.067  0.00  0.00    +0.000 C 
ATOM     28  C   UNL     1       8.073   9.206  18.032  0.00  0.00    +0.000 C 
BRANCH  28  29
ATOM     29  C   UNL     1       9.045  10.213  18.487  0.00  0.00    +0.000 A 
ATOM     30  C   UNL     1       9.787  10.999  17.594  0.00  0.00    +0.000 A 
ATOM     31  C   UNL     1      10.689  11.958  18.067  0.00  0.00    +0.000 A 
ATOM     32  C   UNL     1      10.843  12.147  19.437  0.00  0.00    +0.000 A 
ATOM     33 CL   UNL     1      11.952  13.326  20.017  0.00  0.00    +0.000 Cl
ATOM     34  C   UNL     1      10.100  11.389  20.338  0.00  0.00    +0.000 A 
ATOM     35  C   UNL     1       9.201  10.428  19.864  0.00  0.00    +0.000 A 
ENDBRANCH  28  29
ENDBRANCH  24  27
ENDBRANCH  22  25
ENDBRANCH  21  22
ENDBRANCH  20  21
ENDBRANCH  19  20
ENDBRANCH   1  19
TORSDOF 10
ENDMDL
MODEL 4
REMARK VINA RESULT:      -7.8      3.859      9.502
REMARK  Name = 
REMARK  10 active torsions:
REMARK  status: ('A' for Active; 'I' for Inactive)
REMARK    1  A    between atoms: C_2  and  C_3
REMARK    2  A    between atoms: C_4  and  C_5
REMARK    3  A    between atoms: N_12  and  C_13
REMARK    4  A    between atoms: C_13  and  C_14
REMARK    5  A    between atoms: C_14  and  C_15
REMARK    6  A    between atoms: C_15  and  C_16
REMARK    7  A    between atoms: C_16  and  C_17
REMARK    8  A    between atoms: C_17  and  N_18
REMARK    9  A    between atoms: C_21  and  C_22
REMARK   10  A    between atoms: N_24  and  C_25
REMARK                            x       y       z     vdW  Elec       q    Type
REMARK                         _______ _______ _______ _____ _____    ______ ____
ROOT
ATOM      1  C   UNL     1       1.962   8.279  17.861  0.00  0.00    +0.000 C 
ENDROOT
BRANCH   1   2
ATOM      2  N   UNL     1       1.886   9.449  18.762  0.00  0.00    +0.000 NA
ATOM      3  C   UNL     1       1.917  10.714  17.998  0.00  0.00    +0.000 C 
ATOM      4  C   UNL     1       1.796  11.949  18.902  0.00  0.00    +0.000 C 
ATOM      5  C   UNL     1       0.516  11.929  19.746  0.00  0.00    +0.000 C 
ATOM      6  C   UNL     1       0.453  10.585  20.484  0.00  0.00    +0.000 C 
ATOM      7  C   UNL     1       0.640   9.376  19.549  0.00  0.00    +0.000 C 
BRANCH   5   8
ATOM      8  C   UNL     1      -0.727  12.245  18.885  0.00  0.00    +0.000 C 
ATOM      9  O   UNL     1      -0.621  12.933  17.871  0.00  0.00    +0.000 OA
ATOM     10  N   UNL     1      -1.911  11.731  19.383  0.00  0.00    +0.000 N 
ATOM     11  H   UNL     1      -1.915  11.436  20.351  0.00  0.00    +0.000 HD
BRANCH  10  12
ATOM     12  C   UNL     1      -3.147  11.767  18.711  0.00  0.00    +0.000 A 
ATOM     13  C   UNL     1      -3.283  11.358  17.381  0.00  0.00    +0.000 A 
ATOM     14  C   UNL     1      -4.504  11.464  16.723  0.00  0.00    +0.000 A 
ATOM     15  C   UNL     1      -5.607  11.976  17.402  0.00  0.00    +0.000 A 
ATOM     16  C   UNL     1      -5.485  12.347  18.739  0.00  0.00    +0.000 A 
ATOM     17 CL   UNL     1      -6.846  12.984  19.574  0.00  0.00    +0.000 Cl
ATOM     18  C   UNL     1      -4.265  12.228  19.404  0.00  0.00    +0.000 A 
ENDBRANCH  10  12
ENDBRANCH   5   8
ENDBRANCH   1   2
BRANCH   1  19
ATOM     19  C   UNL     1       2.493   7.032  18.576  0.00  0.00    +0.000 C 
BRANCH  19  20
ATOM     20  C   UNL     1       3.572   6.310  17.775  0.00  0.00    +0.000 C 
BRANCH  20  21
ATOM     21  C   UNL     1       4.487   5.531  18.721  0.00  0.00    +0.000 C 
BRANCH  21  22
ATOM     22  C   UNL     1       5.875   5.341  18.120  0.00  0.00    +0.000 C 
BRANCH  22  25
ATOM     23  O   UNL     1       7.602   6.807  16.403  0.00  0.00    +0.000 OA
ATOM     24  C   UNL     1       7.571   7.058  17.603  0.00  0.00    +0.000 C 
ATOM     25  N   UNL     1       6.776   6.406  18.514  0.00  0.00    +0.000 N 
ATOM     26  H   UNL     1       6.843   6.628  19.496  0.00  0.00    +0.000 HD
BRANCH  24  27
ATOM     27  C   UNL     1       8.398   8.121  18.226  0.00  0.00    +0.000 C 
ATOM     28  C   UNL     1       8.208   9.406  17.888  0.00  0.00    +0.000 C 
BRANCH  28  29
ATOM     29  C   UNL     1       8.957  10.532  18.469  0.00  0.00    +0.000 A 
ATOM     30  C   UNL     1       9.175  11.729  17.771  0.00  0.00    +0.000 A 
ATOM     31  C   UNL     1       9.879  12.783  18.364  0.00  0.00    +0.000 A 
ATOM     32  C   UNL     1      10.354  12.651  19.665  0.00  0.00    +0.000 A 
ATOM     33 CL   UNL     1      11.218  13.948  20.393  0.00  0.00    +0.000 Cl
ATOM     34  C   UNL     1      10.130  11.478  20.380  0.00  0.00    +0.000 A 
ATOM     35  C   UNL     1       9.430  10.424  19.784  0.00  0.00    +0.000 A 
ENDBRANCH  28  29
ENDBRANCH  24  27
ENDBRANCH  22  25
ENDBRANCH  21  22
ENDBRANCH  20  21
ENDBRANCH  19  20
ENDBRANCH   1  19
TORSDOF 10
ENDMDL
MODEL 5
REMARK VINA RESULT:      -7.8      3.830      5.951
REMARK  Name = 
REMARK  10 active torsions:
REMARK  status: ('A' for Active; 'I' for Inactive)
REMARK    1  A    between atoms: C_2  and  C_3
REMARK    2  A    between atoms: C_4  and  C_5
REMARK    3  A    between atoms: N_12  and  C_13
REMARK    4  A    between atoms: C_13  and  C_14
REMARK    5  A    between atoms: C_14  and  C_15
REMARK    6  A    between atoms: C_15  and  C_16
REMARK    7  A    between atoms: C_16  and  C_17
REMARK    8  A    between atoms: C_17  and  N_18
REMARK    9  A    between atoms: C_21  and  C_22
REMARK   10  A    between atoms: N_24  and  C_25
REMARK                            x       y       z     vdW  Elec       q    Type
REMARK                         _______ _______ _______ _____ _____    ______ ____
ROOT
ATOM      1  C   UNL     1       1.864   4.265  21.519  0.00  0.00    +0.000 C 
ENDROOT
BRANCH   1   2
ATOM      2  N   UNL     1       1.993   3.072  20.654  0.00  0.00    +0.000 NA
ATOM      3  C   UNL     1       1.259   3.252  19.384  0.00  0.00    +0.000 C 
ATOM      4  C   UNL     1       1.408   2.048  18.444  0.00  0.00    +0.000 C 
ATOM      5  C   UNL     1       2.875   1.747  18.112  0.00  0.00    +0.000 C 
ATOM      6  C   UNL     1       3.647   1.630  19.432  0.00  0.00    +0.000 C 
ATOM      7  C   UNL     1       3.421   2.829  20.370  0.00  0.00    +0.000 C 
BRANCH   5   8
ATOM      8  C   UNL     1       3.449   2.787  17.124  0.00  0.00    +0.000 C 
ATOM      9  O   UNL     1       2.703   3.400  16.363  0.00  0.00    +0.000 OA
ATOM     10  N   UNL     1       4.827   2.909  17.163  0.00  0.00    +0.000 N 
ATOM     11  H   UNL     1       5.344   2.164  17.614  0.00  0.00    +0.000 HD
BRANCH  10  12
ATOM     12  C   UNL     1       5.567   3.880  16.463  0.00  0.00    +0.000 A 
ATOM     13  C   UNL     1       5.885   3.739  15.108  0.00  0.00    +0.000 A 
ATOM     14  C   UNL     1       6.672   4.684  14.458  0.00  0.00    +0.000 A 
ATOM     15  C   UNL     1       7.142   5.789  15.165  0.00  0.00    +0.000 A 
ATOM     16  C   UNL     1       6.795   5.952  16.503  0.00  0.00    +0.000 A 
ATOM     17 CL   UNL     1       7.380   7.313  17.375  0.00  0.00    +0.000 Cl
ATOM     18  C   UNL     1       5.994   5.013  17.153  0.00  0.00    +0.000 A 
ENDBRANCH  10  12
ENDBRANCH   5   8
ENDBRANCH   1   2
BRANCH   1  19
ATOM     19  C   UNL     1       1.448   5.510  20.729  0.00  0.00    +0.000 C 
BRANCH  19  20
ATOM     20  C   UNL     1       2.644   6.323  20.241  0.00  0.00    +0.000 C 
BRANCH  20  21
ATOM     21  C   UNL     1       2.624   6.410  18.714  0.00  0.00    +0.000 C 
BRANCH  21  22
ATOM     22  C   UNL     1       2.783   7.849  18.238  0.00  0.00    +0.000 C 
BRANCH  22  25
ATOM     23  O   UNL     1       2.343  10.558  17.497  0.00  0.00    +0.000 OA
ATOM     24  C   UNL     1       1.495   9.952  18.144  0.00  0.00    +0.000 C 
ATOM     25  N   UNL     1       1.614   8.646  18.552  0.00  0.00    +0.000 N 
ATOM     26  H   UNL     1       0.900   8.228  19.130  0.00  0.00    +0.000 HD
BRANCH  24  27
ATOM     27  C   UNL     1       0.210  10.565  18.563  0.00  0.00    +0.000 C 
ATOM     28  C   UNL     1      -0.922  10.273  17.905  0.00  0.00    +0.000 C 
BRANCH  28  29
ATOM     29  C   UNL     1      -2.246  10.808  18.260  0.00  0.00    +0.000 A 
ATOM     30  C   UNL     1      -2.418  11.805  19.232  0.00  0.00    +0.000 A 
ATOM     31  C   UNL     1      -3.693  12.299  19.530  0.00  0.00    +0.000 A 
ATOM     32  C   UNL     1      -4.801  11.809  18.847  0.00  0.00    +0.000 A 
ATOM     33 CL   UNL     1      -6.367  12.419  19.214  0.00  0.00    +0.000 Cl
ATOM     34  C   UNL     1      -4.648  10.834  17.865  0.00  0.00    +0.000 A 
ATOM     35  C   UNL     1      -3.373  10.338  17.571  0.00  0.00    +0.000 A 
ENDBRANCH  28  29
ENDBRANCH  24  27
ENDBRANCH  22  25
ENDBRANCH  21  22
ENDBRANCH  20  21
ENDBRANCH  19  20
ENDBRANCH   1  19
TORSDOF 10
ENDMDL
MODEL 6
REMARK VINA RESULT:      -7.6      3.272      8.186
REMARK  Name = 
REMARK  10 active torsions:
REMARK  status: ('A' for Active; 'I' for Inactive)
REMARK    1  A    between atoms: C_2  and  C_3
REMARK    2  A    between atoms: C_4  and  C_5
REMARK    3  A    between atoms: N_12  and  C_13
REMARK    4  A    between atoms: C_13  and  C_14
REMARK    5  A    between atoms: C_14  and  C_15
REMARK    6  A    between atoms: C_15  and  C_16
REMARK    7  A    between atoms: C_16  and  C_17
REMARK    8  A    between atoms: C_17  and  N_18
REMARK    9  A    between atoms: C_21  and  C_22
REMARK   10  A    between atoms: N_24  and  C_25
REMARK                            x       y       z     vdW  Elec       q    Type
REMARK                         _______ _______ _______ _____ _____    ______ ____
ROOT
ATOM      1  C   UNL     1       7.400   8.577  17.785  0.00  0.00    +0.000 C 
ENDROOT
BRANCH   1   2
ATOM      2  N   UNL     1       7.412   7.207  17.228  0.00  0.00    +0.000 NA
ATOM      3  C   UNL     1       7.777   6.214  18.260  0.00  0.00    +0.000 C 
ATOM      4  C   UNL     1       7.758   4.776  17.724  0.00  0.00    +0.000 C 
ATOM      5  C   UNL     1       6.390   4.389  17.147  0.00  0.00    +0.000 C 
ATOM      6  C   UNL     1       5.984   5.460  16.127  0.00  0.00    +0.000 C 
ATOM      7  C   UNL     1       6.077   6.891  16.686  0.00  0.00    +0.000 C 
BRANCH   5   8
ATOM      8  C   UNL     1       5.357   4.150  18.270  0.00  0.00    +0.000 C 
ATOM      9  O   UNL     1       5.705   3.652  19.340  0.00  0.00    +0.000 OA
ATOM     10  N   UNL     1       4.061   4.500  17.936  0.00  0.00    +0.000 N 
ATOM     11  H   UNL     1       3.856   4.625  16.952  0.00  0.00    +0.000 HD
BRANCH  10  12
ATOM     12  C   UNL     1       2.974   4.505  18.830  0.00  0.00    +0.000 A 
ATOM     13  C   UNL     1       2.177   3.375  19.039  0.00  0.00    +0.000 A 
ATOM     14  C   UNL     1       1.071   3.428  19.881  0.00  0.00    +0.000 A 
ATOM     15  C   UNL     1       0.760   4.620  20.531  0.00  0.00    +0.000 A 
ATOM     16  C   UNL     1       1.574   5.736  20.356  0.00  0.00    +0.000 A 
ATOM     17 CL   UNL     1       1.186   7.208  21.154  0.00  0.00    +0.000 Cl
ATOM     18  C   UNL     1       2.692   5.681  19.523  0.00  0.00    +0.000 A 
ENDBRANCH  10  12
ENDBRANCH   5   8
ENDBRANCH   1   2
BRANCH   1  19
ATOM     19  C   UNL     1       8.791   9.221  17.767  0.00  0.00    +0.000 C 
BRANCH  19  20
ATOM     20  C   UNL     1       8.896  10.419  18.707  0.00  0.00    +0.000 C 
BRANCH  20  21
ATOM     21  C   UNL     1      10.220  11.148  18.471  0.00  0.00    +0.000 C 
BRANCH  21  22
ATOM     22  C   UNL     1       9.990  12.609  18.101  0.00  0.00    +0.000 C 
BRANCH  22  25
ATOM     23  O   UNL     1       8.926  15.223  17.766  0.00  0.00    +0.000 OA
ATOM     24  C   UNL     1       8.232  14.334  18.248  0.00  0.00    +0.000 C 
ATOM     25  N   UNL     1       8.653  13.044  18.454  0.00  0.00    +0.000 N 
ATOM     26  H   UNL     1       8.045  12.378  18.907  0.00  0.00    +0.000 HD
BRANCH  24  27
ATOM     27  C   UNL     1       6.824  14.548  18.666  0.00  0.00    +0.000 C 
ATOM     28  C   UNL     1       5.929  15.038  17.793  0.00  0.00    +0.000 C 
BRANCH  28  29
ATOM     29  C   UNL     1       4.508  15.259  18.104  0.00  0.00    +0.000 A 
ATOM     30  C   UNL     1       3.961  16.543  18.250  0.00  0.00    +0.000 A 
ATOM     31  C   UNL     1       2.601  16.711  18.530  0.00  0.00    +0.000 A 
ATOM     32  C   UNL     1       1.776  15.598  18.650  0.00  0.00    +0.000 A 
ATOM     33 CL   UNL     1       0.104  15.807  18.993  0.00  0.00    +0.000 Cl
ATOM     34  C   UNL     1       2.297  14.316  18.489  0.00  0.00    +0.000 A 
ATOM     35  C   UNL     1       3.658  14.149  18.213  0.00  0.00    +0.000 A 
ENDBRANCH  28  29
ENDBRANCH  24  27
ENDBRANCH  22  25
ENDBRANCH  21  22
ENDBRANCH  20  21
ENDBRANCH  19  20
ENDBRANCH   1  19
TORSDOF 10
ENDMDL
MODEL 7
REMARK VINA RESULT:      -7.6      1.514      7.265
REMARK  Name = 
REMARK  10 active torsions:
REMARK  status: ('A' for Active; 'I' for Inactive)
REMARK    1  A    between atoms: C_2  and  C_3
REMARK    2  A    between atoms: C_4  and  C_5
REMARK    3  A    between atoms: N_12  and  C_13
REMARK    4  A    between atoms: C_13  and  C_14
REMARK    5  A    between atoms: C_14  and  C_15
REMARK    6  A    between atoms: C_15  and  C_16
REMARK    7  A    between atoms: C_16  and  C_17
REMARK    8  A    between atoms: C_17  and  N_18
REMARK    9  A    between atoms: C_21  and  C_22
REMARK   10  A    between atoms: N_24  and  C_25
REMARK                            x       y       z     vdW  Elec       q    Type
REMARK                         _______ _______ _______ _____ _____    ______ ____
ROOT
ATOM      1  C   UNL     1       3.773   2.386  17.219  0.00  0.00    +0.000 C 
ENDROOT
BRANCH   1   2
ATOM      2  N   UNL     1       3.544   2.435  18.679  0.00  0.00    +0.000 NA
ATOM      3  C   UNL     1       4.007   3.717  19.249  0.00  0.00    +0.000 C 
ATOM      4  C   UNL     1       3.744   3.818  20.758  0.00  0.00    +0.000 C 
ATOM      5  C   UNL     1       2.259   3.648  21.102  0.00  0.00    +0.000 C 
ATOM      6  C   UNL     1       1.765   2.350  20.450  0.00  0.00    +0.000 C 
ATOM      7  C   UNL     1       2.103   2.264  18.951  0.00  0.00    +0.000 C 
BRANCH   5   8
ATOM      8  C   UNL     1       1.449   4.906  20.720  0.00  0.00    +0.000 C 
ATOM      9  O   UNL     1       0.268   4.809  20.390  0.00  0.00    +0.000 OA
ATOM     10  N   UNL     1       2.177   6.082  20.748  0.00  0.00    +0.000 N 
ATOM     11  H   UNL     1       3.186   6.000  20.755  0.00  0.00    +0.000 HD
BRANCH  10  12
ATOM     12  C   UNL     1       1.633   7.368  20.575  0.00  0.00    +0.000 A 
ATOM     13  C   UNL     1       0.761   7.939  21.508  0.00  0.00    +0.000 A 
ATOM     14  C   UNL     1       0.188   9.186  21.279  0.00  0.00    +0.000 A 
ATOM     15  C   UNL     1       0.495   9.878  20.110  0.00  0.00    +0.000 A 
ATOM     16  C   UNL     1       1.393   9.330  19.198  0.00  0.00    +0.000 A 
ATOM     17 CL   UNL     1       1.766  10.183  17.753  0.00  0.00    +0.000 Cl
ATOM     18  C   UNL     1       1.980   8.087  19.432  0.00  0.00    +0.000 A 
ENDBRANCH  10  12
ENDBRANCH   5   8
ENDBRANCH   1   2
BRANCH   1  19
ATOM     19  C   UNL     1       4.201   3.745  16.655  0.00  0.00    +0.000 C 
BRANCH  19  20
ATOM     20  C   UNL     1       5.640   3.742  16.145  0.00  0.00    +0.000 C 
BRANCH  20  21
ATOM     21  C   UNL     1       6.370   4.990  16.645  0.00  0.00    +0.000 C 
BRANCH  21  22
ATOM     22  C   UNL     1       7.105   4.717  17.952  0.00  0.00    +0.000 C 
BRANCH  22  25
ATOM     23  O   UNL     1       7.647   7.139  16.565  0.00  0.00    +0.000 OA
ATOM     24  C   UNL     1       7.862   7.059  17.770  0.00  0.00    +0.000 C 
ATOM     25  N   UNL     1       7.638   5.936  18.527  0.00  0.00    +0.000 N 
ATOM     26  H   UNL     1       7.891   5.924  19.505  0.00  0.00    +0.000 HD
BRANCH  24  27
ATOM     27  C   UNL     1       8.392   8.190  18.571  0.00  0.00    +0.000 C 
ATOM     28  C   UNL     1       8.536   9.402  18.012  0.00  0.00    +0.000 C 
BRANCH  28  29
ATOM     29  C   UNL     1       9.027  10.590  18.729  0.00  0.00    +0.000 A 
ATOM     30  C   UNL     1       9.482  10.533  20.054  0.00  0.00    +0.000 A 
ATOM     31  C   UNL     1       9.956  11.682  20.696  0.00  0.00    +0.000 A 
ATOM     32  C   UNL     1       9.992  12.892  20.010  0.00  0.00    +0.000 A 
ATOM     33 CL   UNL     1      10.576  14.304  20.800  0.00  0.00    +0.000 Cl
ATOM     34  C   UNL     1       9.563  12.963  18.687  0.00  0.00    +0.000 A 
ATOM     35  C   UNL     1       9.086  11.814  18.049  0.00  0.00    +0.000 A 
ENDBRANCH  28  29
ENDBRANCH  24  27
ENDBRANCH  22  25
ENDBRANCH  21  22
ENDBRANCH  20  21
ENDBRANCH  19  20
ENDBRANCH   1  19
TORSDOF 10
ENDMDL
MODEL 8
REMARK VINA RESULT:      -7.5      3.829      9.524
REMARK  Name = 
REMARK  10 active torsions:
REMARK  status: ('A' for Active; 'I' for Inactive)
REMARK    1  A    between atoms: C_2  and  C_3
REMARK    2  A    between atoms: C_4  and  C_5
REMARK    3  A    between atoms: N_12  and  C_13
REMARK    4  A    between atoms: C_13  and  C_14
REMARK    5  A    between atoms: C_14  and  C_15
REMARK    6  A    between atoms: C_15  and  C_16
REMARK    7  A    between atoms: C_16  and  C_17
REMARK    8  A    between atoms: C_17  and  N_18
REMARK    9  A    between atoms: C_21  and  C_22
REMARK   10  A    between atoms: N_24  and  C_25
REMARK                            x       y       z     vdW  Elec       q    Type
REMARK                         _______ _______ _______ _____ _____    ______ ____
ROOT
ATOM      1  C   UNL     1       7.455   8.430  17.617  0.00  0.00    +0.000 C 
ENDROOT
BRANCH   1   2
ATOM      2  N   UNL     1       7.328   7.109  16.965  0.00  0.00    +0.000 NA
ATOM      3  C   UNL     1       7.728   6.020  17.881  0.00  0.00    +0.000 C 
ATOM      4  C   UNL     1       7.567   4.631  17.248  0.00  0.00    +0.000 C 
ATOM      5  C   UNL     1       6.129   4.365  16.786  0.00  0.00    +0.000 C 
ATOM      6  C   UNL     1       5.694   5.533  15.891  0.00  0.00    +0.000 C 
ATOM      7  C   UNL     1       5.929   6.909  16.539  0.00  0.00    +0.000 C 
BRANCH   5   8
ATOM      8  C   UNL     1       5.196   4.097  17.988  0.00  0.00    +0.000 C 
ATOM      9  O   UNL     1       5.661   3.728  19.065  0.00  0.00    +0.000 OA
ATOM     10  N   UNL     1       3.851   4.268  17.714  0.00  0.00    +0.000 N 
ATOM     11  H   UNL     1       3.578   4.291  16.739  0.00  0.00    +0.000 HD
BRANCH  10  12
ATOM     12  C   UNL     1       2.823   4.218  18.674  0.00  0.00    +0.000 A 
ATOM     13  C   UNL     1       2.067   3.062  18.895  0.00  0.00    +0.000 A 
ATOM     14  C   UNL     1       1.016   3.060  19.805  0.00  0.00    +0.000 A 
ATOM     15  C   UNL     1       0.719   4.223  20.512  0.00  0.00    +0.000 A 
ATOM     16  C   UNL     1       1.493   5.364  20.323  0.00  0.00    +0.000 A 
ATOM     17 CL   UNL     1       1.122   6.800  21.192  0.00  0.00    +0.000 Cl
ATOM     18  C   UNL     1       2.558   5.364  19.421  0.00  0.00    +0.000 A 
ENDBRANCH  10  12
ENDBRANCH   5   8
ENDBRANCH   1   2
BRANCH   1  19
ATOM     19  C   UNL     1       8.612   8.470  18.620  0.00  0.00    +0.000 C 
BRANCH  19  20
ATOM     20  C   UNL     1       8.966   9.890  19.052  0.00  0.00    +0.000 C 
BRANCH  20  21
ATOM     21  C   UNL     1       9.023  10.806  17.827  0.00  0.00    +0.000 C 
BRANCH  21  22
ATOM     22  C   UNL     1      10.249  11.710  17.867  0.00  0.00    +0.000 C 
BRANCH  22  25
ATOM     23  O   UNL     1      12.333  13.381  18.841  0.00  0.00    +0.000 OA
ATOM     24  C   UNL     1      11.196  13.492  19.288  0.00  0.00    +0.000 C 
ATOM     25  N   UNL     1      10.125  12.732  18.887  0.00  0.00    +0.000 N 
ATOM     26  H   UNL     1       9.228  12.841  19.339  0.00  0.00    +0.000 HD
BRANCH  24  27
ATOM     27  C   UNL     1      10.833  14.486  20.328  0.00  0.00    +0.000 C 
ATOM     28  C   UNL     1      10.194  14.093  21.441  0.00  0.00    +0.000 C 
BRANCH  28  29
ATOM     29  C   UNL     1       9.816  14.997  22.539  0.00  0.00    +0.000 A 
ATOM     30  C   UNL     1       8.680  14.782  23.333  0.00  0.00    +0.000 A 
ATOM     31  C   UNL     1       8.364  15.655  24.379  0.00  0.00    +0.000 A 
ATOM     32  C   UNL     1       9.192  16.741  24.647  0.00  0.00    +0.000 A 
ATOM     33 CL   UNL     1       8.802  17.814  25.934  0.00  0.00    +0.000 Cl
ATOM     34  C   UNL     1      10.335  16.959  23.882  0.00  0.00    +0.000 A 
ATOM     35  C   UNL     1      10.647  16.087  22.835  0.00  0.00    +0.000 A 
ENDBRANCH  28  29
ENDBRANCH  24  27
ENDBRANCH  22  25
ENDBRANCH  21  22
ENDBRANCH  20  21
ENDBRANCH  19  20
ENDBRANCH   1  19
TORSDOF 10
ENDMDL
MODEL 9
REMARK VINA RESULT:      -7.5      1.853      7.673
REMARK  Name = 
REMARK  10 active torsions:
REMARK  status: ('A' for Active; 'I' for Inactive)
REMARK    1  A    between atoms: C_2  and  C_3
REMARK    2  A    between atoms: C_4  and  C_5
REMARK    3  A    between atoms: N_12  and  C_13
REMARK    4  A    between atoms: C_13  and  C_14
REMARK    5  A    between atoms: C_14  and  C_15
REMARK    6  A    between atoms: C_15  and  C_16
REMARK    7  A    between atoms: C_16  and  C_17
REMARK    8  A    between atoms: C_17  and  N_18
REMARK    9  A    between atoms: C_21  and  C_22
REMARK   10  A    between atoms: N_24  and  C_25
REMARK                            x       y       z     vdW  Elec       q    Type
REMARK                         _______ _______ _______ _____ _____    ______ ____
ROOT
ATOM      1  C   UNL     1       3.884   2.635  17.783  0.00  0.00    +0.000 C 
ENDROOT
BRANCH   1   2
ATOM      2  N   UNL     1       3.034   2.804  18.981  0.00  0.00    +0.000 NA
ATOM      3  C   UNL     1       3.709   3.632  20.003  0.00  0.00    +0.000 C 
ATOM      4  C   UNL     1       2.836   3.863  21.243  0.00  0.00    +0.000 C 
ATOM      5  C   UNL     1       1.497   4.526  20.897  0.00  0.00    +0.000 C 
ATOM      6  C   UNL     1       0.831   3.701  19.788  0.00  0.00    +0.000 C 
ATOM      7  C   UNL     1       1.762   3.441  18.589  0.00  0.00    +0.000 C 
BRANCH   5   8
ATOM      8  C   UNL     1       1.684   6.021  20.559  0.00  0.00    +0.000 C 
ATOM      9  O   UNL     1       2.562   6.376  19.773  0.00  0.00    +0.000 OA
ATOM     10  N   UNL     1       0.827   6.870  21.237  0.00  0.00    +0.000 N 
ATOM     11  H   UNL     1       0.356   6.496  22.051  0.00  0.00    +0.000 HD
BRANCH  10  12
ATOM     12  C   UNL     1       0.711   8.252  20.999  0.00  0.00    +0.000 A 
ATOM     13  C   UNL     1       1.307   8.870  19.895  0.00  0.00    +0.000 A 
ATOM     14  C   UNL     1       1.229  10.247  19.719  0.00  0.00    +0.000 A 
ATOM     15  C   UNL     1       0.540  11.020  20.651  0.00  0.00    +0.000 A 
ATOM     16  C   UNL     1      -0.088  10.404  21.731  0.00  0.00    +0.000 A 
ATOM     17 CL   UNL     1      -0.933  11.359  22.883  0.00  0.00    +0.000 Cl
ATOM     18  C   UNL     1      -0.023   9.021  21.900  0.00  0.00    +0.000 A 
ENDBRANCH  10  12
ENDBRANCH   5   8
ENDBRANCH   1   2
BRANCH   1  19
ATOM     19  C   UNL     1       4.255   3.976  17.143  0.00  0.00    +0.000 C 
BRANCH  19  20
ATOM     20  C   UNL     1       5.756   4.248  17.179  0.00  0.00    +0.000 C 
BRANCH  20  21
ATOM     21  C   UNL     1       6.008   5.729  17.471  0.00  0.00    +0.000 C 
BRANCH  21  22
ATOM     22  C   UNL     1       7.026   6.320  16.502  0.00  0.00    +0.000 C 
BRANCH  22  25
ATOM     23  O   UNL     1       8.365   7.129  18.876  0.00  0.00    +0.000 OA
ATOM     24  C   UNL     1       8.036   7.964  18.041  0.00  0.00    +0.000 C 
ATOM     25  N   UNL     1       7.383   7.676  16.867  0.00  0.00    +0.000 N 
ATOM     26  H   UNL     1       7.093   8.422  16.252  0.00  0.00    +0.000 HD
BRANCH  24  27
ATOM     27  C   UNL     1       8.315   9.413  18.197  0.00  0.00    +0.000 C 
ATOM     28  C   UNL     1       9.330   9.823  18.974  0.00  0.00    +0.000 C 
BRANCH  28  29
ATOM     29  C   UNL     1       9.702  11.233  19.171  0.00  0.00    +0.000 A 
ATOM     30  C   UNL     1       9.520  12.205  18.176  0.00  0.00    +0.000 A 
ATOM     31  C   UNL     1       9.872  13.539  18.407  0.00  0.00    +0.000 A 
ATOM     32  C   UNL     1      10.394  13.912  19.642  0.00  0.00    +0.000 A 
ATOM     33 CL   UNL     1      10.826  15.553  19.925  0.00  0.00    +0.000 Cl
ATOM     34  C   UNL     1      10.564  12.965  20.648  0.00  0.00    +0.000 A 
ATOM     35  C   UNL     1      10.215  11.631  20.414  0.00  0.00    +0.000 A 
ENDBRANCH  28  29
ENDBRANCH  24  27
ENDBRANCH  22  25
ENDBRANCH  21  22
ENDBRANCH  20  21
ENDBRANCH  19  20
ENDBRANCH   1  19
TORSDOF 10
ENDMDL
