MODEL 1
REMARK VINA RESULT:      -8.6      0.000      0.000
REMARK  Name = 
REMARK  4 active torsions:
REMARK  status: ('A' for Active; 'I' for Inactive)
REMARK    1  A    between atoms: C_5  and  C_7
REMARK    2  A    between atoms: C_7  and  C_8
REMARK    3  A    between atoms: C_7  and  C_14
REMARK    4  A    between atoms: C_8  and  C_9
REMARK                            x       y       z     vdW  Elec       q    Type
REMARK                         _______ _______ _______ _____ _____    ______ ____
ROOT
ATOM      1  C   UNL     1       5.086   5.719  16.400  0.00  0.00    +0.000 C 
ENDROOT
BRANCH   1   6
ATOM      2  N   UNL     1       8.378   6.948  18.958  0.00  0.00    +0.000 N 
ATOM      3  C   UNL     1       7.536   5.933  19.256  0.00  0.00    +0.000 C 
ATOM      4  O   UNL     1       7.735   5.191  20.210  0.00  0.00    +0.000 OA
ATOM      5  N   UNL     1       6.464   5.755  18.426  0.00  0.00    +0.000 N 
ATOM      6  C   UNL     1       6.208   6.384  17.212  0.00  0.00    +0.000 C 
ATOM      7  O   UNL     1       6.841   7.358  16.809  0.00  0.00    +0.000 OA
ATOM      8  H   UNL     1       9.222   7.055  19.503  0.00  0.00    +0.000 HD
ATOM      9  H   UNL     1       8.316   7.406  18.054  0.00  0.00    +0.000 HD
ATOM     10  H   UNL     1       5.930   4.932  18.674  0.00  0.00    +0.000 HD
ENDBRANCH   1   6
BRANCH   1  11
ATOM     11  C   UNL     1       3.962   5.213  17.321  0.00  0.00    +0.000 A 
ATOM     12  C   UNL     1       3.158   6.098  18.061  0.00  0.00    +0.000 A 
ATOM     13  C   UNL     1       2.204   5.617  18.961  0.00  0.00    +0.000 A 
ATOM     14  C   UNL     1       2.057   4.244  19.164  0.00  0.00    +0.000 A 
ATOM     15 CL   UNL     1       0.894   3.727  20.330  0.00  0.00    +0.000 Cl
ATOM     16  C   UNL     1       2.855   3.350  18.445  0.00  0.00    +0.000 A 
ATOM     17 CL   UNL     1       2.759   1.639  18.670  0.00  0.00    +0.000 Cl
ATOM     18  C   UNL     1       3.792   3.832  17.521  0.00  0.00    +0.000 A 
ENDBRANCH   1  11
BRANCH   1  19
ATOM     19  C   UNL     1       5.574   4.508  15.570  0.00  0.00    +0.000 C 
BRANCH  19  20
ATOM     20  C   UNL     1       5.727   4.688  14.051  0.00  0.00    +0.000 C 
ATOM     21  C   UNL     1       7.213   4.748  13.666  0.00  0.00    +0.000 C 
ATOM     22  C   UNL     1       7.246   4.328  12.210  0.00  0.00    +0.000 C 
ATOM     23  C   UNL     1       6.186   3.241  12.114  0.00  0.00    +0.000 C 
ATOM     24  C   UNL     1       5.150   3.553  13.196  0.00  0.00    +0.000 C 
ENDBRANCH  19  20
ENDBRANCH   1  19
TORSDOF 4
ENDMDL
MODEL 2
REMARK VINA RESULT:      -8.5      4.289      5.660
REMARK  Name = 
REMARK  4 active torsions:
REMARK  status: ('A' for Active; 'I' for Inactive)
REMARK    1  A    between atoms: C_5  and  C_7
REMARK    2  A    between atoms: C_7  and  C_8
REMARK    3  A    between atoms: C_7  and  C_14
REMARK    4  A    between atoms: C_8  and  C_9
REMARK                            x       y       z     vdW  Elec       q    Type
REMARK                         _______ _______ _______ _____ _____    ______ ____
ROOT
ATOM      1  C   UNL     1       3.286   5.934  18.873  0.00  0.00    +0.000 C 
ENDROOT
BRANCH   1   6
ATOM      2  N   UNL     1       0.803   2.799  20.573  0.00  0.00    +0.000 N 
ATOM      3  C   UNL     1       1.876   3.329  21.202  0.00  0.00    +0.000 C 
ATOM      4  O   UNL     1       2.138   3.057  22.366  0.00  0.00    +0.000 OA
ATOM      5  N   UNL     1       2.643   4.205  20.485  0.00  0.00    +0.000 N 
ATOM      6  C   UNL     1       2.373   4.754  19.235  0.00  0.00    +0.000 C 
ATOM      7  O   UNL     1       1.468   4.355  18.504  0.00  0.00    +0.000 OA
ATOM      8  H   UNL     1       0.171   2.213  21.101  0.00  0.00    +0.000 HD
ATOM      9  H   UNL     1       0.485   3.198  19.696  0.00  0.00    +0.000 HD
ATOM     10  H   UNL     1       3.377   4.611  21.050  0.00  0.00    +0.000 HD
ENDBRANCH   1   6
BRANCH   1  11
ATOM     11  C   UNL     1       2.508   7.262  18.886  0.00  0.00    +0.000 A 
ATOM     12  C   UNL     1       2.515   8.133  17.782  0.00  0.00    +0.000 A 
ATOM     13  C   UNL     1       1.880   9.376  17.847  0.00  0.00    +0.000 A 
ATOM     14  C   UNL     1       1.254   9.785  19.024  0.00  0.00    +0.000 A 
ATOM     15 CL   UNL     1       0.535  11.355  19.045  0.00  0.00    +0.000 Cl
ATOM     16  C   UNL     1       1.245   8.937  20.134  0.00  0.00    +0.000 A 
ATOM     17 CL   UNL     1       0.525   9.390  21.638  0.00  0.00    +0.000 Cl
ATOM     18  C   UNL     1       1.859   7.678  20.060  0.00  0.00    +0.000 A 
ENDBRANCH   1  11
BRANCH   1  19
ATOM     19  C   UNL     1       3.929   5.797  17.473  0.00  0.00    +0.000 C 
BRANCH  19  20
ATOM     20  C   UNL     1       5.458   5.653  17.390  0.00  0.00    +0.000 C 
ATOM     21  C   UNL     1       6.117   7.030  17.221  0.00  0.00    +0.000 C 
ATOM     22  C   UNL     1       7.529   6.843  17.741  0.00  0.00    +0.000 C 
ATOM     23  C   UNL     1       7.366   5.903  18.924  0.00  0.00    +0.000 C 
ATOM     24  C   UNL     1       6.127   5.053  18.633  0.00  0.00    +0.000 C 
ENDBRANCH  19  20
ENDBRANCH   1  19
TORSDOF 4
ENDMDL
MODEL 3
REMARK VINA RESULT:      -8.4      0.782      1.573
REMARK  Name = 
REMARK  4 active torsions:
REMARK  status: ('A' for Active; 'I' for Inactive)
REMARK    1  A    between atoms: C_5  and  C_7
REMARK    2  A    between atoms: C_7  and  C_8
REMARK    3  A    between atoms: C_7  and  C_14
REMARK    4  A    between atoms: C_8  and  C_9
REMARK                            x       y       z     vdW  Elec       q    Type
REMARK                         _______ _______ _______ _____ _____    ______ ____
ROOT
ATOM      1  C   UNL     1       4.892   5.448  16.614  0.00  0.00    +0.000 C 
ENDROOT
BRANCH   1   6
ATOM      2  N   UNL     1       8.320   7.039  18.761  0.00  0.00    +0.000 N 
ATOM      3  C   UNL     1       7.703   5.881  19.087  0.00  0.00    +0.000 C 
ATOM      4  O   UNL     1       8.162   5.124  19.932  0.00  0.00    +0.000 OA
ATOM      5  N   UNL     1       6.552   5.582  18.411  0.00  0.00    +0.000 N 
ATOM      6  C   UNL     1       6.013   6.236  17.308  0.00  0.00    +0.000 C 
ATOM      7  O   UNL     1       6.416   7.326  16.905  0.00  0.00    +0.000 OA
ATOM      8  H   UNL     1       9.213   7.249  19.183  0.00  0.00    +0.000 HD
ATOM      9  H   UNL     1       8.045   7.537  17.920  0.00  0.00    +0.000 HD
ATOM     10  H   UNL     1       6.198   4.667  18.661  0.00  0.00    +0.000 HD
ENDBRANCH   1   6
BRANCH   1  11
ATOM     11  C   UNL     1       3.963   4.782  17.644  0.00  0.00    +0.000 A 
ATOM     12  C   UNL     1       3.634   3.417  17.570  0.00  0.00    +0.000 A 
ATOM     13  C   UNL     1       2.716   2.853  18.459  0.00  0.00    +0.000 A 
ATOM     14  C   UNL     1       2.084   3.646  19.416  0.00  0.00    +0.000 A 
ATOM     15 CL   UNL     1       0.923   2.888  20.445  0.00  0.00    +0.000 Cl
ATOM     16  C   UNL     1       2.390   5.007  19.498  0.00  0.00    +0.000 A 
ATOM     17 CL   UNL     1       1.621   6.061  20.631  0.00  0.00    +0.000 Cl
ATOM     18  C   UNL     1       3.333   5.568  18.625  0.00  0.00    +0.000 A 
ENDBRANCH   1  11
BRANCH   1  19
ATOM     19  C   UNL     1       5.422   4.327  15.689  0.00  0.00    +0.000 C 
BRANCH  19  20
ATOM     20  C   UNL     1       5.708   4.677  14.219  0.00  0.00    +0.000 C 
ATOM     21  C   UNL     1       7.209   4.923  14.010  0.00  0.00    +0.000 C 
ATOM     22  C   UNL     1       7.436   4.661  12.534  0.00  0.00    +0.000 C 
ATOM     23  C   UNL     1       6.516   3.492  12.220  0.00  0.00    +0.000 C 
ATOM     24  C   UNL     1       5.348   3.586  13.204  0.00  0.00    +0.000 C 
ENDBRANCH  19  20
ENDBRANCH   1  19
TORSDOF 4
ENDMDL
MODEL 4
REMARK VINA RESULT:      -8.4      1.217      2.026
REMARK  Name = 
REMARK  4 active torsions:
REMARK  status: ('A' for Active; 'I' for Inactive)
REMARK    1  A    between atoms: C_5  and  C_7
REMARK    2  A    between atoms: C_7  and  C_8
REMARK    3  A    between atoms: C_7  and  C_14
REMARK    4  A    between atoms: C_8  and  C_9
REMARK                            x       y       z     vdW  Elec       q    Type
REMARK                         _______ _______ _______ _____ _____    ______ ____
ROOT
ATOM      1  C   UNL     1       5.246   5.129  16.609  0.00  0.00    +0.000 C 
ENDROOT
BRANCH   1   6
ATOM      2  N   UNL     1       8.398   6.993  18.949  0.00  0.00    +0.000 N 
ATOM      3  C   UNL     1       7.777   7.597  17.912  0.00  0.00    +0.000 C 
ATOM      4  O   UNL     1       7.966   8.778  17.650  0.00  0.00    +0.000 OA
ATOM      5  N   UNL     1       6.907   6.835  17.182  0.00  0.00    +0.000 N 
ATOM      6  C   UNL     1       6.448   5.553  17.466  0.00  0.00    +0.000 C 
ATOM      7  O   UNL     1       6.935   4.839  18.340  0.00  0.00    +0.000 OA
ATOM      8  H   UNL     1       8.983   7.549  19.557  0.00  0.00    +0.000 HD
ATOM      9  H   UNL     1       8.068   6.090  19.278  0.00  0.00    +0.000 HD
ATOM     10  H   UNL     1       6.431   7.382  16.476  0.00  0.00    +0.000 HD
ENDBRANCH   1   6
BRANCH   1  11
ATOM     11  C   UNL     1       4.126   4.534  17.481  0.00  0.00    +0.000 A 
ATOM     12  C   UNL     1       3.547   3.286  17.191  0.00  0.00    +0.000 A 
ATOM     13  C   UNL     1       2.469   2.806  17.938  0.00  0.00    +0.000 A 
ATOM     14  C   UNL     1       1.927   3.576  18.967  0.00  0.00    +0.000 A 
ATOM     15 CL   UNL     1       0.563   2.939  19.812  0.00  0.00    +0.000 Cl
ATOM     16  C   UNL     1       2.482   4.824  19.263  0.00  0.00    +0.000 A 
ATOM     17 CL   UNL     1       1.842   5.852  20.495  0.00  0.00    +0.000 Cl
ATOM     18  C   UNL     1       3.582   5.294  18.531  0.00  0.00    +0.000 A 
ENDBRANCH   1  11
BRANCH   1  19
ATOM     19  C   UNL     1       5.604   4.067  15.543  0.00  0.00    +0.000 C 
BRANCH  19  20
ATOM     20  C   UNL     1       5.830   4.541  14.098  0.00  0.00    +0.000 C 
ATOM     21  C   UNL     1       7.292   4.963  13.894  0.00  0.00    +0.000 C 
ATOM     22  C   UNL     1       7.525   4.823  12.403  0.00  0.00    +0.000 C 
ATOM     23  C   UNL     1       6.734   3.583  12.019  0.00  0.00    +0.000 C 
ATOM     24  C   UNL     1       5.577   3.484  13.015  0.00  0.00    +0.000 C 
ENDBRANCH  19  20
ENDBRANCH   1  19
TORSDOF 4
ENDMDL
MODEL 5
REMARK VINA RESULT:      -8.4      1.046      1.418
REMARK  Name = 
REMARK  4 active torsions:
REMARK  status: ('A' for Active; 'I' for Inactive)
REMARK    1  A    between atoms: C_5  and  C_7
REMARK    2  A    between atoms: C_7  and  C_8
REMARK    3  A    between atoms: C_7  and  C_14
REMARK    4  A    between atoms: C_8  and  C_9
REMARK                            x       y       z     vdW  Elec       q    Type
REMARK                         _______ _______ _______ _____ _____    ______ ____
ROOT
ATOM      1  C   UNL     1       5.407   5.585  16.377  0.00  0.00    +0.000 C 
ENDROOT
BRANCH   1   6
ATOM      2  N   UNL     1       8.493   7.423  18.823  0.00  0.00    +0.000 N 
ATOM      3  C   UNL     1       7.812   8.079  17.858  0.00  0.00    +0.000 C 
ATOM      4  O   UNL     1       7.922   9.288  17.703  0.00  0.00    +0.000 OA
ATOM      5  N   UNL     1       6.974   7.333  17.076  0.00  0.00    +0.000 N 
ATOM      6  C   UNL     1       6.601   6.004  17.248  0.00  0.00    +0.000 C 
ATOM      7  O   UNL     1       7.151   5.245  18.043  0.00  0.00    +0.000 OA
ATOM      8  H   UNL     1       9.058   7.957  19.469  0.00  0.00    +0.000 HD
ATOM      9  H   UNL     1       8.228   6.475  19.072  0.00  0.00    +0.000 HD
ATOM     10  H   UNL     1       6.449   7.911  16.432  0.00  0.00    +0.000 HD
ENDBRANCH   1   6
BRANCH   1  11
ATOM     11  C   UNL     1       4.197   5.197  17.245  0.00  0.00    +0.000 A 
ATOM     12  C   UNL     1       3.492   6.152  17.999  0.00  0.00    +0.000 A 
ATOM     13  C   UNL     1       2.455   5.767  18.853  0.00  0.00    +0.000 A 
ATOM     14  C   UNL     1       2.124   4.419  18.994  0.00  0.00    +0.000 A 
ATOM     15 CL   UNL     1       0.866   4.016  20.106  0.00  0.00    +0.000 Cl
ATOM     16  C   UNL     1       2.820   3.455  18.260  0.00  0.00    +0.000 A 
ATOM     17 CL   UNL     1       2.494   1.765  18.411  0.00  0.00    +0.000 Cl
ATOM     18  C   UNL     1       3.842   3.844  17.382  0.00  0.00    +0.000 A 
ENDBRANCH   1  11
BRANCH   1  19
ATOM     19  C   UNL     1       5.717   4.376  15.463  0.00  0.00    +0.000 C 
BRANCH  19  20
ATOM     20  C   UNL     1       5.846   4.626  13.952  0.00  0.00    +0.000 C 
ATOM     21  C   UNL     1       7.309   4.911  13.579  0.00  0.00    +0.000 C 
ATOM     22  C   UNL     1       7.406   4.549  12.110  0.00  0.00    +0.000 C 
ATOM     23  C   UNL     1       6.513   3.326  11.971  0.00  0.00    +0.000 C 
ATOM     24  C   UNL     1       5.440   3.450  13.056  0.00  0.00    +0.000 C 
ENDBRANCH  19  20
ENDBRANCH   1  19
TORSDOF 4
ENDMDL
MODEL 6
REMARK VINA RESULT:      -8.4      3.486      5.475
REMARK  Name = 
REMARK  4 active torsions:
REMARK  status: ('A' for Active; 'I' for Inactive)
REMARK    1  A    between atoms: C_5  and  C_7
REMARK    2  A    between atoms: C_7  and  C_8
REMARK    3  A    between atoms: C_7  and  C_14
REMARK    4  A    between atoms: C_8  and  C_9
REMARK                            x       y       z     vdW  Elec       q    Type
REMARK                         _______ _______ _______ _____ _____    ______ ____
ROOT
ATOM      1  C   UNL     1       3.534   5.747  18.145  0.00  0.00    +0.000 C 
ENDROOT
BRANCH   1   6
ATOM      2  N   UNL     1       7.451   6.505  16.422  0.00  0.00    +0.000 N 
ATOM      3  C   UNL     1       7.176   6.626  17.740  0.00  0.00    +0.000 C 
ATOM      4  O   UNL     1       8.058   6.823  18.566  0.00  0.00    +0.000 OA
ATOM      5  N   UNL     1       5.867   6.495  18.113  0.00  0.00    +0.000 N 
ATOM      6  C   UNL     1       4.791   6.087  17.330  0.00  0.00    +0.000 C 
ATOM      7  O   UNL     1       4.849   5.977  16.107  0.00  0.00    +0.000 OA
ATOM      8  H   UNL     1       8.417   6.517  16.125  0.00  0.00    +0.000 HD
ATOM      9  H   UNL     1       6.748   6.132  15.792  0.00  0.00    +0.000 HD
ATOM     10  H   UNL     1       5.759   6.523  19.119  0.00  0.00    +0.000 HD
ENDBRANCH   1   6
BRANCH   1  11
ATOM     11  C   UNL     1       2.723   7.014  18.468  0.00  0.00    +0.000 A 
ATOM     12  C   UNL     1       2.582   8.058  17.537  0.00  0.00    +0.000 A 
ATOM     13  C   UNL     1       1.921   9.240  17.882  0.00  0.00    +0.000 A 
ATOM     14  C   UNL     1       1.417   9.414  19.171  0.00  0.00    +0.000 A 
ATOM     15 CL   UNL     1       0.659  10.921  19.537  0.00  0.00    +0.000 Cl
ATOM     16  C   UNL     1       1.557   8.391  20.112  0.00  0.00    +0.000 A 
ATOM     17 CL   UNL     1       0.995   8.548  21.739  0.00  0.00    +0.000 Cl
ATOM     18  C   UNL     1       2.196   7.194  19.758  0.00  0.00    +0.000 A 
ENDBRANCH   1  11
BRANCH   1  19
ATOM     19  C   UNL     1       3.852   5.054  19.491  0.00  0.00    +0.000 C 
BRANCH  19  20
ATOM     20  C   UNL     1       3.104   3.755  19.830  0.00  0.00    +0.000 C 
ATOM     21  C   UNL     1       2.375   3.891  21.175  0.00  0.00    +0.000 C 
ATOM     22  C   UNL     1       1.257   2.869  21.108  0.00  0.00    +0.000 C 
ATOM     23  C   UNL     1       0.795   2.921  19.661  0.00  0.00    +0.000 C 
ATOM     24  C   UNL     1       2.009   3.350  18.835  0.00  0.00    +0.000 C 
ENDBRANCH  19  20
ENDBRANCH   1  19
TORSDOF 4
ENDMDL
MODEL 7
REMARK VINA RESULT:      -8.4      3.962      5.293
REMARK  Name = 
REMARK  4 active torsions:
REMARK  status: ('A' for Active; 'I' for Inactive)
REMARK    1  A    between atoms: C_5  and  C_7
REMARK    2  A    between atoms: C_7  and  C_8
REMARK    3  A    between atoms: C_7  and  C_14
REMARK    4  A    between atoms: C_8  and  C_9
REMARK                            x       y       z     vdW  Elec       q    Type
REMARK                         _______ _______ _______ _____ _____    ______ ____
ROOT
ATOM      1  C   UNL     1       3.683   5.685  18.216  0.00  0.00    +0.000 C 
ENDROOT
BRANCH   1   6
ATOM      2  N   UNL     1       1.725   1.805  18.238  0.00  0.00    +0.000 N 
ATOM      3  C   UNL     1       3.064   1.969  18.322  0.00  0.00    +0.000 C 
ATOM      4  O   UNL     1       3.814   1.029  18.555  0.00  0.00    +0.000 OA
ATOM      5  N   UNL     1       3.543   3.239  18.158  0.00  0.00    +0.000 N 
ATOM      6  C   UNL     1       2.817   4.423  18.079  0.00  0.00    +0.000 C 
ATOM      7  O   UNL     1       1.595   4.459  17.944  0.00  0.00    +0.000 OA
ATOM      8  H   UNL     1       1.334   0.894  18.435  0.00  0.00    +0.000 HD
ATOM      9  H   UNL     1       1.115   2.616  18.261  0.00  0.00    +0.000 HD
ATOM     10  H   UNL     1       4.542   3.286  18.311  0.00  0.00    +0.000 HD
ENDBRANCH   1   6
BRANCH   1  11
ATOM     11  C   UNL     1       2.817   6.924  18.502  0.00  0.00    +0.000 A 
ATOM     12  C   UNL     1       2.625   7.930  17.539  0.00  0.00    +0.000 A 
ATOM     13  C   UNL     1       1.912   9.091  17.848  0.00  0.00    +0.000 A 
ATOM     14  C   UNL     1       1.406   9.285  19.134  0.00  0.00    +0.000 A 
ATOM     15 CL   UNL     1       0.581  10.767  19.455  0.00  0.00    +0.000 Cl
ATOM     16  C   UNL     1       1.595   8.300  20.107  0.00  0.00    +0.000 A 
ATOM     17 CL   UNL     1       1.032   8.485  21.730  0.00  0.00    +0.000 Cl
ATOM     18  C   UNL     1       2.286   7.122  19.788  0.00  0.00    +0.000 A 
ENDBRANCH   1  11
BRANCH   1  19
ATOM     19  C   UNL     1       4.513   5.992  16.948  0.00  0.00    +0.000 C 
BRANCH  19  20
ATOM     20  C   UNL     1       6.045   6.010  17.073  0.00  0.00    +0.000 C 
ATOM     21  C   UNL     1       6.540   7.430  17.387  0.00  0.00    +0.000 C 
ATOM     22  C   UNL     1       7.886   7.225  18.054  0.00  0.00    +0.000 C 
ATOM     23  C   UNL     1       7.693   5.976  18.900  0.00  0.00    +0.000 C 
ATOM     24  C   UNL     1       6.620   5.141  18.198  0.00  0.00    +0.000 C 
ENDBRANCH  19  20
ENDBRANCH   1  19
TORSDOF 4
ENDMDL
MODEL 8
REMARK VINA RESULT:      -8.3      4.483      5.962
REMARK  Name = 
REMARK  4 active torsions:
REMARK  status: ('A' for Active; 'I' for Inactive)
REMARK    1  A    between atoms: C_5  and  C_7
REMARK    2  A    between atoms: C_7  and  C_8
REMARK    3  A    between atoms: C_7  and  C_14
REMARK    4  A    between atoms: C_8  and  C_9
REMARK                            x       y       z     vdW  Elec       q    Type
REMARK                         _______ _______ _______ _____ _____    ______ ____
ROOT
ATOM      1  C   UNL     1       3.173   6.038  19.329  0.00  0.00    +0.000 C 
ENDROOT
BRANCH   1   6
ATOM      2  N   UNL     1       0.840   2.652  20.736  0.00  0.00    +0.000 N 
ATOM      3  C   UNL     1       0.877   3.052  19.445  0.00  0.00    +0.000 C 
ATOM      4  O   UNL     1       0.360   2.392  18.552  0.00  0.00    +0.000 OA
ATOM      5  N   UNL     1       1.540   4.218  19.178  0.00  0.00    +0.000 N 
ATOM      6  C   UNL     1       2.329   4.970  20.042  0.00  0.00    +0.000 C 
ATOM      7  O   UNL     1       2.373   4.779  21.256  0.00  0.00    +0.000 OA
ATOM      8  H   UNL     1       0.428   1.755  20.955  0.00  0.00    +0.000 HD
ATOM      9  H   UNL     1       1.449   3.092  21.418  0.00  0.00    +0.000 HD
ATOM     10  H   UNL     1       1.585   4.404  18.184  0.00  0.00    +0.000 HD
ENDBRANCH   1   6
BRANCH   1  11
ATOM     11  C   UNL     1       2.384   7.348  19.161  0.00  0.00    +0.000 A 
ATOM     12  C   UNL     1       2.403   8.073  17.957  0.00  0.00    +0.000 A 
ATOM     13  C   UNL     1       1.756   9.307  17.854  0.00  0.00    +0.000 A 
ATOM     14  C   UNL     1       1.105   9.855  18.959  0.00  0.00    +0.000 A 
ATOM     15 CL   UNL     1       0.373  11.407  18.769  0.00  0.00    +0.000 Cl
ATOM     16  C   UNL     1       1.084   9.153  20.167  0.00  0.00    +0.000 A 
ATOM     17 CL   UNL     1       0.333   9.785  21.589  0.00  0.00    +0.000 Cl
ATOM     18  C   UNL     1       1.710   7.902  20.263  0.00  0.00    +0.000 A 
ENDBRANCH   1  11
BRANCH   1  19
ATOM     19  C   UNL     1       3.638   5.602  17.920  0.00  0.00    +0.000 C 
BRANCH  19  20
ATOM     20  C   UNL     1       5.144   5.407  17.683  0.00  0.00    +0.000 C 
ATOM     21  C   UNL     1       5.781   6.712  17.184  0.00  0.00    +0.000 C 
ATOM     22  C   UNL     1       7.246   6.588  17.556  0.00  0.00    +0.000 C 
ATOM     23  C   UNL     1       7.226   5.886  18.905  0.00  0.00    +0.000 C 
ATOM     24  C   UNL     1       5.959   5.029  18.926  0.00  0.00    +0.000 C 
ENDBRANCH  19  20
ENDBRANCH   1  19
TORSDOF 4
ENDMDL
MODEL 9
REMARK VINA RESULT:      -8.3      3.904      5.404
REMARK  Name = 
REMARK  4 active torsions:
REMARK  status: ('A' for Active; 'I' for Inactive)
REMARK    1  A    between atoms: C_5  and  C_7
REMARK    2  A    between atoms: C_7  and  C_8
REMARK    3  A    between atoms: C_7  and  C_14
REMARK    4  A    between atoms: C_8  and  C_9
REMARK                            x       y       z     vdW  Elec       q    Type
REMARK                         _______ _______ _______ _____ _____    ______ ____
ROOT
ATOM      1  C   UNL     1       3.235   6.125  18.929  0.00  0.00    +0.000 C 
ENDROOT
BRANCH   1   6
ATOM      2  N   UNL     1       0.892   2.810  20.481  0.00  0.00    +0.000 N 
ATOM      3  C   UNL     1       1.903   3.395  21.159  0.00  0.00    +0.000 C 
ATOM      4  O   UNL     1       2.137   3.118  22.329  0.00  0.00    +0.000 OA
ATOM      5  N   UNL     1       2.641   4.330  20.487  0.00  0.00    +0.000 N 
ATOM      6  C   UNL     1       2.384   4.883  19.236  0.00  0.00    +0.000 C 
ATOM      7  O   UNL     1       1.536   4.443  18.463  0.00  0.00    +0.000 OA
ATOM      8  H   UNL     1       0.278   2.176  20.973  0.00  0.00    +0.000 HD
ATOM      9  H   UNL     1       0.582   3.204  19.597  0.00  0.00    +0.000 HD
ATOM     10  H   UNL     1       3.325   4.771  21.087  0.00  0.00    +0.000 HD
ENDBRANCH   1   6
BRANCH   1  11
ATOM     11  C   UNL     1       2.386   7.407  18.990  0.00  0.00    +0.000 A 
ATOM     12  C   UNL     1       2.271   8.271  17.887  0.00  0.00    +0.000 A 
ATOM     13  C   UNL     1       1.573   9.477  17.991  0.00  0.00    +0.000 A 
ATOM     14  C   UNL     1       1.004   9.858  19.206  0.00  0.00    +0.000 A 
ATOM     15 CL   UNL     1       0.201  11.385  19.271  0.00  0.00    +0.000 Cl
ATOM     16  C   UNL     1       1.117   9.017  20.317  0.00  0.00    +0.000 A 
ATOM     17 CL   UNL     1       0.474   9.439  21.864  0.00  0.00    +0.000 Cl
ATOM     18  C   UNL     1       1.794   7.794  20.205  0.00  0.00    +0.000 A 
ENDBRANCH   1  11
BRANCH   1  19
ATOM     19  C   UNL     1       3.891   6.081  17.530  0.00  0.00    +0.000 C 
BRANCH  19  20
ATOM     20  C   UNL     1       4.877   4.940  17.229  0.00  0.00    +0.000 C 
ATOM     21  C   UNL     1       5.451   5.087  15.812  0.00  0.00    +0.000 C 
ATOM     22  C   UNL     1       6.767   4.336  15.854  0.00  0.00    +0.000 C 
ATOM     23  C   UNL     1       7.319   4.634  17.240  0.00  0.00    +0.000 C 
ATOM     24  C   UNL     1       6.108   4.881  18.142  0.00  0.00    +0.000 C 
ENDBRANCH  19  20
ENDBRANCH   1  19
TORSDOF 4
ENDMDL
