MODEL 1
REMARK VINA RESULT:      -8.2      0.000      0.000
REMARK  Name = 
REMARK  6 active torsions:
REMARK  status: ('A' for Active; 'I' for Inactive)
REMARK    1  A    between atoms: C_1  and  S_2
REMARK    2  A    between atoms: S_2  and  C_3
REMARK    3  A    between atoms: C_5  and  C_6
REMARK    4  A    between atoms: C_10  and  S_11
REMARK    5  A    between atoms: S_11  and  C_14
REMARK    6  A    between atoms: C_18  and  C_19
REMARK                            x       y       z     vdW  Elec       q    Type
REMARK                         _______ _______ _______ _____ _____    ______ ____
ROOT
ATOM      1  S   UNL     1       3.443   3.301  17.710  0.00  0.00    +0.000 S 
ATOM      2  O   UNL     1       2.457   3.258  16.649  0.00  0.00    +0.000 OA
ATOM      3  O   UNL     1       3.936   2.086  18.332  0.00  0.00    +0.000 OA
ENDROOT
BRANCH   1   4
ATOM      4  C   UNL     1       2.824   4.382  18.953  0.00  0.00    +0.000 A 
ATOM      5  C   UNL     1       2.522   3.862  20.213  0.00  0.00    +0.000 A 
ATOM      6  C   UNL     1       1.985   4.700  21.181  0.00  0.00    +0.000 A 
ATOM      7  C   UNL     1       1.749   6.046  20.885  0.00  0.00    +0.000 A 
ATOM      8  C   UNL     1       2.044   6.595  19.620  0.00  0.00    +0.000 A 
ATOM      9  C   UNL     1       2.580   5.729  18.651  0.00  0.00    +0.000 A 
BRANCH   8  10
ATOM     10  C   UNL     1       1.784   8.026  19.328  0.00  0.00    +0.000 A 
ATOM     11  C   UNL     1       1.126   8.855  20.256  0.00  0.00    +0.000 A 
ATOM     12  C   UNL     1       0.848  10.196  19.974  0.00  0.00    +0.000 A 
ATOM     13  C   UNL     1       1.239  10.747  18.759  0.00  0.00    +0.000 A 
ATOM     14  C   UNL     1       1.908   9.959  17.830  0.00  0.00    +0.000 A 
ATOM     15  C   UNL     1       2.172   8.613  18.110  0.00  0.00    +0.000 A 
ENDBRANCH   8  10
ENDBRANCH   1   4
BRANCH   1  20
ATOM     16  C   UNL     1       5.935   4.577  17.541  0.00  0.00    +0.000 A 
ATOM     17  S   UNL     1       7.136   4.964  16.366  0.00  0.00    +0.000 S 
ATOM     18  C   UNL     1       6.239   4.288  15.078  0.00  0.00    +0.000 A 
ATOM     19  C   UNL     1       5.052   3.761  15.536  0.00  0.00    +0.000 A 
ATOM     20  C   UNL     1       4.861   3.941  16.946  0.00  0.00    +0.000 A 
BRANCH  18  21
ATOM     21  C   UNL     1       6.721   4.312  13.705  0.00  0.00    +0.000 C 
ATOM     22  N   UNL     1       7.529   5.238  13.288  0.00  0.00    +0.000 NA
ATOM     23  N   UNL     1       6.378   3.383  12.768  0.00  0.00    +0.000 N 
ATOM     24  H   UNL     1       7.721   5.893  14.055  0.00  0.00    +0.000 HD
ATOM     25  H   UNL     1       6.205   2.441  13.091  0.00  0.00    +0.000 HD
ATOM     26  H   UNL     1       6.986   3.429  11.958  0.00  0.00    +0.000 HD
ENDBRANCH  18  21
BRANCH  16  28
ATOM     27  C   UNL     1       7.774   5.796  19.255  0.00  0.00    +0.000 C 
ATOM     28  S   UNL     1       6.127   5.062  19.224  0.00  0.00    +0.000 S 
ENDBRANCH  16  28
ENDBRANCH   1  20
TORSDOF 5
ENDMDL
MODEL 2
REMARK VINA RESULT:      -7.7      5.963      8.833
REMARK  Name = 
REMARK  6 active torsions:
REMARK  status: ('A' for Active; 'I' for Inactive)
REMARK    1  A    between atoms: C_1  and  S_2
REMARK    2  A    between atoms: S_2  and  C_3
REMARK    3  A    between atoms: C_5  and  C_6
REMARK    4  A    between atoms: C_10  and  S_11
REMARK    5  A    between atoms: S_11  and  C_14
REMARK    6  A    between atoms: C_18  and  C_19
REMARK                            x       y       z     vdW  Elec       q    Type
REMARK                         _______ _______ _______ _____ _____    ______ ____
ROOT
ATOM      1  S   UNL     1       0.507   9.970  21.264  0.00  0.00    +0.000 S 
ATOM      2  O   UNL     1       1.470  10.974  21.670  0.00  0.00    +0.000 OA
ATOM      3  O   UNL     1      -0.207   9.170  22.243  0.00  0.00    +0.000 OA
ENDROOT
BRANCH   1   4
ATOM      4  C   UNL     1       1.316   8.905  20.120  0.00  0.00    +0.000 A 
ATOM      5  C   UNL     1       1.608   9.382  18.841  0.00  0.00    +0.000 A 
ATOM      6  C   UNL     1       2.200   8.530  17.919  0.00  0.00    +0.000 A 
ATOM      7  C   UNL     1       2.491   7.210  18.276  0.00  0.00    +0.000 A 
ATOM      8  C   UNL     1       2.206   6.704  19.560  0.00  0.00    +0.000 A 
ATOM      9  C   UNL     1       1.600   7.580  20.478  0.00  0.00    +0.000 A 
BRANCH   8  10
ATOM     10  C   UNL     1       2.524   5.300  19.917  0.00  0.00    +0.000 A 
ATOM     11  C   UNL     1       1.725   4.576  20.822  0.00  0.00    +0.000 A 
ATOM     12  C   UNL     1       2.037   3.263  21.189  0.00  0.00    +0.000 A 
ATOM     13  C   UNL     1       3.150   2.634  20.644  0.00  0.00    +0.000 A 
ATOM     14  C   UNL     1       3.948   3.316  19.731  0.00  0.00    +0.000 A 
ATOM     15  C   UNL     1       3.640   4.635  19.378  0.00  0.00    +0.000 A 
ENDBRANCH   8  10
ENDBRANCH   1   4
BRANCH   1  20
ATOM     16  C   UNL     1      -1.468  11.947  21.038  0.00  0.00    +0.000 A 
ATOM     17  S   UNL     1      -2.583  12.563  19.876  0.00  0.00    +0.000 S 
ATOM     18  C   UNL     1      -2.131  11.422  18.687  0.00  0.00    +0.000 A 
ATOM     19  C   UNL     1      -1.135  10.596  19.159  0.00  0.00    +0.000 A 
ATOM     20  C   UNL     1      -0.764  10.878  20.515  0.00  0.00    +0.000 A 
BRANCH  18  21
ATOM     21  C   UNL     1      -2.763  11.381  17.376  0.00  0.00    +0.000 C 
ATOM     22  N   UNL     1      -3.941  11.888  17.177  0.00  0.00    +0.000 NA
ATOM     23  N   UNL     1      -2.182  10.825  16.275  0.00  0.00    +0.000 N 
ATOM     24  H   UNL     1      -4.300  12.271  18.060  0.00  0.00    +0.000 HD
ATOM     25  H   UNL     1      -1.175  10.876  16.206  0.00  0.00    +0.000 HD
ATOM     26  H   UNL     1      -2.662  11.098  15.424  0.00  0.00    +0.000 HD
ENDBRANCH  18  21
BRANCH  16  28
ATOM     27  C   UNL     1      -2.994  12.160  23.369  0.00  0.00    +0.000 C 
ATOM     28  S   UNL     1      -1.397  12.616  22.666  0.00  0.00    +0.000 S 
ENDBRANCH  16  28
ENDBRANCH   1  20
TORSDOF 5
ENDMDL
MODEL 3
REMARK VINA RESULT:      -7.6      3.120      7.083
REMARK  Name = 
REMARK  6 active torsions:
REMARK  status: ('A' for Active; 'I' for Inactive)
REMARK    1  A    between atoms: C_1  and  S_2
REMARK    2  A    between atoms: S_2  and  C_3
REMARK    3  A    between atoms: C_5  and  C_6
REMARK    4  A    between atoms: C_10  and  S_11
REMARK    5  A    between atoms: S_11  and  C_14
REMARK    6  A    between atoms: C_18  and  C_19
REMARK                            x       y       z     vdW  Elec       q    Type
REMARK                         _______ _______ _______ _____ _____    ______ ____
ROOT
ATOM      1  S   UNL     1       4.239   3.768  18.825  0.00  0.00    +0.000 S 
ATOM      2  O   UNL     1       4.826   3.183  20.014  0.00  0.00    +0.000 OA
ATOM      3  O   UNL     1       3.390   2.989  17.941  0.00  0.00    +0.000 OA
ENDROOT
BRANCH   1   4
ATOM      4  C   UNL     1       5.551   4.480  17.893  0.00  0.00    +0.000 A 
ATOM      5  C   UNL     1       6.450   5.335  18.534  0.00  0.00    +0.000 A 
ATOM      6  C   UNL     1       7.456   5.939  17.793  0.00  0.00    +0.000 A 
ATOM      7  C   UNL     1       7.556   5.692  16.420  0.00  0.00    +0.000 A 
ATOM      8  C   UNL     1       6.661   4.834  15.750  0.00  0.00    +0.000 A 
ATOM      9  C   UNL     1       5.644   4.237  16.516  0.00  0.00    +0.000 A 
BRANCH   8  10
ATOM     10  C   UNL     1       6.785   4.587  14.293  0.00  0.00    +0.000 A 
ATOM     11  C   UNL     1       7.684   5.325  13.499  0.00  0.00    +0.000 A 
ATOM     12  C   UNL     1       7.782   5.121  12.119  0.00  0.00    +0.000 A 
ATOM     13  C   UNL     1       6.993   4.158  11.500  0.00  0.00    +0.000 A 
ATOM     14  C   UNL     1       6.110   3.399  12.261  0.00  0.00    +0.000 A 
ATOM     15  C   UNL     1       6.004   3.616  13.639  0.00  0.00    +0.000 A 
ENDBRANCH   8  10
ENDBRANCH   1   4
BRANCH   1  20
ATOM     16  C   UNL     1       2.342   4.897  20.553  0.00  0.00    +0.000 A 
ATOM     17  S   UNL     1       1.498   6.382  20.788  0.00  0.00    +0.000 S 
ATOM     18  C   UNL     1       2.207   7.119  19.419  0.00  0.00    +0.000 A 
ATOM     19  C   UNL     1       3.084   6.256  18.801  0.00  0.00    +0.000 A 
ATOM     20  C   UNL     1       3.152   4.971  19.435  0.00  0.00    +0.000 A 
BRANCH  18  21
ATOM     21  C   UNL     1       1.872   8.476  19.012  0.00  0.00    +0.000 C 
ATOM     22  N   UNL     1       1.183   9.262  19.781  0.00  0.00    +0.000 NA
ATOM     23  N   UNL     1       2.251   9.023  17.821  0.00  0.00    +0.000 N 
ATOM     24  H   UNL     1       0.936   8.763  20.644  0.00  0.00    +0.000 HD
ATOM     25  H   UNL     1       3.133   8.718  17.431  0.00  0.00    +0.000 HD
ATOM     26  H   UNL     1       2.133  10.030  17.820  0.00  0.00    +0.000 HD
ENDBRANCH  18  21
BRANCH  16  28
ATOM     27  C   UNL     1       1.185   2.354  20.541  0.00  0.00    +0.000 C 
ATOM     28  S   UNL     1       2.054   3.517  21.610  0.00  0.00    +0.000 S 
ENDBRANCH  16  28
ENDBRANCH   1  20
TORSDOF 5
ENDMDL
MODEL 4
REMARK VINA RESULT:      -7.6      5.977      8.864
REMARK  Name = 
REMARK  6 active torsions:
REMARK  status: ('A' for Active; 'I' for Inactive)
REMARK    1  A    between atoms: C_1  and  S_2
REMARK    2  A    between atoms: S_2  and  C_3
REMARK    3  A    between atoms: C_5  and  C_6
REMARK    4  A    between atoms: C_10  and  S_11
REMARK    5  A    between atoms: S_11  and  C_14
REMARK    6  A    between atoms: C_18  and  C_19
REMARK                            x       y       z     vdW  Elec       q    Type
REMARK                         _______ _______ _______ _____ _____    ______ ____
ROOT
ATOM      1  S   UNL     1       0.419  10.018  21.262  0.00  0.00    +0.000 S 
ATOM      2  O   UNL     1       1.351  11.041  21.694  0.00  0.00    +0.000 OA
ATOM      3  O   UNL     1      -0.286   9.186  22.220  0.00  0.00    +0.000 OA
ENDROOT
BRANCH   1   4
ATOM      4  C   UNL     1       1.268   8.992  20.111  0.00  0.00    +0.000 A 
ATOM      5  C   UNL     1       1.569   9.499  18.846  0.00  0.00    +0.000 A 
ATOM      6  C   UNL     1       2.193   8.677  17.918  0.00  0.00    +0.000 A 
ATOM      7  C   UNL     1       2.507   7.357  18.255  0.00  0.00    +0.000 A 
ATOM      8  C   UNL     1       2.213   6.821  19.525  0.00  0.00    +0.000 A 
ATOM      9  C   UNL     1       1.574   7.667  20.449  0.00  0.00    +0.000 A 
BRANCH   8  10
ATOM     10  C   UNL     1       2.554   5.417  19.861  0.00  0.00    +0.000 A 
ATOM     11  C   UNL     1       3.424   4.662  19.052  0.00  0.00    +0.000 A 
ATOM     12  C   UNL     1       3.724   3.328  19.343  0.00  0.00    +0.000 A 
ATOM     13  C   UNL     1       3.173   2.720  20.466  0.00  0.00    +0.000 A 
ATOM     14  C   UNL     1       2.326   3.446  21.295  0.00  0.00    +0.000 A 
ATOM     15  C   UNL     1       2.017   4.777  20.992  0.00  0.00    +0.000 A 
ENDBRANCH   8  10
ENDBRANCH   1   4
BRANCH   1  20
ATOM     16  C   UNL     1      -1.623  11.929  21.052  0.00  0.00    +0.000 A 
ATOM     17  S   UNL     1      -2.731  12.544  19.883  0.00  0.00    +0.000 S 
ATOM     18  C   UNL     1      -2.207  11.464  18.668  0.00  0.00    +0.000 A 
ATOM     19  C   UNL     1      -1.193  10.659  19.137  0.00  0.00    +0.000 A 
ATOM     20  C   UNL     1      -0.866  10.906  20.511  0.00  0.00    +0.000 A 
BRANCH  18  21
ATOM     21  C   UNL     1      -2.804  11.446  17.340  0.00  0.00    +0.000 C 
ATOM     22  N   UNL     1      -2.145  11.017  16.308  0.00  0.00    +0.000 NA
ATOM     23  N   UNL     1      -4.077  11.861  17.078  0.00  0.00    +0.000 N 
ATOM     24  H   UNL     1      -1.201  10.738  16.599  0.00  0.00    +0.000 HD
ATOM     25  H   UNL     1      -4.767  11.726  17.805  0.00  0.00    +0.000 HD
ATOM     26  H   UNL     1      -4.386  11.556  16.162  0.00  0.00    +0.000 HD
ENDBRANCH  18  21
BRANCH  16  28
ATOM     27  C   UNL     1      -0.559  13.999  22.598  0.00  0.00    +0.000 C 
ATOM     28  S   UNL     1      -1.618  12.543  22.703  0.00  0.00    +0.000 S 
ENDBRANCH  16  28
ENDBRANCH   1  20
TORSDOF 5
ENDMDL
MODEL 5
REMARK VINA RESULT:      -7.5      2.429      3.900
REMARK  Name = 
REMARK  6 active torsions:
REMARK  status: ('A' for Active; 'I' for Inactive)
REMARK    1  A    between atoms: C_1  and  S_2
REMARK    2  A    between atoms: S_2  and  C_3
REMARK    3  A    between atoms: C_5  and  C_6
REMARK    4  A    between atoms: C_10  and  S_11
REMARK    5  A    between atoms: S_11  and  C_14
REMARK    6  A    between atoms: C_18  and  C_19
REMARK                            x       y       z     vdW  Elec       q    Type
REMARK                         _______ _______ _______ _____ _____    ______ ____
ROOT
ATOM      1  S   UNL     1       2.425   5.561  19.258  0.00  0.00    +0.000 S 
ATOM      2  O   UNL     1       1.612   4.793  18.336  0.00  0.00    +0.000 OA
ATOM      3  O   UNL     1       2.468   5.241  20.673  0.00  0.00    +0.000 OA
ENDROOT
BRANCH   1   4
ATOM      4  C   UNL     1       1.984   7.253  19.056  0.00  0.00    +0.000 A 
ATOM      5  C   UNL     1       2.358   7.916  17.886  0.00  0.00    +0.000 A 
ATOM      6  C   UNL     1       2.056   9.263  17.744  0.00  0.00    +0.000 A 
ATOM      7  C   UNL     1       1.390   9.940  18.770  0.00  0.00    +0.000 A 
ATOM      8  C   UNL     1       1.002   9.294  19.962  0.00  0.00    +0.000 A 
ATOM      9  C   UNL     1       1.323   7.931  20.090  0.00  0.00    +0.000 A 
BRANCH   8  10
ATOM     10  C   UNL     1       0.296  10.033  21.037  0.00  0.00    +0.000 A 
ATOM     11  C   UNL     1      -0.126   9.385  22.214  0.00  0.00    +0.000 A 
ATOM     12  C   UNL     1      -0.822  10.066  23.217  0.00  0.00    +0.000 A 
ATOM     13  C   UNL     1      -1.097  11.422  23.075  0.00  0.00    +0.000 A 
ATOM     14  C   UNL     1      -0.676  12.094  21.933  0.00  0.00    +0.000 A 
ATOM     15  C   UNL     1       0.007  11.405  20.924  0.00  0.00    +0.000 A 
ENDBRANCH   8  10
ENDBRANCH   1   4
BRANCH   1  20
ATOM     16  C   UNL     1       4.779   4.084  18.882  0.00  0.00    +0.000 A 
ATOM     17  S   UNL     1       6.330   4.249  18.147  0.00  0.00    +0.000 S 
ATOM     18  C   UNL     1       6.037   5.857  17.651  0.00  0.00    +0.000 A 
ATOM     19  C   UNL     1       4.773   6.258  18.022  0.00  0.00    +0.000 A 
ATOM     20  C   UNL     1       4.052   5.253  18.747  0.00  0.00    +0.000 A 
BRANCH  18  21
ATOM     21  C   UNL     1       7.038   6.642  16.943  0.00  0.00    +0.000 C 
ATOM     22  N   UNL     1       7.658   6.169  15.906  0.00  0.00    +0.000 NA
ATOM     23  N   UNL     1       7.394   7.909  17.299  0.00  0.00    +0.000 N 
ATOM     24  H   UNL     1       7.334   5.213  15.722  0.00  0.00    +0.000 HD
ATOM     25  H   UNL     1       6.679   8.493  17.710  0.00  0.00    +0.000 HD
ATOM     26  H   UNL     1       7.919   8.369  16.562  0.00  0.00    +0.000 HD
ENDBRANCH  18  21
BRANCH  16  28
ATOM     27  C   UNL     1       3.420   1.674  18.497  0.00  0.00    +0.000 C 
ATOM     28  S   UNL     1       4.336   2.609  19.737  0.00  0.00    +0.000 S 
ENDBRANCH  16  28
ENDBRANCH   1  20
TORSDOF 5
ENDMDL
MODEL 6
REMARK VINA RESULT:      -7.4      2.291      3.839
REMARK  Name = 
REMARK  6 active torsions:
REMARK  status: ('A' for Active; 'I' for Inactive)
REMARK    1  A    between atoms: C_1  and  S_2
REMARK    2  A    between atoms: S_2  and  C_3
REMARK    3  A    between atoms: C_5  and  C_6
REMARK    4  A    between atoms: C_10  and  S_11
REMARK    5  A    between atoms: S_11  and  C_14
REMARK    6  A    between atoms: C_18  and  C_19
REMARK                            x       y       z     vdW  Elec       q    Type
REMARK                         _______ _______ _______ _____ _____    ______ ____
ROOT
ATOM      1  S   UNL     1       2.760   5.529  19.382  0.00  0.00    +0.000 S 
ATOM      2  O   UNL     1       1.625   4.648  19.189  0.00  0.00    +0.000 OA
ATOM      3  O   UNL     1       3.555   5.481  20.595  0.00  0.00    +0.000 OA
ENDROOT
BRANCH   1   4
ATOM      4  C   UNL     1       2.192   7.174  19.122  0.00  0.00    +0.000 A 
ATOM      5  C   UNL     1       2.517   7.823  17.930  0.00  0.00    +0.000 A 
ATOM      6  C   UNL     1       2.114   9.138  17.742  0.00  0.00    +0.000 A 
ATOM      7  C   UNL     1       1.396   9.797  18.745  0.00  0.00    +0.000 A 
ATOM      8  C   UNL     1       1.056   9.165  19.958  0.00  0.00    +0.000 A 
ATOM      9  C   UNL     1       1.479   7.835  20.132  0.00  0.00    +0.000 A 
BRANCH   8  10
ATOM     10  C   UNL     1       0.294   9.884  21.008  0.00  0.00    +0.000 A 
ATOM     11  C   UNL     1      -0.163  11.200  20.808  0.00  0.00    +0.000 A 
ATOM     12  C   UNL     1      -0.852  11.897  21.806  0.00  0.00    +0.000 A 
ATOM     13  C   UNL     1      -1.117  11.284  23.026  0.00  0.00    +0.000 A 
ATOM     14  C   UNL     1      -0.696   9.977  23.245  0.00  0.00    +0.000 A 
ATOM     15  C   UNL     1       0.006   9.289  22.250  0.00  0.00    +0.000 A 
ENDBRANCH   8  10
ENDBRANCH   1   4
BRANCH   1  20
ATOM     16  C   UNL     1       3.841   3.911  17.362  0.00  0.00    +0.000 A 
ATOM     17  S   UNL     1       5.160   3.901  16.252  0.00  0.00    +0.000 S 
ATOM     18  C   UNL     1       5.790   5.381  16.829  0.00  0.00    +0.000 A 
ATOM     19  C   UNL     1       5.000   5.885  17.839  0.00  0.00    +0.000 A 
ATOM     20  C   UNL     1       3.891   5.036  18.165  0.00  0.00    +0.000 A 
BRANCH  18  21
ATOM     21  C   UNL     1       7.007   5.967  16.287  0.00  0.00    +0.000 C 
ATOM     22  N   UNL     1       7.576   5.482  15.226  0.00  0.00    +0.000 NA
ATOM     23  N   UNL     1       7.632   7.050  16.832  0.00  0.00    +0.000 N 
ATOM     24  H   UNL     1       7.044   4.668  14.896  0.00  0.00    +0.000 HD
ATOM     25  H   UNL     1       7.050   7.741  17.285  0.00  0.00    +0.000 HD
ATOM     26  H   UNL     1       8.312   7.447  16.193  0.00  0.00    +0.000 HD
ENDBRANCH  18  21
BRANCH  16  28
ATOM     27  C   UNL     1       3.492   1.417  18.573  0.00  0.00    +0.000 C 
ATOM     28  S   UNL     1       2.705   2.567  17.428  0.00  0.00    +0.000 S 
ENDBRANCH  16  28
ENDBRANCH   1  20
TORSDOF 5
ENDMDL
MODEL 7
REMARK VINA RESULT:      -7.3      5.679      8.509
REMARK  Name = 
REMARK  6 active torsions:
REMARK  status: ('A' for Active; 'I' for Inactive)
REMARK    1  A    between atoms: C_1  and  S_2
REMARK    2  A    between atoms: S_2  and  C_3
REMARK    3  A    between atoms: C_5  and  C_6
REMARK    4  A    between atoms: C_10  and  S_11
REMARK    5  A    between atoms: S_11  and  C_14
REMARK    6  A    between atoms: C_18  and  C_19
REMARK                            x       y       z     vdW  Elec       q    Type
REMARK                         _______ _______ _______ _____ _____    ______ ____
ROOT
ATOM      1  S   UNL     1       0.555   9.618  20.749  0.00  0.00    +0.000 S 
ATOM      2  O   UNL     1       1.437  10.376  21.614  0.00  0.00    +0.000 OA
ATOM      3  O   UNL     1      -0.593   8.905  21.279  0.00  0.00    +0.000 OA
ENDROOT
BRANCH   1   4
ATOM      4  C   UNL     1       1.560   8.503  19.829  0.00  0.00    +0.000 A 
ATOM      5  C   UNL     1       2.065   8.909  18.593  0.00  0.00    +0.000 A 
ATOM      6  C   UNL     1       2.815   8.015  17.841  0.00  0.00    +0.000 A 
ATOM      7  C   UNL     1       3.052   6.724  18.324  0.00  0.00    +0.000 A 
ATOM      8  C   UNL     1       2.553   6.290  19.569  0.00  0.00    +0.000 A 
ATOM      9  C   UNL     1       1.789   7.207  20.312  0.00  0.00    +0.000 A 
BRANCH   8  10
ATOM     10  C   UNL     1       2.816   4.916  20.062  0.00  0.00    +0.000 A 
ATOM     11  C   UNL     1       3.824   4.115  19.492  0.00  0.00    +0.000 A 
ATOM     12  C   UNL     1       4.056   2.807  19.928  0.00  0.00    +0.000 A 
ATOM     13  C   UNL     1       3.293   2.272  20.961  0.00  0.00    +0.000 A 
ATOM     14  C   UNL     1       2.303   3.046  21.556  0.00  0.00    +0.000 A 
ATOM     15  C   UNL     1       2.065   4.350  21.107  0.00  0.00    +0.000 A 
ENDBRANCH   8  10
ENDBRANCH   1   4
BRANCH   1  20
ATOM     16  C   UNL     1       0.204  12.136  19.565  0.00  0.00    +0.000 A 
ATOM     17  S   UNL     1      -0.793  12.906  18.388  0.00  0.00    +0.000 S 
ATOM     18  C   UNL     1      -1.718  11.499  18.101  0.00  0.00    +0.000 A 
ATOM     19  C   UNL     1      -1.266  10.453  18.875  0.00  0.00    +0.000 A 
ATOM     20  C   UNL     1      -0.176  10.817  19.733  0.00  0.00    +0.000 A 
BRANCH  18  21
ATOM     21  C   UNL     1      -2.828  11.482  17.159  0.00  0.00    +0.000 C 
ATOM     22  N   UNL     1      -2.627  11.507  15.877  0.00  0.00    +0.000 NA
ATOM     23  N   UNL     1      -4.138  11.433  17.535  0.00  0.00    +0.000 N 
ATOM     24  H   UNL     1      -1.618  11.553  15.691  0.00  0.00    +0.000 HD
ATOM     25  H   UNL     1      -4.357  10.933  18.386  0.00  0.00    +0.000 HD
ATOM     26  H   UNL     1      -4.740  11.193  16.755  0.00  0.00    +0.000 HD
ENDBRANCH  18  21
BRANCH  16  28
ATOM     27  C   UNL     1       0.497  13.971  21.651  0.00  0.00    +0.000 C 
ATOM     28  S   UNL     1       1.443  13.039  20.431  0.00  0.00    +0.000 S 
ENDBRANCH  16  28
ENDBRANCH   1  20
TORSDOF 5
ENDMDL
MODEL 8
REMARK VINA RESULT:      -7.3      5.678      8.386
REMARK  Name = 
REMARK  6 active torsions:
REMARK  status: ('A' for Active; 'I' for Inactive)
REMARK    1  A    between atoms: C_1  and  S_2
REMARK    2  A    between atoms: S_2  and  C_3
REMARK    3  A    between atoms: C_5  and  C_6
REMARK    4  A    between atoms: C_10  and  S_11
REMARK    5  A    between atoms: S_11  and  C_14
REMARK    6  A    between atoms: C_18  and  C_19
REMARK                            x       y       z     vdW  Elec       q    Type
REMARK                         _______ _______ _______ _____ _____    ______ ____
ROOT
ATOM      1  S   UNL     1       0.550   9.612  20.723  0.00  0.00    +0.000 S 
ATOM      2  O   UNL     1       1.438  10.382  21.572  0.00  0.00    +0.000 OA
ATOM      3  O   UNL     1      -0.587   8.897  21.272  0.00  0.00    +0.000 OA
ENDROOT
BRANCH   1   4
ATOM      4  C   UNL     1       1.550   8.496  19.800  0.00  0.00    +0.000 A 
ATOM      5  C   UNL     1       2.058   8.905  18.565  0.00  0.00    +0.000 A 
ATOM      6  C   UNL     1       2.805   8.010  17.811  0.00  0.00    +0.000 A 
ATOM      7  C   UNL     1       3.036   6.717  18.289  0.00  0.00    +0.000 A 
ATOM      8  C   UNL     1       2.534   6.280  19.532  0.00  0.00    +0.000 A 
ATOM      9  C   UNL     1       1.774   7.198  20.278  0.00  0.00    +0.000 A 
BRANCH   8  10
ATOM     10  C   UNL     1       2.791   4.903  20.020  0.00  0.00    +0.000 A 
ATOM     11  C   UNL     1       2.038   4.347  21.072  0.00  0.00    +0.000 A 
ATOM     12  C   UNL     1       2.297   3.063  21.559  0.00  0.00    +0.000 A 
ATOM     13  C   UNL     1       3.307   2.293  20.993  0.00  0.00    +0.000 A 
ATOM     14  C   UNL     1       4.055   2.808  19.939  0.00  0.00    +0.000 A 
ATOM     15  C   UNL     1       3.803   4.100  19.464  0.00  0.00    +0.000 A 
ENDBRANCH   8  10
ENDBRANCH   1   4
BRANCH   1  20
ATOM     16  C   UNL     1       0.215  12.095  19.462  0.00  0.00    +0.000 A 
ATOM     17  S   UNL     1      -0.826  12.858  18.319  0.00  0.00    +0.000 S 
ATOM     18  C   UNL     1      -1.818  11.477  18.148  0.00  0.00    +0.000 A 
ATOM     19  C   UNL     1      -1.356  10.445  18.934  0.00  0.00    +0.000 A 
ATOM     20  C   UNL     1      -0.201  10.799  19.707  0.00  0.00    +0.000 A 
BRANCH  18  21
ATOM     21  C   UNL     1      -2.985  11.467  17.277  0.00  0.00    +0.000 C 
ATOM     22  N   UNL     1      -2.865  11.466  15.985  0.00  0.00    +0.000 NA
ATOM     23  N   UNL     1      -4.269  11.452  17.736  0.00  0.00    +0.000 N 
ATOM     24  H   UNL     1      -1.869  11.489  15.736  0.00  0.00    +0.000 HD
ATOM     25  H   UNL     1      -4.444  10.970  18.608  0.00  0.00    +0.000 HD
ATOM     26  H   UNL     1      -4.924  11.211  17.000  0.00  0.00    +0.000 HD
ENDBRANCH  18  21
BRANCH  16  28
ATOM     27  C   UNL     1       2.628  13.349  18.824  0.00  0.00    +0.000 C 
ATOM     28  S   UNL     1       1.538  12.982  20.213  0.00  0.00    +0.000 S 
ENDBRANCH  16  28
ENDBRANCH   1  20
TORSDOF 5
ENDMDL
MODEL 9
REMARK VINA RESULT:      -7.3      3.102      7.138
REMARK  Name = 
REMARK  6 active torsions:
REMARK  status: ('A' for Active; 'I' for Inactive)
REMARK    1  A    between atoms: C_1  and  S_2
REMARK    2  A    between atoms: S_2  and  C_3
REMARK    3  A    between atoms: C_5  and  C_6
REMARK    4  A    between atoms: C_10  and  S_11
REMARK    5  A    between atoms: S_11  and  C_14
REMARK    6  A    between atoms: C_18  and  C_19
REMARK                            x       y       z     vdW  Elec       q    Type
REMARK                         _______ _______ _______ _____ _____    ______ ____
ROOT
ATOM      1  S   UNL     1       4.325   3.740  18.719  0.00  0.00    +0.000 S 
ATOM      2  O   UNL     1       5.103   3.385  19.889  0.00  0.00    +0.000 OA
ATOM      3  O   UNL     1       3.412   2.794  18.104  0.00  0.00    +0.000 OA
ENDROOT
BRANCH   1   4
ATOM      4  C   UNL     1       5.452   4.336  17.505  0.00  0.00    +0.000 A 
ATOM      5  C   UNL     1       6.431   5.257  17.884  0.00  0.00    +0.000 A 
ATOM      6  C   UNL     1       7.289   5.768  16.920  0.00  0.00    +0.000 A 
ATOM      7  C   UNL     1       7.163   5.361  15.588  0.00  0.00    +0.000 A 
ATOM      8  C   UNL     1       6.183   4.433  15.180  0.00  0.00    +0.000 A 
ATOM      9  C   UNL     1       5.318   3.933  16.170  0.00  0.00    +0.000 A 
BRANCH   8  10
ATOM     10  C   UNL     1       6.067   4.017  13.761  0.00  0.00    +0.000 A 
ATOM     11  C   UNL     1       7.175   4.059  12.894  0.00  0.00    +0.000 A 
ATOM     12  C   UNL     1       7.066   3.700  11.546  0.00  0.00    +0.000 A 
ATOM     13  C   UNL     1       5.845   3.272  11.037  0.00  0.00    +0.000 A 
ATOM     14  C   UNL     1       4.737   3.202  11.874  0.00  0.00    +0.000 A 
ATOM     15  C   UNL     1       4.847   3.575  13.219  0.00  0.00    +0.000 A 
ENDBRANCH   8  10
ENDBRANCH   1   4
BRANCH   1  20
ATOM     16  C   UNL     1       2.492   4.997  20.430  0.00  0.00    +0.000 A 
ATOM     17  S   UNL     1       1.658   6.498  20.587  0.00  0.00    +0.000 S 
ATOM     18  C   UNL     1       2.316   7.131  19.143  0.00  0.00    +0.000 A 
ATOM     19  C   UNL     1       3.170   6.224  18.558  0.00  0.00    +0.000 A 
ATOM     20  C   UNL     1       3.261   4.988  19.280  0.00  0.00    +0.000 A 
BRANCH  18  21
ATOM     21  C   UNL     1       1.967   8.457  18.651  0.00  0.00    +0.000 C 
ATOM     22  N   UNL     1       2.339   8.861  17.475  0.00  0.00    +0.000 NA
ATOM     23  N   UNL     1       1.233   9.358  19.364  0.00  0.00    +0.000 N 
ATOM     24  H   UNL     1       2.892   8.124  17.021  0.00  0.00    +0.000 HD
ATOM     25  H   UNL     1       0.530   8.991  19.990  0.00  0.00    +0.000 HD
ATOM     26  H   UNL     1       0.899  10.114  18.776  0.00  0.00    +0.000 HD
ENDBRANCH  18  21
BRANCH  16  28
ATOM     27  C   UNL     1       1.166   2.554  20.709  0.00  0.00    +0.000 C 
ATOM     28  S   UNL     1       2.243   3.699  21.593  0.00  0.00    +0.000 S 
ENDBRANCH  16  28
ENDBRANCH   1  20
TORSDOF 5
ENDMDL
