MODEL 1
REMARK VINA RESULT:      -7.2      0.000      0.000
REMARK  Name = 
REMARK  8 active torsions:
REMARK  status: ('A' for Active; 'I' for Inactive)
REMARK    1  A    between atoms: C_1  and  C_2
REMARK    2  A    between atoms: C_2  and  O_3
REMARK    3  A    between atoms: O_3  and  C_4
REMARK    4  A    between atoms: C_4  and  C_5
REMARK    5  A    between atoms: C_4  and  C_15
REMARK    6  A    between atoms: C_5  and  N_6
REMARK    7  A    between atoms: C_7  and  C_9
REMARK    8  A    between atoms: N_13  and  C_14
REMARK                            x       y       z     vdW  Elec       q    Type
REMARK                         _______ _______ _______ _____ _____    ______ ____
ROOT
ATOM      1  C   UNL     1       5.102   5.774  16.273  0.00  0.00    +0.000 C 
ENDROOT
BRANCH   1   2
ATOM      2  N   UNL     1       4.190   4.804  16.857  0.00  0.00    +0.000 N 
ATOM      3  C   UNL     1       3.505   5.044  18.025  0.00  0.00    +0.000 C 
ATOM      4  O   UNL     1       3.630   6.103  18.633  0.00  0.00    +0.000 OA
ATOM      5  H   UNL     1       4.019   3.957  16.334  0.00  0.00    +0.000 HD
BRANCH   3   6
ATOM      6  C   UNL     1       2.634   3.971  18.452  0.00  0.00    +0.000 A 
ATOM      7  C   UNL     1       1.285   3.746  18.209  0.00  0.00    +0.000 A 
ATOM      8  C   UNL     1       0.976   2.547  18.868  0.00  0.00    +0.000 A 
ATOM      9  N   UNL     1       2.029   2.026  19.487  0.00  0.00    +0.000 NA
ATOM     10  N   UNL     1       3.027   2.896  19.220  0.00  0.00    +0.000 N 
ATOM     11  C   UNL     1       4.342   2.622  19.754  0.00  0.00    +0.000 C 
ENDBRANCH   3   6
ENDBRANCH   1   2
BRANCH   1  12
ATOM     12  C   UNL     1       6.507   5.192  15.978  0.00  0.00    +0.000 C 
BRANCH  12  13
ATOM     13  C   UNL     1       6.643   4.791  14.514  0.00  0.00    +0.000 A 
ATOM     14  C   UNL     1       7.636   5.377  13.710  0.00  0.00    +0.000 A 
ATOM     15  C   UNL     1       7.792   4.992  12.376  0.00  0.00    +0.000 A 
ATOM     16  C   UNL     1       6.965   4.018  11.826  0.00  0.00    +0.000 A 
ATOM     17  C   UNL     1       5.973   3.428  12.607  0.00  0.00    +0.000 A 
ATOM     18  C   UNL     1       5.813   3.814  13.938  0.00  0.00    +0.000 A 
ENDBRANCH  12  13
BRANCH  12  19
ATOM     19  O   UNL     1       7.555   6.126  16.296  0.00  0.00    +0.000 OA
BRANCH  19  21
ATOM     20  C   UNL     1       7.791   6.270  18.665  0.00  0.00    +0.000 C 
ATOM     21  C   UNL     1       7.275   6.961  17.417  0.00  0.00    +0.000 C 
ENDBRANCH  19  21
ENDBRANCH  12  19
ENDBRANCH   1  12
TORSDOF 6
ENDMDL
MODEL 2
REMARK VINA RESULT:      -7.1      3.089      6.897
REMARK  Name = 
REMARK  8 active torsions:
REMARK  status: ('A' for Active; 'I' for Inactive)
REMARK    1  A    between atoms: C_1  and  C_2
REMARK    2  A    between atoms: C_2  and  O_3
REMARK    3  A    between atoms: O_3  and  C_4
REMARK    4  A    between atoms: C_4  and  C_5
REMARK    5  A    between atoms: C_4  and  C_15
REMARK    6  A    between atoms: C_5  and  N_6
REMARK    7  A    between atoms: C_7  and  C_9
REMARK    8  A    between atoms: N_13  and  C_14
REMARK                            x       y       z     vdW  Elec       q    Type
REMARK                         _______ _______ _______ _____ _____    ______ ____
ROOT
ATOM      1  C   UNL     1       2.540   5.190  18.254  0.00  0.00    +0.000 C 
ENDROOT
BRANCH   1   2
ATOM      2  N   UNL     1       3.667   5.241  17.337  0.00  0.00    +0.000 N 
ATOM      3  C   UNL     1       4.437   4.137  17.052  0.00  0.00    +0.000 C 
ATOM      4  O   UNL     1       4.201   3.044  17.560  0.00  0.00    +0.000 OA
ATOM      5  H   UNL     1       3.832   6.112  16.854  0.00  0.00    +0.000 HD
BRANCH   3   6
ATOM      6  C   UNL     1       5.510   4.370  16.110  0.00  0.00    +0.000 A 
ATOM      7  C   UNL     1       5.507   4.402  14.722  0.00  0.00    +0.000 A 
ATOM      8  C   UNL     1       6.831   4.677  14.346  0.00  0.00    +0.000 A 
ATOM      9  N   UNL     1       7.634   4.816  15.396  0.00  0.00    +0.000 NA
ATOM     10  N   UNL     1       6.817   4.635  16.456  0.00  0.00    +0.000 N 
ATOM     11  C   UNL     1       7.383   4.724  17.784  0.00  0.00    +0.000 C 
ENDBRANCH   3   6
ENDBRANCH   1   2
BRANCH   1  12
ATOM     12  C   UNL     1       2.776   5.994  19.557  0.00  0.00    +0.000 C 
BRANCH  12  13
ATOM     13  C   UNL     1       2.124   7.369  19.484  0.00  0.00    +0.000 A 
ATOM     14  C   UNL     1       1.504   7.919  20.620  0.00  0.00    +0.000 A 
ATOM     15  C   UNL     1       0.934   9.194  20.574  0.00  0.00    +0.000 A 
ATOM     16  C   UNL     1       0.975   9.938  19.399  0.00  0.00    +0.000 A 
ATOM     17  C   UNL     1       1.582   9.409  18.263  0.00  0.00    +0.000 A 
ATOM     18  C   UNL     1       2.148   8.134  18.306  0.00  0.00    +0.000 A 
ENDBRANCH  12  13
BRANCH  12  19
ATOM     19  O   UNL     1       2.264   5.305  20.714  0.00  0.00    +0.000 OA
BRANCH  19  21
ATOM     20  C   UNL     1       1.620   3.130  21.448  0.00  0.00    +0.000 C 
ATOM     21  C   UNL     1       1.399   4.215  20.412  0.00  0.00    +0.000 C 
ENDBRANCH  19  21
ENDBRANCH  12  19
ENDBRANCH   1  12
TORSDOF 6
ENDMDL
MODEL 3
REMARK VINA RESULT:      -7.0      2.928      6.824
REMARK  Name = 
REMARK  8 active torsions:
REMARK  status: ('A' for Active; 'I' for Inactive)
REMARK    1  A    between atoms: C_1  and  C_2
REMARK    2  A    between atoms: C_2  and  O_3
REMARK    3  A    between atoms: O_3  and  C_4
REMARK    4  A    between atoms: C_4  and  C_5
REMARK    5  A    between atoms: C_4  and  C_15
REMARK    6  A    between atoms: C_5  and  N_6
REMARK    7  A    between atoms: C_7  and  C_9
REMARK    8  A    between atoms: N_13  and  C_14
REMARK                            x       y       z     vdW  Elec       q    Type
REMARK                         _______ _______ _______ _____ _____    ______ ____
ROOT
ATOM      1  C   UNL     1       2.646   4.998  18.221  0.00  0.00    +0.000 C 
ENDROOT
BRANCH   1   2
ATOM      2  N   UNL     1       3.702   5.115  17.229  0.00  0.00    +0.000 N 
ATOM      3  C   UNL     1       4.889   4.426  17.330  0.00  0.00    +0.000 C 
ATOM      4  O   UNL     1       5.111   3.669  18.270  0.00  0.00    +0.000 OA
ATOM      5  H   UNL     1       3.510   5.676  16.412  0.00  0.00    +0.000 HD
BRANCH   3   6
ATOM      6  C   UNL     1       5.820   4.656  16.246  0.00  0.00    +0.000 A 
ATOM      7  C   UNL     1       5.886   4.105  14.974  0.00  0.00    +0.000 A 
ATOM      8  C   UNL     1       6.993   4.705  14.357  0.00  0.00    +0.000 A 
ATOM      9  N   UNL     1       7.603   5.577  15.153  0.00  0.00    +0.000 NA
ATOM     10  N   UNL     1       6.876   5.541  16.291  0.00  0.00    +0.000 N 
ATOM     11  C   UNL     1       7.274   6.393  17.389  0.00  0.00    +0.000 C 
ENDBRANCH   3   6
ENDBRANCH   1   2
BRANCH   1  12
ATOM     12  C   UNL     1       2.912   5.832  19.498  0.00  0.00    +0.000 C 
BRANCH  12  13
ATOM     13  C   UNL     1       2.272   7.212  19.401  0.00  0.00    +0.000 A 
ATOM     14  C   UNL     1       2.283   7.912  18.182  0.00  0.00    +0.000 A 
ATOM     15  C   UNL     1       1.669   9.162  18.072  0.00  0.00    +0.000 A 
ATOM     16  C   UNL     1       1.035   9.731  19.172  0.00  0.00    +0.000 A 
ATOM     17  C   UNL     1       1.016   9.053  20.389  0.00  0.00    +0.000 A 
ATOM     18  C   UNL     1       1.633   7.806  20.502  0.00  0.00    +0.000 A 
ENDBRANCH  12  13
BRANCH  12  19
ATOM     19  O   UNL     1       2.414   5.179  20.681  0.00  0.00    +0.000 OA
BRANCH  19  21
ATOM     20  C   UNL     1       1.329   3.132  21.245  0.00  0.00    +0.000 C 
ATOM     21  C   UNL     1       2.590   3.765  20.687  0.00  0.00    +0.000 C 
ENDBRANCH  19  21
ENDBRANCH  12  19
ENDBRANCH   1  12
TORSDOF 6
ENDMDL
MODEL 4
REMARK VINA RESULT:      -6.9      1.000      1.273
REMARK  Name = 
REMARK  8 active torsions:
REMARK  status: ('A' for Active; 'I' for Inactive)
REMARK    1  A    between atoms: C_1  and  C_2
REMARK    2  A    between atoms: C_2  and  O_3
REMARK    3  A    between atoms: O_3  and  C_4
REMARK    4  A    between atoms: C_4  and  C_5
REMARK    5  A    between atoms: C_4  and  C_15
REMARK    6  A    between atoms: C_5  and  N_6
REMARK    7  A    between atoms: C_7  and  C_9
REMARK    8  A    between atoms: N_13  and  C_14
REMARK                            x       y       z     vdW  Elec       q    Type
REMARK                         _______ _______ _______ _____ _____    ______ ____
ROOT
ATOM      1  C   UNL     1       5.114   5.977  16.452  0.00  0.00    +0.000 C 
ENDROOT
BRANCH   1   2
ATOM      2  N   UNL     1       4.158   5.042  17.024  0.00  0.00    +0.000 N 
ATOM      3  C   UNL     1       4.144   4.727  18.363  0.00  0.00    +0.000 C 
ATOM      4  O   UNL     1       4.944   5.230  19.147  0.00  0.00    +0.000 OA
ATOM      5  H   UNL     1       3.447   4.674  16.409  0.00  0.00    +0.000 HD
BRANCH   3   6
ATOM      6  C   UNL     1       3.116   3.787  18.756  0.00  0.00    +0.000 A 
ATOM      7  C   UNL     1       2.899   2.469  18.379  0.00  0.00    +0.000 A 
ATOM      8  C   UNL     1       1.759   2.055  19.083  0.00  0.00    +0.000 A 
ATOM      9  N   UNL     1       1.269   3.017  19.859  0.00  0.00    +0.000 NA
ATOM     10  N   UNL     1       2.107   4.057  19.655  0.00  0.00    +0.000 N 
ATOM     11  C   UNL     1       1.857   5.291  20.366  0.00  0.00    +0.000 C 
ENDBRANCH   3   6
ENDBRANCH   1   2
BRANCH   1  12
ATOM     12  C   UNL     1       6.495   5.337  16.164  0.00  0.00    +0.000 C 
BRANCH  12  13
ATOM     13  C   UNL     1       6.602   4.882  14.713  0.00  0.00    +0.000 A 
ATOM     14  C   UNL     1       7.589   5.425  13.873  0.00  0.00    +0.000 A 
ATOM     15  C   UNL     1       7.719   4.990  12.552  0.00  0.00    +0.000 A 
ATOM     16  C   UNL     1       6.869   4.009  12.050  0.00  0.00    +0.000 A 
ATOM     17  C   UNL     1       5.882   3.462  12.867  0.00  0.00    +0.000 A 
ATOM     18  C   UNL     1       5.750   3.898  14.186  0.00  0.00    +0.000 A 
ENDBRANCH  12  13
BRANCH  12  19
ATOM     19  O   UNL     1       7.577   6.247  16.440  0.00  0.00    +0.000 OA
BRANCH  19  21
ATOM     20  C   UNL     1       7.883   8.260  17.679  0.00  0.00    +0.000 C 
ATOM     21  C   UNL     1       7.574   6.778  17.761  0.00  0.00    +0.000 C 
ENDBRANCH  19  21
ENDBRANCH  12  19
ENDBRANCH   1  12
TORSDOF 6
ENDMDL
MODEL 5
REMARK VINA RESULT:      -6.8      0.708      1.288
REMARK  Name = 
REMARK  8 active torsions:
REMARK  status: ('A' for Active; 'I' for Inactive)
REMARK    1  A    between atoms: C_1  and  C_2
REMARK    2  A    between atoms: C_2  and  O_3
REMARK    3  A    between atoms: O_3  and  C_4
REMARK    4  A    between atoms: C_4  and  C_5
REMARK    5  A    between atoms: C_4  and  C_15
REMARK    6  A    between atoms: C_5  and  N_6
REMARK    7  A    between atoms: C_7  and  C_9
REMARK    8  A    between atoms: N_13  and  C_14
REMARK                            x       y       z     vdW  Elec       q    Type
REMARK                         _______ _______ _______ _____ _____    ______ ____
ROOT
ATOM      1  C   UNL     1       5.032   5.965  16.485  0.00  0.00    +0.000 C 
ENDROOT
BRANCH   1   2
ATOM      2  N   UNL     1       4.008   5.086  17.027  0.00  0.00    +0.000 N 
ATOM      3  C   UNL     1       3.820   4.918  18.379  0.00  0.00    +0.000 C 
ATOM      4  O   UNL     1       4.511   5.513  19.200  0.00  0.00    +0.000 OA
ATOM      5  H   UNL     1       3.383   4.644  16.369  0.00  0.00    +0.000 HD
BRANCH   3   6
ATOM      6  C   UNL     1       2.749   4.013  18.737  0.00  0.00    +0.000 A 
ATOM      7  C   UNL     1       1.501   4.259  19.293  0.00  0.00    +0.000 A 
ATOM      8  C   UNL     1       0.885   3.004  19.413  0.00  0.00    +0.000 A 
ATOM      9  N   UNL     1       1.659   2.018  18.972  0.00  0.00    +0.000 NA
ATOM     10  N   UNL     1       2.781   2.646  18.559  0.00  0.00    +0.000 N 
ATOM     11  C   UNL     1       3.854   1.848  18.008  0.00  0.00    +0.000 C 
ENDBRANCH   3   6
ENDBRANCH   1   2
BRANCH   1  12
ATOM     12  C   UNL     1       6.383   5.250  16.237  0.00  0.00    +0.000 C 
BRANCH  12  13
ATOM     13  C   UNL     1       6.503   4.780  14.792  0.00  0.00    +0.000 A 
ATOM     14  C   UNL     1       5.566   3.875  14.263  0.00  0.00    +0.000 A 
ATOM     15  C   UNL     1       5.645   3.465  12.930  0.00  0.00    +0.000 A 
ATOM     16  C   UNL     1       6.657   3.950  12.106  0.00  0.00    +0.000 A 
ATOM     17  C   UNL     1       7.596   4.845  12.614  0.00  0.00    +0.000 A 
ATOM     18  C   UNL     1       7.520   5.253  13.946  0.00  0.00    +0.000 A 
ENDBRANCH  12  13
BRANCH  12  19
ATOM     19  O   UNL     1       7.505   6.101  16.537  0.00  0.00    +0.000 OA
BRANCH  19  21
ATOM     20  C   UNL     1       7.907   6.148  18.886  0.00  0.00    +0.000 C 
ATOM     21  C   UNL     1       7.337   6.904  17.702  0.00  0.00    +0.000 C 
ENDBRANCH  19  21
ENDBRANCH  12  19
ENDBRANCH   1  12
TORSDOF 6
ENDMDL
MODEL 6
REMARK VINA RESULT:      -6.8      1.278      1.722
REMARK  Name = 
REMARK  8 active torsions:
REMARK  status: ('A' for Active; 'I' for Inactive)
REMARK    1  A    between atoms: C_1  and  C_2
REMARK    2  A    between atoms: C_2  and  O_3
REMARK    3  A    between atoms: O_3  and  C_4
REMARK    4  A    between atoms: C_4  and  C_5
REMARK    5  A    between atoms: C_4  and  C_15
REMARK    6  A    between atoms: C_5  and  N_6
REMARK    7  A    between atoms: C_7  and  C_9
REMARK    8  A    between atoms: N_13  and  C_14
REMARK                            x       y       z     vdW  Elec       q    Type
REMARK                         _______ _______ _______ _____ _____    ______ ____
ROOT
ATOM      1  C   UNL     1       4.571   5.292  16.595  0.00  0.00    +0.000 C 
ENDROOT
BRANCH   1   2
ATOM      2  N   UNL     1       3.950   4.852  17.835  0.00  0.00    +0.000 N 
ATOM      3  C   UNL     1       2.971   3.888  17.868  0.00  0.00    +0.000 C 
ATOM      4  O   UNL     1       2.574   3.343  16.842  0.00  0.00    +0.000 OA
ATOM      5  H   UNL     1       4.314   5.236  18.695  0.00  0.00    +0.000 HD
BRANCH   3   6
ATOM      6  C   UNL     1       2.475   3.568  19.189  0.00  0.00    +0.000 A 
ATOM      7  C   UNL     1       1.277   3.891  19.812  0.00  0.00    +0.000 A 
ATOM      8  C   UNL     1       1.342   3.309  21.086  0.00  0.00    +0.000 A 
ATOM      9  N   UNL     1       2.482   2.657  21.284  0.00  0.00    +0.000 NA
ATOM     10  N   UNL     1       3.154   2.816  20.124  0.00  0.00    +0.000 N 
ATOM     11  C   UNL     1       4.463   2.215  19.997  0.00  0.00    +0.000 C 
ENDBRANCH   3   6
ENDBRANCH   1   2
BRANCH   1  12
ATOM     12  C   UNL     1       6.009   4.747  16.406  0.00  0.00    +0.000 C 
BRANCH  12  13
ATOM     13  C   UNL     1       6.324   4.521  14.932  0.00  0.00    +0.000 A 
ATOM     14  C   UNL     1       5.489   3.707  14.148  0.00  0.00    +0.000 A 
ATOM     15  C   UNL     1       5.748   3.521  12.787  0.00  0.00    +0.000 A 
ATOM     16  C   UNL     1       6.841   4.142  12.191  0.00  0.00    +0.000 A 
ATOM     17  C   UNL     1       7.683   4.950  12.953  0.00  0.00    +0.000 A 
ATOM     18  C   UNL     1       7.426   5.133  14.313  0.00  0.00    +0.000 A 
ENDBRANCH  12  13
BRANCH  12  19
ATOM     19  O   UNL     1       6.998   5.638  16.954  0.00  0.00    +0.000 OA
BRANCH  19  21
ATOM     20  C   UNL     1       7.700   7.818  17.620  0.00  0.00    +0.000 C 
ATOM     21  C   UNL     1       6.520   6.954  17.219  0.00  0.00    +0.000 C 
ENDBRANCH  19  21
ENDBRANCH  12  19
ENDBRANCH   1  12
TORSDOF 6
ENDMDL
MODEL 7
REMARK VINA RESULT:      -6.8      0.989      1.604
REMARK  Name = 
REMARK  8 active torsions:
REMARK  status: ('A' for Active; 'I' for Inactive)
REMARK    1  A    between atoms: C_1  and  C_2
REMARK    2  A    between atoms: C_2  and  O_3
REMARK    3  A    between atoms: O_3  and  C_4
REMARK    4  A    between atoms: C_4  and  C_5
REMARK    5  A    between atoms: C_4  and  C_15
REMARK    6  A    between atoms: C_5  and  N_6
REMARK    7  A    between atoms: C_7  and  C_9
REMARK    8  A    between atoms: N_13  and  C_14
REMARK                            x       y       z     vdW  Elec       q    Type
REMARK                         _______ _______ _______ _____ _____    ______ ____
ROOT
ATOM      1  C   UNL     1       5.082   5.841  16.483  0.00  0.00    +0.000 C 
ENDROOT
BRANCH   1   2
ATOM      2  N   UNL     1       4.442   5.053  17.525  0.00  0.00    +0.000 N 
ATOM      3  C   UNL     1       3.303   5.472  18.172  0.00  0.00    +0.000 C 
ATOM      4  O   UNL     1       2.765   6.540  17.894  0.00  0.00    +0.000 OA
ATOM      5  H   UNL     1       4.828   4.140  17.717  0.00  0.00    +0.000 HD
BRANCH   3   6
ATOM      6  C   UNL     1       2.799   4.556  19.172  0.00  0.00    +0.000 A 
ATOM      7  C   UNL     1       2.596   4.722  20.535  0.00  0.00    +0.000 A 
ATOM      8  C   UNL     1       2.084   3.500  20.995  0.00  0.00    +0.000 A 
ATOM      9  N   UNL     1       1.957   2.608  20.019  0.00  0.00    +0.000 NA
ATOM     10  N   UNL     1       2.387   3.265  18.920  0.00  0.00    +0.000 N 
ATOM     11  C   UNL     1       2.380   2.568  17.653  0.00  0.00    +0.000 C 
ENDBRANCH   3   6
ENDBRANCH   1   2
BRANCH   1  12
ATOM     12  C   UNL     1       6.528   5.382  16.172  0.00  0.00    +0.000 C 
BRANCH  12  13
ATOM     13  C   UNL     1       6.650   4.872  14.741  0.00  0.00    +0.000 A 
ATOM     14  C   UNL     1       5.748   3.911  14.254  0.00  0.00    +0.000 A 
ATOM     15  C   UNL     1       5.829   3.462  12.932  0.00  0.00    +0.000 A 
ATOM     16  C   UNL     1       6.807   3.966  12.080  0.00  0.00    +0.000 A 
ATOM     17  C   UNL     1       7.712   4.917  12.546  0.00  0.00    +0.000 A 
ATOM     18  C   UNL     1       7.634   5.363  13.866  0.00  0.00    +0.000 A 
ENDBRANCH  12  13
BRANCH  12  19
ATOM     19  O   UNL     1       7.483   6.443  16.364  0.00  0.00    +0.000 OA
BRANCH  19  21
ATOM     20  C   UNL     1       7.830   6.002  18.681  0.00  0.00    +0.000 C 
ATOM     21  C   UNL     1       7.437   7.046  17.653  0.00  0.00    +0.000 C 
ENDBRANCH  19  21
ENDBRANCH  12  19
ENDBRANCH   1  12
TORSDOF 6
ENDMDL
MODEL 8
REMARK VINA RESULT:      -6.7      3.013      6.884
REMARK  Name = 
REMARK  8 active torsions:
REMARK  status: ('A' for Active; 'I' for Inactive)
REMARK    1  A    between atoms: C_1  and  C_2
REMARK    2  A    between atoms: C_2  and  O_3
REMARK    3  A    between atoms: O_3  and  C_4
REMARK    4  A    between atoms: C_4  and  C_5
REMARK    5  A    between atoms: C_4  and  C_15
REMARK    6  A    between atoms: C_5  and  N_6
REMARK    7  A    between atoms: C_7  and  C_9
REMARK    8  A    between atoms: N_13  and  C_14
REMARK                            x       y       z     vdW  Elec       q    Type
REMARK                         _______ _______ _______ _____ _____    ______ ____
ROOT
ATOM      1  C   UNL     1       3.930   5.768  19.724  0.00  0.00    +0.000 C 
ENDROOT
BRANCH   1   2
ATOM      2  N   UNL     1       4.646   5.684  18.461  0.00  0.00    +0.000 N 
ATOM      3  C   UNL     1       5.557   4.689  18.194  0.00  0.00    +0.000 C 
ATOM      4  O   UNL     1       5.807   3.812  19.016  0.00  0.00    +0.000 OA
ATOM      5  H   UNL     1       4.401   6.354  17.746  0.00  0.00    +0.000 HD
BRANCH   3   6
ATOM      6  C   UNL     1       6.166   4.757  16.883  0.00  0.00    +0.000 A 
ATOM      7  C   UNL     1       6.036   3.926  15.778  0.00  0.00    +0.000 A 
ATOM      8  C   UNL     1       6.855   4.483  14.785  0.00  0.00    +0.000 A 
ATOM      9  N   UNL     1       7.468   5.588  15.199  0.00  0.00    +0.000 NA
ATOM     10  N   UNL     1       7.034   5.744  16.468  0.00  0.00    +0.000 N 
ATOM     11  C   UNL     1       7.516   6.877  17.227  0.00  0.00    +0.000 C 
ENDBRANCH   3   6
ENDBRANCH   1   2
BRANCH   1  12
ATOM     12  C   UNL     1       2.394   5.868  19.550  0.00  0.00    +0.000 C 
BRANCH  12  13
ATOM     13  C   UNL     1       1.953   7.314  19.359  0.00  0.00    +0.000 A 
ATOM     14  C   UNL     1       1.436   8.044  20.443  0.00  0.00    +0.000 A 
ATOM     15  C   UNL     1       1.060   9.381  20.288  0.00  0.00    +0.000 A 
ATOM     16  C   UNL     1       1.196  10.009  19.053  0.00  0.00    +0.000 A 
ATOM     17  C   UNL     1       1.704   9.300  17.967  0.00  0.00    +0.000 A 
ATOM     18  C   UNL     1       2.075   7.964  18.119  0.00  0.00    +0.000 A 
ENDBRANCH  12  13
BRANCH  12  19
ATOM     19  O   UNL     1       1.929   5.095  18.428  0.00  0.00    +0.000 OA
BRANCH  19  21
ATOM     20  C   UNL     1       0.912   3.865  20.201  0.00  0.00    +0.000 C 
ATOM     21  C   UNL     1       1.422   3.809  18.773  0.00  0.00    +0.000 C 
ENDBRANCH  19  21
ENDBRANCH  12  19
ENDBRANCH   1  12
TORSDOF 6
ENDMDL
MODEL 9
REMARK VINA RESULT:      -6.7      1.171      1.208
REMARK  Name = 
REMARK  8 active torsions:
REMARK  status: ('A' for Active; 'I' for Inactive)
REMARK    1  A    between atoms: C_1  and  C_2
REMARK    2  A    between atoms: C_2  and  O_3
REMARK    3  A    between atoms: O_3  and  C_4
REMARK    4  A    between atoms: C_4  and  C_5
REMARK    5  A    between atoms: C_4  and  C_15
REMARK    6  A    between atoms: C_5  and  N_6
REMARK    7  A    between atoms: C_7  and  C_9
REMARK    8  A    between atoms: N_13  and  C_14
REMARK                            x       y       z     vdW  Elec       q    Type
REMARK                         _______ _______ _______ _____ _____    ______ ____
ROOT
ATOM      1  C   UNL     1       5.077   5.808  16.467  0.00  0.00    +0.000 C 
ENDROOT
BRANCH   1   2
ATOM      2  N   UNL     1       4.381   5.445  17.691  0.00  0.00    +0.000 N 
ATOM      3  C   UNL     1       3.516   4.378  17.760  0.00  0.00    +0.000 C 
ATOM      4  O   UNL     1       3.292   3.672  16.781  0.00  0.00    +0.000 OA
ATOM      5  H   UNL     1       4.608   5.969  18.524  0.00  0.00    +0.000 HD
BRANCH   3   6
ATOM      6  C   UNL     1       2.923   4.158  19.061  0.00  0.00    +0.000 A 
ATOM      7  C   UNL     1       1.867   4.798  19.698  0.00  0.00    +0.000 A 
ATOM      8  C   UNL     1       1.730   4.161  20.939  0.00  0.00    +0.000 A 
ATOM      9  N   UNL     1       2.615   3.184  21.105  0.00  0.00    +0.000 NA
ATOM     10  N   UNL     1       3.325   3.190  19.956  0.00  0.00    +0.000 N 
ATOM     11  C   UNL     1       4.393   2.228  19.801  0.00  0.00    +0.000 C 
ENDBRANCH   3   6
ENDBRANCH   1   2
BRANCH   1  12
ATOM     12  C   UNL     1       6.336   4.947  16.201  0.00  0.00    +0.000 C 
BRANCH  12  13
ATOM     13  C   UNL     1       6.499   4.649  14.715  0.00  0.00    +0.000 A 
ATOM     14  C   UNL     1       7.526   5.265  13.980  0.00  0.00    +0.000 A 
ATOM     15  C   UNL     1       7.707   4.974  12.625  0.00  0.00    +0.000 A 
ATOM     16  C   UNL     1       6.869   4.065  11.986  0.00  0.00    +0.000 A 
ATOM     17  C   UNL     1       5.843   3.447  12.698  0.00  0.00    +0.000 A 
ATOM     18  C   UNL     1       5.660   3.740  14.050  0.00  0.00    +0.000 A 
ENDBRANCH  12  13
BRANCH  12  19
ATOM     19  O   UNL     1       7.536   5.587  16.674  0.00  0.00    +0.000 OA
BRANCH  19  21
ATOM     20  C   UNL     1       7.832   6.098  18.985  0.00  0.00    +0.000 C 
ATOM     21  C   UNL     1       7.313   6.600  17.651  0.00  0.00    +0.000 C 
ENDBRANCH  19  21
ENDBRANCH  12  19
ENDBRANCH   1  12
TORSDOF 6
ENDMDL
