MODEL 1
REMARK VINA RESULT:      -7.5      0.000      0.000
REMARK  Name = 
REMARK  9 active torsions:
REMARK  status: ('A' for Active; 'I' for Inactive)
REMARK    1  A    between atoms: C_1  and  C_2
REMARK    2  A    between atoms: C_2  and  O_3
REMARK    3  A    between atoms: O_3  and  C_4
REMARK    4  A    between atoms: C_4  and  C_6
REMARK    5  A    between atoms: C_6  and  C_7
REMARK    6  A    between atoms: C_6  and  C_8
REMARK    7  A    between atoms: C_6  and  C_15
REMARK    8  A    between atoms: C_8  and  C_9
REMARK    9  A    between atoms: C_20  and  C_21
REMARK                            x       y       z     vdW  Elec       q    Type
REMARK                         _______ _______ _______ _____ _____    ______ ____
ROOT
ATOM      1  C   UNL     1       0.703  10.590  20.470  0.00  0.00    +0.000 A 
ATOM      2  C   UNL     1       0.449  10.096  21.698  0.00  0.00    +0.000 A 
ATOM      3  C   UNL     1       0.743   8.668  21.944  0.00  0.00    +0.000 A 
ATOM      4  N   UNL     1       1.270   7.848  21.098  0.00  0.00    +0.000 NA
ATOM      5  C   UNL     1       1.554   8.360  19.863  0.00  0.00    +0.000 A 
ATOM      6  C   UNL     1       2.128   7.776  18.746  0.00  0.00    +0.000 A 
ATOM      7  C   UNL     1       2.192   8.818  17.804  0.00  0.00    +0.000 A 
ATOM      8  N   UNL     1       1.679   9.966  18.248  0.00  0.00    +0.000 NA
ATOM      9  N   UNL     1       1.278   9.699  19.523  0.00  0.00    +0.000 N 
ENDROOT
BRANCH   6  10
ATOM     10  C   UNL     1       2.586   6.396  18.680  0.00  0.00    +0.000 A 
ATOM     11  C   UNL     1       1.853   5.428  17.974  0.00  0.00    +0.000 A 
ATOM     12  C   UNL     1       2.252   4.088  17.961  0.00  0.00    +0.000 A 
ATOM     13  C   UNL     1       3.403   3.711  18.640  0.00  0.00    +0.000 A 
ATOM     14 CL   UNL     1       3.884   2.060  18.646  0.00  0.00    +0.000 Cl
ATOM     15  C   UNL     1       4.162   4.660  19.321  0.00  0.00    +0.000 A 
ATOM     16  C   UNL     1       3.757   6.000  19.340  0.00  0.00    +0.000 A 
ENDBRANCH   6  10
BRANCH   1  17
ATOM     17  C   UNL     1       0.398  12.045  20.031  0.00  0.00    +0.000 C 
ATOM     18  C   UNL     1      -0.556  12.673  21.083  0.00  0.00    +0.000 C 
BRANCH  17  19
ATOM     19  C   UNL     1       1.752  12.790  19.990  0.00  0.00    +0.000 C 
ATOM     20  O   UNL     1       2.505  12.902  20.952  0.00  0.00    +0.000 OA
BRANCH  19  21
ATOM     21  O   UNL     1       2.049  13.258  18.742  0.00  0.00    +0.000 OA
BRANCH  21  23
ATOM     22  C   UNL     1       1.393  15.608  18.792  0.00  0.00    +0.000 C 
ATOM     23  C   UNL     1       2.537  14.609  18.694  0.00  0.00    +0.000 C 
ENDBRANCH  21  23
ENDBRANCH  19  21
ENDBRANCH  17  19
BRANCH  17  24
ATOM     24  C   UNL     1      -0.334  12.236  18.642  0.00  0.00    +0.000 C 
BRANCH  24  25
ATOM     25  C   UNL     1      -1.665  11.558  18.365  0.00  0.00    +0.000 A 
ATOM     26  C   UNL     1      -1.704  10.352  17.639  0.00  0.00    +0.000 A 
ATOM     27  C   UNL     1      -2.922   9.790  17.245  0.00  0.00    +0.000 A 
ATOM     28  C   UNL     1      -4.118  10.397  17.612  0.00  0.00    +0.000 A 
ATOM     29  C   UNL     1      -4.095  11.533  18.415  0.00  0.00    +0.000 A 
ATOM     30  C   UNL     1      -2.878  12.097  18.806  0.00  0.00    +0.000 A 
ENDBRANCH  24  25
ENDBRANCH  17  24
ENDBRANCH   1  17
TORSDOF 7
ENDMDL
MODEL 2
REMARK VINA RESULT:      -7.4      4.121      8.515
REMARK  Name = 
REMARK  9 active torsions:
REMARK  status: ('A' for Active; 'I' for Inactive)
REMARK    1  A    between atoms: C_1  and  C_2
REMARK    2  A    between atoms: C_2  and  O_3
REMARK    3  A    between atoms: O_3  and  C_4
REMARK    4  A    between atoms: C_4  and  C_6
REMARK    5  A    between atoms: C_6  and  C_7
REMARK    6  A    between atoms: C_6  and  C_8
REMARK    7  A    between atoms: C_6  and  C_15
REMARK    8  A    between atoms: C_8  and  C_9
REMARK    9  A    between atoms: C_20  and  C_21
REMARK                            x       y       z     vdW  Elec       q    Type
REMARK                         _______ _______ _______ _____ _____    ______ ____
ROOT
ATOM      1  C   UNL     1       2.179   6.819  19.535  0.00  0.00    +0.000 A 
ATOM      2  C   UNL     1       1.676   6.559  20.758  0.00  0.00    +0.000 A 
ATOM      3  C   UNL     1       0.961   7.647  21.457  0.00  0.00    +0.000 A 
ATOM      4  N   UNL     1       0.729   8.826  20.985  0.00  0.00    +0.000 NA
ATOM      5  C   UNL     1       1.216   9.077  19.733  0.00  0.00    +0.000 A 
ATOM      6  C   UNL     1       1.134  10.205  18.934  0.00  0.00    +0.000 A 
ATOM      7  C   UNL     1       1.792   9.838  17.746  0.00  0.00    +0.000 A 
ATOM      8  N   UNL     1       2.287   8.600  17.776  0.00  0.00    +0.000 NA
ATOM      9  N   UNL     1       1.939   8.115  19.001  0.00  0.00    +0.000 N 
ENDROOT
BRANCH   6  10
ATOM     10  C   UNL     1       0.445  11.432  19.307  0.00  0.00    +0.000 A 
ATOM     11  C   UNL     1       1.156  12.527  19.824  0.00  0.00    +0.000 A 
ATOM     12  C   UNL     1       0.493  13.684  20.246  0.00  0.00    +0.000 A 
ATOM     13  C   UNL     1      -0.890  13.759  20.131  0.00  0.00    +0.000 A 
ATOM     14 CL   UNL     1      -1.711  15.171  20.671  0.00  0.00    +0.000 Cl
ATOM     15  C   UNL     1      -1.611  12.696  19.593  0.00  0.00    +0.000 A 
ATOM     16  C   UNL     1      -0.947  11.536  19.179  0.00  0.00    +0.000 A 
ENDBRANCH   6  10
BRANCH   1  17
ATOM     17  C   UNL     1       3.004   5.811  18.694  0.00  0.00    +0.000 C 
ATOM     18  C   UNL     1       4.223   5.361  19.546  0.00  0.00    +0.000 C 
BRANCH  17  19
ATOM     19  C   UNL     1       2.069   4.619  18.385  0.00  0.00    +0.000 C 
ATOM     20  O   UNL     1       1.246   4.608  17.475  0.00  0.00    +0.000 OA
BRANCH  19  21
ATOM     21  O   UNL     1       2.304   3.550  19.200  0.00  0.00    +0.000 OA
BRANCH  21  23
ATOM     22  C   UNL     1       1.408   2.834  21.354  0.00  0.00    +0.000 C 
ATOM     23  C   UNL     1       1.146   3.020  19.867  0.00  0.00    +0.000 C 
ENDBRANCH  21  23
ENDBRANCH  19  21
ENDBRANCH  17  19
BRANCH  17  24
ATOM     24  C   UNL     1       3.621   6.343  17.339  0.00  0.00    +0.000 C 
BRANCH  24  25
ATOM     25  C   UNL     1       4.879   5.720  16.759  0.00  0.00    +0.000 A 
ATOM     26  C   UNL     1       4.810   4.480  16.095  0.00  0.00    +0.000 A 
ATOM     27  C   UNL     1       5.971   3.818  15.686  0.00  0.00    +0.000 A 
ATOM     28  C   UNL     1       7.214   4.407  15.889  0.00  0.00    +0.000 A 
ATOM     29  C   UNL     1       7.290   5.678  16.453  0.00  0.00    +0.000 A 
ATOM     30  C   UNL     1       6.129   6.338  16.866  0.00  0.00    +0.000 A 
ENDBRANCH  24  25
ENDBRANCH  17  24
ENDBRANCH   1  17
TORSDOF 7
ENDMDL
MODEL 3
REMARK VINA RESULT:      -7.4      4.098      8.704
REMARK  Name = 
REMARK  9 active torsions:
REMARK  status: ('A' for Active; 'I' for Inactive)
REMARK    1  A    between atoms: C_1  and  C_2
REMARK    2  A    between atoms: C_2  and  O_3
REMARK    3  A    between atoms: O_3  and  C_4
REMARK    4  A    between atoms: C_4  and  C_6
REMARK    5  A    between atoms: C_6  and  C_7
REMARK    6  A    between atoms: C_6  and  C_8
REMARK    7  A    between atoms: C_6  and  C_15
REMARK    8  A    between atoms: C_8  and  C_9
REMARK    9  A    between atoms: C_20  and  C_21
REMARK                            x       y       z     vdW  Elec       q    Type
REMARK                         _______ _______ _______ _____ _____    ______ ____
ROOT
ATOM      1  C   UNL     1       2.891   6.800  18.339  0.00  0.00    +0.000 A 
ATOM      2  C   UNL     1       3.036   7.767  17.412  0.00  0.00    +0.000 A 
ATOM      3  C   UNL     1       2.339   9.052  17.637  0.00  0.00    +0.000 A 
ATOM      4  N   UNL     1       1.631   9.357  18.672  0.00  0.00    +0.000 NA
ATOM      5  C   UNL     1       1.510   8.384  19.624  0.00  0.00    +0.000 A 
ATOM      6  C   UNL     1       0.852   8.380  20.843  0.00  0.00    +0.000 A 
ATOM      7  C   UNL     1       1.125   7.110  21.381  0.00  0.00    +0.000 A 
ATOM      8  N   UNL     1       1.862   6.342  20.577  0.00  0.00    +0.000 NA
ATOM      9  N   UNL     1       2.108   7.117  19.483  0.00  0.00    +0.000 N 
ENDROOT
BRANCH   6  10
ATOM     10  C   UNL     1       0.117   9.513  21.387  0.00  0.00    +0.000 A 
ATOM     11  C   UNL     1      -0.272   9.536  22.736  0.00  0.00    +0.000 A 
ATOM     12  C   UNL     1      -1.034  10.591  23.249  0.00  0.00    +0.000 A 
ATOM     13  C   UNL     1      -1.394  11.642  22.416  0.00  0.00    +0.000 A 
ATOM     14 CL   UNL     1      -2.351  12.929  23.037  0.00  0.00    +0.000 Cl
ATOM     15  C   UNL     1      -0.993  11.653  21.082  0.00  0.00    +0.000 A 
ATOM     16  C   UNL     1      -0.237  10.593  20.568  0.00  0.00    +0.000 A 
ENDBRANCH   6  10
BRANCH   1  17
ATOM     17  C   UNL     1       3.503   5.381  18.227  0.00  0.00    +0.000 C 
ATOM     18  C   UNL     1       3.938   4.933  19.650  0.00  0.00    +0.000 C 
BRANCH  17  19
ATOM     19  C   UNL     1       2.395   4.461  17.667  0.00  0.00    +0.000 C 
ATOM     20  O   UNL     1       1.205   4.762  17.628  0.00  0.00    +0.000 OA
BRANCH  19  21
ATOM     21  O   UNL     1       2.894   3.296  17.159  0.00  0.00    +0.000 OA
BRANCH  21  23
ATOM     22  C   UNL     1       3.617   1.395  18.508  0.00  0.00    +0.000 C 
ATOM     23  C   UNL     1       2.455   2.099  17.824  0.00  0.00    +0.000 C 
ENDBRANCH  21  23
ENDBRANCH  19  21
ENDBRANCH  17  19
BRANCH  17  24
ATOM     24  C   UNL     1       4.798   5.227  17.332  0.00  0.00    +0.000 C 
BRANCH  24  25
ATOM     25  C   UNL     1       6.085   5.947  17.695  0.00  0.00    +0.000 A 
ATOM     26  C   UNL     1       6.944   5.406  18.671  0.00  0.00    +0.000 A 
ATOM     27  C   UNL     1       8.054   6.122  19.128  0.00  0.00    +0.000 A 
ATOM     28  C   UNL     1       8.351   7.365  18.581  0.00  0.00    +0.000 A 
ATOM     29  C   UNL     1       7.569   7.866  17.544  0.00  0.00    +0.000 A 
ATOM     30  C   UNL     1       6.456   7.152  17.091  0.00  0.00    +0.000 A 
ENDBRANCH  24  25
ENDBRANCH  17  24
ENDBRANCH   1  17
TORSDOF 7
ENDMDL
MODEL 4
REMARK VINA RESULT:      -7.3      4.088      8.559
REMARK  Name = 
REMARK  9 active torsions:
REMARK  status: ('A' for Active; 'I' for Inactive)
REMARK    1  A    between atoms: C_1  and  C_2
REMARK    2  A    between atoms: C_2  and  O_3
REMARK    3  A    between atoms: O_3  and  C_4
REMARK    4  A    between atoms: C_4  and  C_6
REMARK    5  A    between atoms: C_6  and  C_7
REMARK    6  A    between atoms: C_6  and  C_8
REMARK    7  A    between atoms: C_6  and  C_15
REMARK    8  A    between atoms: C_8  and  C_9
REMARK    9  A    between atoms: C_20  and  C_21
REMARK                            x       y       z     vdW  Elec       q    Type
REMARK                         _______ _______ _______ _____ _____    ______ ____
ROOT
ATOM      1  C   UNL     1       2.177   6.797  19.540  0.00  0.00    +0.000 A 
ATOM      2  C   UNL     1       1.671   6.543  20.762  0.00  0.00    +0.000 A 
ATOM      3  C   UNL     1       0.978   7.642  21.467  0.00  0.00    +0.000 A 
ATOM      4  N   UNL     1       0.767   8.826  20.999  0.00  0.00    +0.000 NA
ATOM      5  C   UNL     1       1.256   9.073  19.747  0.00  0.00    +0.000 A 
ATOM      6  C   UNL     1       1.195  10.205  18.951  0.00  0.00    +0.000 A 
ATOM      7  C   UNL     1       1.843   9.829  17.762  0.00  0.00    +0.000 A 
ATOM      8  N   UNL     1       2.315   8.583  17.787  0.00  0.00    +0.000 NA
ATOM      9  N   UNL     1       1.961   8.099  19.011  0.00  0.00    +0.000 N 
ENDROOT
BRANCH   6  10
ATOM     10  C   UNL     1       0.529  11.443  19.330  0.00  0.00    +0.000 A 
ATOM     11  C   UNL     1      -0.872  11.542  19.307  0.00  0.00    +0.000 A 
ATOM     12  C   UNL     1      -1.516  12.747  19.607  0.00  0.00    +0.000 A 
ATOM     13  C   UNL     1      -0.758  13.858  19.954  0.00  0.00    +0.000 A 
ATOM     14 CL   UNL     1      -1.544  15.348  20.300  0.00  0.00    +0.000 Cl
ATOM     15  C   UNL     1       0.631  13.773  20.012  0.00  0.00    +0.000 A 
ATOM     16  C   UNL     1       1.275  12.568  19.705  0.00  0.00    +0.000 A 
ENDBRANCH   6  10
BRANCH   1  17
ATOM     17  C   UNL     1       2.982   5.777  18.695  0.00  0.00    +0.000 C 
ATOM     18  C   UNL     1       4.214   5.330  19.529  0.00  0.00    +0.000 C 
BRANCH  17  19
ATOM     19  C   UNL     1       2.036   4.587  18.415  0.00  0.00    +0.000 C 
ATOM     20  O   UNL     1       1.262   4.532  17.463  0.00  0.00    +0.000 OA
BRANCH  19  21
ATOM     21  O   UNL     1       2.202   3.570  19.310  0.00  0.00    +0.000 OA
BRANCH  21  23
ATOM     22  C   UNL     1       3.387   1.783  18.145  0.00  0.00    +0.000 C 
ATOM     23  C   UNL     1       2.077   2.246  18.764  0.00  0.00    +0.000 C 
ENDBRANCH  21  23
ENDBRANCH  19  21
ENDBRANCH  17  19
BRANCH  17  24
ATOM     24  C   UNL     1       3.576   6.293  17.323  0.00  0.00    +0.000 C 
BRANCH  24  25
ATOM     25  C   UNL     1       4.856   5.701  16.758  0.00  0.00    +0.000 A 
ATOM     26  C   UNL     1       4.821   4.473  16.070  0.00  0.00    +0.000 A 
ATOM     27  C   UNL     1       6.001   3.837  15.673  0.00  0.00    +0.000 A 
ATOM     28  C   UNL     1       7.230   4.442  15.913  0.00  0.00    +0.000 A 
ATOM     29  C   UNL     1       7.274   5.703  16.502  0.00  0.00    +0.000 A 
ATOM     30  C   UNL     1       6.094   6.336  16.903  0.00  0.00    +0.000 A 
ENDBRANCH  24  25
ENDBRANCH  17  24
ENDBRANCH   1  17
TORSDOF 7
ENDMDL
MODEL 5
REMARK VINA RESULT:      -7.3      4.166      8.526
REMARK  Name = 
REMARK  9 active torsions:
REMARK  status: ('A' for Active; 'I' for Inactive)
REMARK    1  A    between atoms: C_1  and  C_2
REMARK    2  A    between atoms: C_2  and  O_3
REMARK    3  A    between atoms: O_3  and  C_4
REMARK    4  A    between atoms: C_4  and  C_6
REMARK    5  A    between atoms: C_6  and  C_7
REMARK    6  A    between atoms: C_6  and  C_8
REMARK    7  A    between atoms: C_6  and  C_15
REMARK    8  A    between atoms: C_8  and  C_9
REMARK    9  A    between atoms: C_20  and  C_21
REMARK                            x       y       z     vdW  Elec       q    Type
REMARK                         _______ _______ _______ _____ _____    ______ ____
ROOT
ATOM      1  C   UNL     1       2.289   6.664  19.499  0.00  0.00    +0.000 A 
ATOM      2  C   UNL     1       1.765   6.366  20.704  0.00  0.00    +0.000 A 
ATOM      3  C   UNL     1       1.027   7.428  21.420  0.00  0.00    +0.000 A 
ATOM      4  N   UNL     1       0.795   8.618  20.976  0.00  0.00    +0.000 NA
ATOM      5  C   UNL     1       1.303   8.908  19.741  0.00  0.00    +0.000 A 
ATOM      6  C   UNL     1       1.228  10.058  18.973  0.00  0.00    +0.000 A 
ATOM      7  C   UNL     1       1.911   9.729  17.788  0.00  0.00    +0.000 A 
ATOM      8  N   UNL     1       2.416   8.495  17.793  0.00  0.00    +0.000 NA
ATOM      9  N   UNL     1       2.049   7.972  18.997  0.00  0.00    +0.000 N 
ENDROOT
BRANCH   6  10
ATOM     10  C   UNL     1       0.522  11.268  19.367  0.00  0.00    +0.000 A 
ATOM     11  C   UNL     1      -0.771  11.535  18.886  0.00  0.00    +0.000 A 
ATOM     12  C   UNL     1      -1.430  12.726  19.209  0.00  0.00    +0.000 A 
ATOM     13  C   UNL     1      -0.803  13.650  20.035  0.00  0.00    +0.000 A 
ATOM     14 CL   UNL     1      -1.600  15.126  20.414  0.00  0.00    +0.000 Cl
ATOM     15  C   UNL     1       0.466  13.392  20.548  0.00  0.00    +0.000 A 
ATOM     16  C   UNL     1       1.127  12.202  20.217  0.00  0.00    +0.000 A 
ENDBRANCH   6  10
BRANCH   1  17
ATOM     17  C   UNL     1       3.138   5.686  18.647  0.00  0.00    +0.000 C 
ATOM     18  C   UNL     1       4.345   5.223  19.509  0.00  0.00    +0.000 C 
BRANCH  17  19
ATOM     19  C   UNL     1       2.220   4.496  18.288  0.00  0.00    +0.000 C 
ATOM     20  O   UNL     1       1.253   4.575  17.536  0.00  0.00    +0.000 OA
BRANCH  19  21
ATOM     21  O   UNL     1       2.642   3.326  18.851  0.00  0.00    +0.000 OA
BRANCH  21  23
ATOM     22  C   UNL     1       1.165   2.895  20.745  0.00  0.00    +0.000 C 
ATOM     23  C   UNL     1       1.597   2.473  19.349  0.00  0.00    +0.000 C 
ENDBRANCH  21  23
ENDBRANCH  19  21
ENDBRANCH  17  19
BRANCH  17  24
ATOM     24  C   UNL     1       3.775   6.261  17.318  0.00  0.00    +0.000 C 
BRANCH  24  25
ATOM     25  C   UNL     1       4.959   5.571  16.662  0.00  0.00    +0.000 A 
ATOM     26  C   UNL     1       6.236   6.164  16.711  0.00  0.00    +0.000 A 
ATOM     27  C   UNL     1       7.306   5.626  15.991  0.00  0.00    +0.000 A 
ATOM     28  C   UNL     1       7.129   4.462  15.251  0.00  0.00    +0.000 A 
ATOM     29  C   UNL     1       5.900   3.810  15.275  0.00  0.00    +0.000 A 
ATOM     30  C   UNL     1       4.828   4.351  15.993  0.00  0.00    +0.000 A 
ENDBRANCH  24  25
ENDBRANCH  17  24
ENDBRANCH   1  17
TORSDOF 7
ENDMDL
MODEL 6
REMARK VINA RESULT:      -7.3      0.434      1.272
REMARK  Name = 
REMARK  9 active torsions:
REMARK  status: ('A' for Active; 'I' for Inactive)
REMARK    1  A    between atoms: C_1  and  C_2
REMARK    2  A    between atoms: C_2  and  O_3
REMARK    3  A    between atoms: O_3  and  C_4
REMARK    4  A    between atoms: C_4  and  C_6
REMARK    5  A    between atoms: C_6  and  C_7
REMARK    6  A    between atoms: C_6  and  C_8
REMARK    7  A    between atoms: C_6  and  C_15
REMARK    8  A    between atoms: C_8  and  C_9
REMARK    9  A    between atoms: C_20  and  C_21
REMARK                            x       y       z     vdW  Elec       q    Type
REMARK                         _______ _______ _______ _____ _____    ______ ____
ROOT
ATOM      1  C   UNL     1       0.758  10.488  20.407  0.00  0.00    +0.000 A 
ATOM      2  C   UNL     1       0.526   9.917  21.605  0.00  0.00    +0.000 A 
ATOM      3  C   UNL     1       0.830   8.478  21.756  0.00  0.00    +0.000 A 
ATOM      4  N   UNL     1       1.346   7.715  20.852  0.00  0.00    +0.000 NA
ATOM      5  C   UNL     1       1.607   8.304  19.647  0.00  0.00    +0.000 A 
ATOM      6  C   UNL     1       2.164   7.794  18.486  0.00  0.00    +0.000 A 
ATOM      7  C   UNL     1       2.208   8.894  17.610  0.00  0.00    +0.000 A 
ATOM      8  N   UNL     1       1.698  10.009  18.134  0.00  0.00    +0.000 NA
ATOM      9  N   UNL     1       1.320   9.660  19.396  0.00  0.00    +0.000 N 
ENDROOT
BRANCH   6  10
ATOM     10  C   UNL     1       2.626   6.423  18.326  0.00  0.00    +0.000 A 
ATOM     11  C   UNL     1       3.998   6.126  18.293  0.00  0.00    +0.000 A 
ATOM     12  C   UNL     1       4.449   4.820  18.076  0.00  0.00    +0.000 A 
ATOM     13  C   UNL     1       3.524   3.797  17.910  0.00  0.00    +0.000 A 
ATOM     14 CL   UNL     1       4.074   2.194  17.619  0.00  0.00    +0.000 Cl
ATOM     15  C   UNL     1       2.158   4.064  17.970  0.00  0.00    +0.000 A 
ATOM     16  C   UNL     1       1.708   5.374  18.180  0.00  0.00    +0.000 A 
ENDBRANCH   6  10
BRANCH   1  17
ATOM     17  C   UNL     1       0.440  11.966  20.064  0.00  0.00    +0.000 C 
ATOM     18  C   UNL     1      -0.571  12.495  21.118  0.00  0.00    +0.000 C 
BRANCH  17  19
ATOM     19  C   UNL     1       1.778  12.737  20.137  0.00  0.00    +0.000 C 
ATOM     20  O   UNL     1       2.404  12.933  21.174  0.00  0.00    +0.000 OA
BRANCH  19  21
ATOM     21  O   UNL     1       2.221  13.124  18.905  0.00  0.00    +0.000 OA
BRANCH  21  23
ATOM     22  C   UNL     1       1.591  15.480  18.813  0.00  0.00    +0.000 C 
ATOM     23  C   UNL     1       2.727  14.468  18.830  0.00  0.00    +0.000 C 
ENDBRANCH  21  23
ENDBRANCH  19  21
ENDBRANCH  17  19
BRANCH  17  24
ATOM     24  C   UNL     1      -0.238  12.247  18.663  0.00  0.00    +0.000 C 
BRANCH  24  25
ATOM     25  C   UNL     1      -1.566  11.606  18.299  0.00  0.00    +0.000 A 
ATOM     26  C   UNL     1      -2.773  12.211  18.696  0.00  0.00    +0.000 A 
ATOM     27  C   UNL     1      -3.998  11.566  18.502  0.00  0.00    +0.000 A 
ATOM     28  C   UNL     1      -4.039  10.331  17.866  0.00  0.00    +0.000 A 
ATOM     29  C   UNL     1      -2.863   9.768  17.378  0.00  0.00    +0.000 A 
ATOM     30  C   UNL     1      -1.638  10.411  17.575  0.00  0.00    +0.000 A 
ENDBRANCH  24  25
ENDBRANCH  17  24
ENDBRANCH   1  17
TORSDOF 7
ENDMDL
MODEL 7
REMARK VINA RESULT:      -7.3      4.103      8.641
REMARK  Name = 
REMARK  9 active torsions:
REMARK  status: ('A' for Active; 'I' for Inactive)
REMARK    1  A    between atoms: C_1  and  C_2
REMARK    2  A    between atoms: C_2  and  O_3
REMARK    3  A    between atoms: O_3  and  C_4
REMARK    4  A    between atoms: C_4  and  C_6
REMARK    5  A    between atoms: C_6  and  C_7
REMARK    6  A    between atoms: C_6  and  C_8
REMARK    7  A    between atoms: C_6  and  C_15
REMARK    8  A    between atoms: C_8  and  C_9
REMARK    9  A    between atoms: C_20  and  C_21
REMARK                            x       y       z     vdW  Elec       q    Type
REMARK                         _______ _______ _______ _____ _____    ______ ____
ROOT
ATOM      1  C   UNL     1       2.209   6.764  19.505  0.00  0.00    +0.000 A 
ATOM      2  C   UNL     1       1.694   6.496  20.722  0.00  0.00    +0.000 A 
ATOM      3  C   UNL     1       0.988   7.585  21.429  0.00  0.00    +0.000 A 
ATOM      4  N   UNL     1       0.775   8.772  20.968  0.00  0.00    +0.000 NA
ATOM      5  C   UNL     1       1.273   9.032  19.723  0.00  0.00    +0.000 A 
ATOM      6  C   UNL     1       1.211  10.170  18.936  0.00  0.00    +0.000 A 
ATOM      7  C   UNL     1       1.872   9.808  17.749  0.00  0.00    +0.000 A 
ATOM      8  N   UNL     1       2.352   8.564  17.768  0.00  0.00    +0.000 NA
ATOM      9  N   UNL     1       1.990   8.069  18.985  0.00  0.00    +0.000 N 
ENDROOT
BRANCH   6  10
ATOM     10  C   UNL     1       0.535  11.401  19.319  0.00  0.00    +0.000 A 
ATOM     11  C   UNL     1       1.209  12.395  20.046  0.00  0.00    +0.000 A 
ATOM     12  C   UNL     1       0.547  13.551  20.474  0.00  0.00    +0.000 A 
ATOM     13  C   UNL     1      -0.794  13.728  20.155  0.00  0.00    +0.000 A 
ATOM     14 CL   UNL     1      -1.617  15.136  20.699  0.00  0.00    +0.000 Cl
ATOM     15  C   UNL     1      -1.473  12.768  19.409  0.00  0.00    +0.000 A 
ATOM     16  C   UNL     1      -0.811  11.608  18.989  0.00  0.00    +0.000 A 
ENDBRANCH   6  10
BRANCH   1  17
ATOM     17  C   UNL     1       3.027   5.755  18.659  0.00  0.00    +0.000 C 
ATOM     18  C   UNL     1       4.198   5.232  19.536  0.00  0.00    +0.000 C 
BRANCH  17  19
ATOM     19  C   UNL     1       2.062   4.610  18.276  0.00  0.00    +0.000 C 
ATOM     20  O   UNL     1       1.196   4.701  17.411  0.00  0.00    +0.000 OA
BRANCH  19  21
ATOM     21  O   UNL     1       2.322   3.460  18.964  0.00  0.00    +0.000 OA
BRANCH  21  23
ATOM     22  C   UNL     1       3.625   1.457  18.468  0.00  0.00    +0.000 C 
ATOM     23  C   UNL     1       2.373   2.266  18.165  0.00  0.00    +0.000 C 
ENDBRANCH  21  23
ENDBRANCH  19  21
ENDBRANCH  17  19
BRANCH  17  24
ATOM     24  C   UNL     1       3.710   6.310  17.345  0.00  0.00    +0.000 C 
BRANCH  24  25
ATOM     25  C   UNL     1       4.920   5.614  16.744  0.00  0.00    +0.000 A 
ATOM     26  C   UNL     1       6.190   6.218  16.818  0.00  0.00    +0.000 A 
ATOM     27  C   UNL     1       7.286   5.671  16.146  0.00  0.00    +0.000 A 
ATOM     28  C   UNL     1       7.141   4.488  15.430  0.00  0.00    +0.000 A 
ATOM     29  C   UNL     1       5.916   3.826  15.432  0.00  0.00    +0.000 A 
ATOM     30  C   UNL     1       4.819   4.376  16.102  0.00  0.00    +0.000 A 
ENDBRANCH  24  25
ENDBRANCH  17  24
ENDBRANCH   1  17
TORSDOF 7
ENDMDL
MODEL 8
REMARK VINA RESULT:      -7.2      4.261      8.615
REMARK  Name = 
REMARK  9 active torsions:
REMARK  status: ('A' for Active; 'I' for Inactive)
REMARK    1  A    between atoms: C_1  and  C_2
REMARK    2  A    between atoms: C_2  and  O_3
REMARK    3  A    between atoms: O_3  and  C_4
REMARK    4  A    between atoms: C_4  and  C_6
REMARK    5  A    between atoms: C_6  and  C_7
REMARK    6  A    between atoms: C_6  and  C_8
REMARK    7  A    between atoms: C_6  and  C_15
REMARK    8  A    between atoms: C_8  and  C_9
REMARK    9  A    between atoms: C_20  and  C_21
REMARK                            x       y       z     vdW  Elec       q    Type
REMARK                         _______ _______ _______ _____ _____    ______ ____
ROOT
ATOM      1  C   UNL     1       2.330   7.170  18.729  0.00  0.00    +0.000 A 
ATOM      2  C   UNL     1       2.422   7.942  17.629  0.00  0.00    +0.000 A 
ATOM      3  C   UNL     1       1.857   9.307  17.692  0.00  0.00    +0.000 A 
ATOM      4  N   UNL     1       1.317   9.854  18.728  0.00  0.00    +0.000 NA
ATOM      5  C   UNL     1       1.251   9.079  19.851  0.00  0.00    +0.000 A 
ATOM      6  C   UNL     1       0.761   9.351  21.118  0.00  0.00    +0.000 A 
ATOM      7  C   UNL     1       1.009   8.173  21.846  0.00  0.00    +0.000 A 
ATOM      8  N   UNL     1       1.575   7.210  21.118  0.00  0.00    +0.000 NA
ATOM      9  N   UNL     1       1.731   7.755  19.879  0.00  0.00    +0.000 N 
ENDROOT
BRANCH   6  10
ATOM     10  C   UNL     1       0.190  10.627  21.525  0.00  0.00    +0.000 A 
ATOM     11  C   UNL     1       0.651  11.831  20.968  0.00  0.00    +0.000 A 
ATOM     12  C   UNL     1       0.153  13.064  21.401  0.00  0.00    +0.000 A 
ATOM     13  C   UNL     1      -0.829  13.097  22.383  0.00  0.00    +0.000 A 
ATOM     14 CL   UNL     1      -1.427  14.612  22.935  0.00  0.00    +0.000 Cl
ATOM     15  C   UNL     1      -1.322  11.913  22.927  0.00  0.00    +0.000 A 
ATOM     16  C   UNL     1      -0.817  10.680  22.498  0.00  0.00    +0.000 A 
ENDBRANCH   6  10
BRANCH   1  17
ATOM     17  C   UNL     1       2.816   5.700  18.812  0.00  0.00    +0.000 C 
ATOM     18  C   UNL     1       3.340   5.449  20.252  0.00  0.00    +0.000 C 
BRANCH  17  19
ATOM     19  C   UNL     1       1.592   4.809  18.500  0.00  0.00    +0.000 C 
ATOM     20  O   UNL     1       1.247   4.485  17.368  0.00  0.00    +0.000 OA
BRANCH  19  21
ATOM     21  O   UNL     1       0.971   4.366  19.632  0.00  0.00    +0.000 OA
BRANCH  21  23
ATOM     22  C   UNL     1       1.400   2.621  21.285  0.00  0.00    +0.000 C 
ATOM     23  C   UNL     1       1.027   2.945  19.846  0.00  0.00    +0.000 C 
ENDBRANCH  21  23
ENDBRANCH  19  21
ENDBRANCH  17  19
BRANCH  17  24
ATOM     24  C   UNL     1       4.008   5.285  17.860  0.00  0.00    +0.000 C 
BRANCH  24  25
ATOM     25  C   UNL     1       5.406   5.839  18.076  0.00  0.00    +0.000 A 
ATOM     26  C   UNL     1       5.863   6.922  17.300  0.00  0.00    +0.000 A 
ATOM     27  C   UNL     1       7.191   7.351  17.377  0.00  0.00    +0.000 A 
ATOM     28  C   UNL     1       8.068   6.738  18.265  0.00  0.00    +0.000 A 
ATOM     29  C   UNL     1       7.604   5.734  19.110  0.00  0.00    +0.000 A 
ATOM     30  C   UNL     1       6.276   5.303  19.030  0.00  0.00    +0.000 A 
ENDBRANCH  24  25
ENDBRANCH  17  24
ENDBRANCH   1  17
TORSDOF 7
ENDMDL
MODEL 9
REMARK VINA RESULT:      -7.2      4.209      8.597
REMARK  Name = 
REMARK  9 active torsions:
REMARK  status: ('A' for Active; 'I' for Inactive)
REMARK    1  A    between atoms: C_1  and  C_2
REMARK    2  A    between atoms: C_2  and  O_3
REMARK    3  A    between atoms: O_3  and  C_4
REMARK    4  A    between atoms: C_4  and  C_6
REMARK    5  A    between atoms: C_6  and  C_7
REMARK    6  A    between atoms: C_6  and  C_8
REMARK    7  A    between atoms: C_6  and  C_15
REMARK    8  A    between atoms: C_8  and  C_9
REMARK    9  A    between atoms: C_20  and  C_21
REMARK                            x       y       z     vdW  Elec       q    Type
REMARK                         _______ _______ _______ _____ _____    ______ ____
ROOT
ATOM      1  C   UNL     1       2.776   6.801  18.413  0.00  0.00    +0.000 A 
ATOM      2  C   UNL     1       2.846   7.712  17.422  0.00  0.00    +0.000 A 
ATOM      3  C   UNL     1       2.163   9.007  17.623  0.00  0.00    +0.000 A 
ATOM      4  N   UNL     1       1.534   9.373  18.689  0.00  0.00    +0.000 NA
ATOM      5  C   UNL     1       1.489   8.459  19.703  0.00  0.00    +0.000 A 
ATOM      6  C   UNL     1       0.925   8.527  20.967  0.00  0.00    +0.000 A 
ATOM      7  C   UNL     1       1.243   7.290  21.556  0.00  0.00    +0.000 A 
ATOM      8  N   UNL     1       1.921   6.476  20.746  0.00  0.00    +0.000 NA
ATOM      9  N   UNL     1       2.080   7.185  19.593  0.00  0.00    +0.000 N 
ENDROOT
BRANCH   6  10
ATOM     10  C   UNL     1       0.228   9.690  21.497  0.00  0.00    +0.000 A 
ATOM     11  C   UNL     1       0.327  10.938  20.861  0.00  0.00    +0.000 A 
ATOM     12  C   UNL     1      -0.286  12.074  21.400  0.00  0.00    +0.000 A 
ATOM     13  C   UNL     1      -1.023  11.960  22.573  0.00  0.00    +0.000 A 
ATOM     14 CL   UNL     1      -1.758  13.358  23.252  0.00  0.00    +0.000 Cl
ATOM     15  C   UNL     1      -1.159  10.725  23.203  0.00  0.00    +0.000 A 
ATOM     16  C   UNL     1      -0.538   9.591  22.666  0.00  0.00    +0.000 A 
ENDBRANCH   6  10
BRANCH   1  17
ATOM     17  C   UNL     1       3.384   5.378  18.340  0.00  0.00    +0.000 C 
ATOM     18  C   UNL     1       3.878   4.993  19.762  0.00  0.00    +0.000 C 
BRANCH  17  19
ATOM     19  C   UNL     1       2.254   4.435  17.868  0.00  0.00    +0.000 C 
ATOM     20  O   UNL     1       2.275   3.810  16.811  0.00  0.00    +0.000 OA
BRANCH  19  21
ATOM     21  O   UNL     1       1.253   4.322  18.789  0.00  0.00    +0.000 OA
BRANCH  21  23
ATOM     22  C   UNL     1       1.155   2.825  20.715  0.00  0.00    +0.000 C 
ATOM     23  C   UNL     1       0.958   2.980  19.214  0.00  0.00    +0.000 C 
ENDBRANCH  21  23
ENDBRANCH  19  21
ENDBRANCH  17  19
BRANCH  17  24
ATOM     24  C   UNL     1       4.640   5.182  17.399  0.00  0.00    +0.000 C 
BRANCH  24  25
ATOM     25  C   UNL     1       5.968   5.843  17.728  0.00  0.00    +0.000 A 
ATOM     26  C   UNL     1       6.826   5.265  18.682  0.00  0.00    +0.000 A 
ATOM     27  C   UNL     1       7.980   5.929  19.108  0.00  0.00    +0.000 A 
ATOM     28  C   UNL     1       8.318   7.158  18.551  0.00  0.00    +0.000 A 
ATOM     29  C   UNL     1       7.533   7.694  17.535  0.00  0.00    +0.000 A 
ATOM     30  C   UNL     1       6.377   7.030  17.112  0.00  0.00    +0.000 A 
ENDBRANCH  24  25
ENDBRANCH  17  24
ENDBRANCH   1  17
TORSDOF 7
ENDMDL
