MODEL 1
REMARK VINA RESULT:      -8.4      0.000      0.000
REMARK  Name = 
REMARK  5 active torsions:
REMARK  status: ('A' for Active; 'I' for Inactive)
REMARK    1  A    between atoms: N_11  and  C_12
REMARK    2  A    between atoms: C_12  and  C_13
REMARK    3  A    between atoms: C_13  and  O_14
REMARK    4  A    between atoms: O_14  and  C_15
REMARK    5  A    between atoms: C_15  and  C_16
REMARK                            x       y       z     vdW  Elec       q    Type
REMARK                         _______ _______ _______ _____ _____    ______ ____
ROOT
ATOM      1  C   UNL     1       4.255   4.547  19.461  0.00  0.00    +0.000 C 
ENDROOT
BRANCH   1  12
ATOM      2  O   UNL     1       3.843   6.432  17.342  0.00  0.00    +0.000 OA
ATOM      3  C   UNL     1       3.136   6.448  18.340  0.00  0.00    +0.000 C 
ATOM      4  C   UNL     1       2.291   7.621  18.651  0.00  0.00    +0.000 A 
ATOM      5  C   UNL     1       2.184   8.685  17.751  0.00  0.00    +0.000 A 
ATOM      6  C   UNL     1       1.571   9.870  18.158  0.00  0.00    +0.000 A 
ATOM      7  C   UNL     1       1.078   9.991  19.458  0.00  0.00    +0.000 A 
ATOM      8  C   UNL     1       1.166   8.917  20.347  0.00  0.00    +0.000 A 
ATOM      9  C   UNL     1       1.758   7.725  19.937  0.00  0.00    +0.000 A 
ATOM     10  O   UNL     1       1.850   6.719  20.864  0.00  0.00    +0.000 OA
ATOM     11  C   UNL     1       2.040   5.442  20.253  0.00  0.00    +0.000 C 
ATOM     12  N   UNL     1       3.147   5.484  19.329  0.00  0.00    +0.000 N 
ENDBRANCH   1  12
BRANCH   1  13
ATOM     13  C   UNL     1       5.649   5.171  19.378  0.00  0.00    +0.000 C 
BRANCH  13  14
ATOM     14  O   UNL     1       6.536   4.472  18.515  0.00  0.00    +0.000 OA
BRANCH  14  15
ATOM     15  C   UNL     1       7.336   5.321  17.682  0.00  0.00    +0.000 C 
BRANCH  15  16
ATOM     16  C   UNL     1       6.935   5.009  16.287  0.00  0.00    +0.000 A 
ATOM     17  C   UNL     1       5.936   4.222  15.764  0.00  0.00    +0.000 A 
ATOM     18  C   UNL     1       6.215   4.098  14.385  0.00  0.00    +0.000 A 
ATOM     19  C   UNL     1       5.710   3.315  13.334  0.00  0.00    +0.000 A 
ATOM     20  C   UNL     1       6.266   3.470  12.059  0.00  0.00    +0.000 A 
ATOM     21  C   UNL     1       7.256   4.426  11.820  0.00  0.00    +0.000 A 
ATOM     22  C   UNL     1       7.773   5.213  12.855  0.00  0.00    +0.000 A 
ATOM     23  C   UNL     1       7.253   4.980  14.126  0.00  0.00    +0.000 A 
ATOM     24  O   UNL     1       7.691   5.543  15.285  0.00  0.00    +0.000 OA
ENDBRANCH  15  16
ENDBRANCH  14  15
ENDBRANCH  13  14
ENDBRANCH   1  13
TORSDOF 5
ENDMDL
MODEL 2
REMARK VINA RESULT:      -8.1      4.918      7.101
REMARK  Name = 
REMARK  5 active torsions:
REMARK  status: ('A' for Active; 'I' for Inactive)
REMARK    1  A    between atoms: N_11  and  C_12
REMARK    2  A    between atoms: C_12  and  C_13
REMARK    3  A    between atoms: C_13  and  O_14
REMARK    4  A    between atoms: O_14  and  C_15
REMARK    5  A    between atoms: C_15  and  C_16
REMARK                            x       y       z     vdW  Elec       q    Type
REMARK                         _______ _______ _______ _____ _____    ______ ____
ROOT
ATOM      1  C   UNL     1       6.077   7.099  17.188  0.00  0.00    +0.000 C 
ENDROOT
BRANCH   1  12
ATOM      2  O   UNL     1       3.318   7.082  17.962  0.00  0.00    +0.000 OA
ATOM      3  C   UNL     1       3.839   6.085  17.482  0.00  0.00    +0.000 C 
ATOM      4  C   UNL     1       3.190   4.762  17.598  0.00  0.00    +0.000 A 
ATOM      5  C   UNL     1       1.912   4.636  18.147  0.00  0.00    +0.000 A 
ATOM      6  C   UNL     1       1.416   3.369  18.454  0.00  0.00    +0.000 A 
ATOM      7  C   UNL     1       2.200   2.237  18.221  0.00  0.00    +0.000 A 
ATOM      8  C   UNL     1       3.469   2.365  17.650  0.00  0.00    +0.000 A 
ATOM      9  C   UNL     1       3.957   3.628  17.322  0.00  0.00    +0.000 A 
ATOM     10  O   UNL     1       5.223   3.695  16.800  0.00  0.00    +0.000 OA
ATOM     11  C   UNL     1       5.450   4.918  16.099  0.00  0.00    +0.000 C 
ATOM     12  N   UNL     1       5.103   6.047  16.928  0.00  0.00    +0.000 N 
ENDBRANCH   1  12
BRANCH   1  13
ATOM     13  C   UNL     1       7.290   6.673  18.017  0.00  0.00    +0.000 C 
BRANCH  13  14
ATOM     14  O   UNL     1       8.298   7.672  18.106  0.00  0.00    +0.000 OA
BRANCH  14  15
ATOM     15  C   UNL     1       7.812   9.011  17.947  0.00  0.00    +0.000 C 
BRANCH  15  16
ATOM     16  C   UNL     1       8.887   9.893  18.470  0.00  0.00    +0.000 A 
ATOM     17  C   UNL     1       9.245  10.260  19.745  0.00  0.00    +0.000 A 
ATOM     18  C   UNL     1      10.164  11.323  19.603  0.00  0.00    +0.000 A 
ATOM     19  C   UNL     1      10.765  12.242  20.479  0.00  0.00    +0.000 A 
ATOM     20  C   UNL     1      11.649  13.190  19.949  0.00  0.00    +0.000 A 
ATOM     21  C   UNL     1      11.977  13.184  18.591  0.00  0.00    +0.000 A 
ATOM     22  C   UNL     1      11.387  12.276  17.704  0.00  0.00    +0.000 A 
ATOM     23  C   UNL     1      10.454  11.398  18.249  0.00  0.00    +0.000 A 
ATOM     24  O   UNL     1       9.680  10.520  17.555  0.00  0.00    +0.000 OA
ENDBRANCH  15  16
ENDBRANCH  14  15
ENDBRANCH  13  14
ENDBRANCH   1  13
TORSDOF 5
ENDMDL
MODEL 3
REMARK VINA RESULT:      -8.0      1.885      3.457
REMARK  Name = 
REMARK  5 active torsions:
REMARK  status: ('A' for Active; 'I' for Inactive)
REMARK    1  A    between atoms: N_11  and  C_12
REMARK    2  A    between atoms: C_12  and  C_13
REMARK    3  A    between atoms: C_13  and  O_14
REMARK    4  A    between atoms: O_14  and  C_15
REMARK    5  A    between atoms: C_15  and  C_16
REMARK                            x       y       z     vdW  Elec       q    Type
REMARK                         _______ _______ _______ _____ _____    ______ ____
ROOT
ATOM      1  C   UNL     1       4.180   7.009  17.446  0.00  0.00    +0.000 C 
ENDROOT
BRANCH   1  12
ATOM      2  O   UNL     1       2.483   7.049  19.755  0.00  0.00    +0.000 OA
ATOM      3  C   UNL     1       2.744   5.997  19.188  0.00  0.00    +0.000 C 
ATOM      4  C   UNL     1       2.491   4.698  19.849  0.00  0.00    +0.000 A 
ATOM      5  C   UNL     1       1.836   4.638  21.081  0.00  0.00    +0.000 A 
ATOM      6  C   UNL     1       1.811   3.435  21.789  0.00  0.00    +0.000 A 
ATOM      7  C   UNL     1       2.446   2.306  21.268  0.00  0.00    +0.000 A 
ATOM      8  C   UNL     1       3.080   2.365  20.024  0.00  0.00    +0.000 A 
ATOM      9  C   UNL     1       3.087   3.558  19.307  0.00  0.00    +0.000 A 
ATOM     10  O   UNL     1       3.756   3.567  18.110  0.00  0.00    +0.000 OA
ATOM     11  C   UNL     1       3.340   4.643  17.269  0.00  0.00    +0.000 C 
ATOM     12  N   UNL     1       3.408   5.895  17.982  0.00  0.00    +0.000 N 
ENDBRANCH   1  12
BRANCH   1  13
ATOM     13  C   UNL     1       5.640   6.689  17.117  0.00  0.00    +0.000 C 
BRANCH  13  14
ATOM     14  O   UNL     1       6.281   5.884  18.098  0.00  0.00    +0.000 OA
BRANCH  14  15
ATOM     15  C   UNL     1       7.318   5.041  17.579  0.00  0.00    +0.000 C 
BRANCH  15  16
ATOM     16  C   UNL     1       6.972   4.812  16.153  0.00  0.00    +0.000 A 
ATOM     17  C   UNL     1       6.059   3.985  15.542  0.00  0.00    +0.000 A 
ATOM     18  C   UNL     1       6.373   4.003  14.166  0.00  0.00    +0.000 A 
ATOM     19  C   UNL     1       5.961   3.269  13.041  0.00  0.00    +0.000 A 
ATOM     20  C   UNL     1       6.524   3.580  11.797  0.00  0.00    +0.000 A 
ATOM     21  C   UNL     1       7.425   4.639  11.663  0.00  0.00    +0.000 A 
ATOM     22  C   UNL     1       7.848   5.380  12.772  0.00  0.00    +0.000 A 
ATOM     23  C   UNL     1       7.329   4.995  14.006  0.00  0.00    +0.000 A 
ATOM     24  O   UNL     1       7.693   5.495  15.218  0.00  0.00    +0.000 OA
ENDBRANCH  15  16
ENDBRANCH  14  15
ENDBRANCH  13  14
ENDBRANCH   1  13
TORSDOF 5
ENDMDL
MODEL 4
REMARK VINA RESULT:      -8.0      4.508      6.689
REMARK  Name = 
REMARK  5 active torsions:
REMARK  status: ('A' for Active; 'I' for Inactive)
REMARK    1  A    between atoms: N_11  and  C_12
REMARK    2  A    between atoms: C_12  and  C_13
REMARK    3  A    between atoms: C_13  and  O_14
REMARK    4  A    between atoms: O_14  and  C_15
REMARK    5  A    between atoms: C_15  and  C_16
REMARK                            x       y       z     vdW  Elec       q    Type
REMARK                         _______ _______ _______ _____ _____    ______ ____
ROOT
ATOM      1  C   UNL     1       5.159   6.898  17.413  0.00  0.00    +0.000 C 
ENDROOT
BRANCH   1  12
ATOM      2  O   UNL     1       2.469   6.852  18.403  0.00  0.00    +0.000 OA
ATOM      3  C   UNL     1       3.159   5.843  18.420  0.00  0.00    +0.000 C 
ATOM      4  C   UNL     1       2.775   4.677  19.245  0.00  0.00    +0.000 A 
ATOM      5  C   UNL     1       1.556   4.653  19.926  0.00  0.00    +0.000 A 
ATOM      6  C   UNL     1       1.315   3.655  20.871  0.00  0.00    +0.000 A 
ATOM      7  C   UNL     1       2.294   2.696  21.138  0.00  0.00    +0.000 A 
ATOM      8  C   UNL     1       3.503   2.710  20.438  0.00  0.00    +0.000 A 
ATOM      9  C   UNL     1       3.736   3.692  19.479  0.00  0.00    +0.000 A 
ATOM     10  O   UNL     1       4.955   3.679  18.851  0.00  0.00    +0.000 OA
ATOM     11  C   UNL     1       4.933   4.399  17.618  0.00  0.00    +0.000 C 
ATOM     12  N   UNL     1       4.396   5.723  17.818  0.00  0.00    +0.000 N 
ENDBRANCH   1  12
BRANCH   1  13
ATOM     13  C   UNL     1       6.609   6.624  17.010  0.00  0.00    +0.000 C 
BRANCH  13  14
ATOM     14  O   UNL     1       7.449   7.769  17.095  0.00  0.00    +0.000 OA
BRANCH  14  15
ATOM     15  C   UNL     1       8.193   7.861  18.317  0.00  0.00    +0.000 C 
BRANCH  15  16
ATOM     16  C   UNL     1       8.570   9.291  18.450  0.00  0.00    +0.000 A 
ATOM     17  C   UNL     1       8.341  10.388  17.653  0.00  0.00    +0.000 A 
ATOM     18  C   UNL     1       9.167  11.417  18.156  0.00  0.00    +0.000 A 
ATOM     19  C   UNL     1       9.539  12.698  17.717  0.00  0.00    +0.000 A 
ATOM     20  C   UNL     1      10.416  13.448  18.510  0.00  0.00    +0.000 A 
ATOM     21  C   UNL     1      10.861  12.962  19.742  0.00  0.00    +0.000 A 
ATOM     22  C   UNL     1      10.502  11.688  20.195  0.00  0.00    +0.000 A 
ATOM     23  C   UNL     1       9.691  10.937  19.346  0.00  0.00    +0.000 A 
ATOM     24  O   UNL     1       9.323   9.640  19.532  0.00  0.00    +0.000 OA
ENDBRANCH  15  16
ENDBRANCH  14  15
ENDBRANCH  13  14
ENDBRANCH   1  13
TORSDOF 5
ENDMDL
MODEL 5
REMARK VINA RESULT:      -7.9      4.725      6.788
REMARK  Name = 
REMARK  5 active torsions:
REMARK  status: ('A' for Active; 'I' for Inactive)
REMARK    1  A    between atoms: N_11  and  C_12
REMARK    2  A    between atoms: C_12  and  C_13
REMARK    3  A    between atoms: C_13  and  O_14
REMARK    4  A    between atoms: O_14  and  C_15
REMARK    5  A    between atoms: C_15  and  C_16
REMARK                            x       y       z     vdW  Elec       q    Type
REMARK                         _______ _______ _______ _____ _____    ______ ____
ROOT
ATOM      1  C   UNL     1       7.119   5.707  17.376  0.00  0.00    +0.000 C 
ENDROOT
BRANCH   1  12
ATOM      2  O   UNL     1       5.324   3.821  16.177  0.00  0.00    +0.000 OA
ATOM      3  C   UNL     1       5.163   4.191  17.331  0.00  0.00    +0.000 C 
ATOM      4  C   UNL     1       3.879   3.962  18.028  0.00  0.00    +0.000 A 
ATOM      5  C   UNL     1       2.865   3.210  17.430  0.00  0.00    +0.000 A 
ATOM      6  C   UNL     1       1.591   3.197  17.999  0.00  0.00    +0.000 A 
ATOM      7  C   UNL     1       1.335   3.939  19.153  0.00  0.00    +0.000 A 
ATOM      8  C   UNL     1       2.358   4.671  19.761  0.00  0.00    +0.000 A 
ATOM      9  C   UNL     1       3.635   4.668  19.207  0.00  0.00    +0.000 A 
ATOM     10  O   UNL     1       4.589   5.435  19.825  0.00  0.00    +0.000 OA
ATOM     11  C   UNL     1       5.914   5.027  19.478  0.00  0.00    +0.000 C 
ATOM     12  N   UNL     1       6.061   4.960  18.045  0.00  0.00    +0.000 N 
ENDBRANCH   1  12
BRANCH   1  13
ATOM     13  C   UNL     1       6.696   7.062  16.805  0.00  0.00    +0.000 C 
BRANCH  13  14
ATOM     14  O   UNL     1       7.668   8.084  16.988  0.00  0.00    +0.000 OA
BRANCH  14  15
ATOM     15  C   UNL     1       8.222   8.136  18.310  0.00  0.00    +0.000 C 
BRANCH  15  16
ATOM     16  C   UNL     1       8.677   9.537  18.499  0.00  0.00    +0.000 A 
ATOM     17  C   UNL     1       8.547  10.666  17.725  0.00  0.00    +0.000 A 
ATOM     18  C   UNL     1       9.411  11.630  18.290  0.00  0.00    +0.000 A 
ATOM     19  C   UNL     1       9.876  12.897  17.902  0.00  0.00    +0.000 A 
ATOM     20  C   UNL     1      10.764  13.571  18.750  0.00  0.00    +0.000 A 
ATOM     21  C   UNL     1      11.129  13.027  19.984  0.00  0.00    +0.000 A 
ATOM     22  C   UNL     1      10.677  11.765  20.386  0.00  0.00    +0.000 A 
ATOM     23  C   UNL     1       9.858  11.088  19.485  0.00  0.00    +0.000 A 
ATOM     24  O   UNL     1       9.406   9.811  19.619  0.00  0.00    +0.000 OA
ENDBRANCH  15  16
ENDBRANCH  14  15
ENDBRANCH  13  14
ENDBRANCH   1  13
TORSDOF 5
ENDMDL
MODEL 6
REMARK VINA RESULT:      -7.8      2.768      4.846
REMARK  Name = 
REMARK  5 active torsions:
REMARK  status: ('A' for Active; 'I' for Inactive)
REMARK    1  A    between atoms: N_11  and  C_12
REMARK    2  A    between atoms: C_12  and  C_13
REMARK    3  A    between atoms: C_13  and  O_14
REMARK    4  A    between atoms: O_14  and  C_15
REMARK    5  A    between atoms: C_15  and  C_16
REMARK                            x       y       z     vdW  Elec       q    Type
REMARK                         _______ _______ _______ _____ _____    ______ ____
ROOT
ATOM      1  C   UNL     1       3.945   7.336  17.233  0.00  0.00    +0.000 C 
ENDROOT
BRANCH   1  12
ATOM      2  O   UNL     1       2.172   9.588  17.212  0.00  0.00    +0.000 OA
ATOM      3  C   UNL     1       2.107   8.749  18.100  0.00  0.00    +0.000 C 
ATOM      4  C   UNL     1       1.373   9.028  19.353  0.00  0.00    +0.000 A 
ATOM      5  C   UNL     1       0.634  10.204  19.503  0.00  0.00    +0.000 A 
ATOM      6  C   UNL     1       0.142  10.551  20.761  0.00  0.00    +0.000 A 
ATOM      7  C   UNL     1       0.397   9.730  21.862  0.00  0.00    +0.000 A 
ATOM      8  C   UNL     1       1.117   8.543  21.703  0.00  0.00    +0.000 A 
ATOM      9  C   UNL     1       1.590   8.184  20.443  0.00  0.00    +0.000 A 
ATOM     10  O   UNL     1       2.322   7.028  20.355  0.00  0.00    +0.000 OA
ATOM     11  C   UNL     1       2.369   6.522  19.020  0.00  0.00    +0.000 C 
ATOM     12  N   UNL     1       2.797   7.553  18.105  0.00  0.00    +0.000 N 
ENDBRANCH   1  12
BRANCH   1  13
ATOM     13  C   UNL     1       5.093   6.540  17.856  0.00  0.00    +0.000 C 
BRANCH  13  14
ATOM     14  O   UNL     1       5.655   5.571  16.980  0.00  0.00    +0.000 OA
BRANCH  14  15
ATOM     15  C   UNL     1       6.028   4.345  17.624  0.00  0.00    +0.000 C 
BRANCH  15  16
ATOM     16  C   UNL     1       4.760   3.748  18.116  0.00  0.00    +0.000 A 
ATOM     17  C   UNL     1       3.634   3.300  17.467  0.00  0.00    +0.000 A 
ATOM     18  C   UNL     1       2.660   3.094  18.469  0.00  0.00    +0.000 A 
ATOM     19  C   UNL     1       1.283   2.819  18.476  0.00  0.00    +0.000 A 
ATOM     20  C   UNL     1       0.634   2.687  19.710  0.00  0.00    +0.000 A 
ATOM     21  C   UNL     1       1.349   2.763  20.907  0.00  0.00    +0.000 A 
ATOM     22  C   UNL     1       2.721   3.038  20.920  0.00  0.00    +0.000 A 
ATOM     23  C   UNL     1       3.321   3.241  19.679  0.00  0.00    +0.000 A 
ATOM     24  O   UNL     1       4.606   3.634  19.466  0.00  0.00    +0.000 OA
ENDBRANCH  15  16
ENDBRANCH  14  15
ENDBRANCH  13  14
ENDBRANCH   1  13
TORSDOF 5
ENDMDL
MODEL 7
REMARK VINA RESULT:      -7.8      2.905      6.629
REMARK  Name = 
REMARK  5 active torsions:
REMARK  status: ('A' for Active; 'I' for Inactive)
REMARK    1  A    between atoms: N_11  and  C_12
REMARK    2  A    between atoms: C_12  and  C_13
REMARK    3  A    between atoms: C_13  and  O_14
REMARK    4  A    between atoms: O_14  and  C_15
REMARK    5  A    between atoms: C_15  and  C_16
REMARK                            x       y       z     vdW  Elec       q    Type
REMARK                         _______ _______ _______ _____ _____    ______ ____
ROOT
ATOM      1  C   UNL     1       2.596   2.033  19.260  0.00  0.00    +0.000 C 
ENDROOT
BRANCH   1  12
ATOM      2  O   UNL     1       5.233   2.905  19.968  0.00  0.00    +0.000 OA
ATOM      3  C   UNL     1       4.701   3.293  18.937  0.00  0.00    +0.000 C 
ATOM      4  C   UNL     1       5.231   4.465  18.206  0.00  0.00    +0.000 A 
ATOM      5  C   UNL     1       6.421   5.078  18.605  0.00  0.00    +0.000 A 
ATOM      6  C   UNL     1       6.781   6.307  18.050  0.00  0.00    +0.000 A 
ATOM      7  C   UNL     1       5.949   6.918  17.110  0.00  0.00    +0.000 A 
ATOM      8  C   UNL     1       4.772   6.290  16.697  0.00  0.00    +0.000 A 
ATOM      9  C   UNL     1       4.422   5.054  17.233  0.00  0.00    +0.000 A 
ATOM     10  O   UNL     1       3.236   4.503  16.819  0.00  0.00    +0.000 OA
ATOM     11  C   UNL     1       3.186   3.095  17.056  0.00  0.00    +0.000 C 
ATOM     12  N   UNL     1       3.514   2.804  18.430  0.00  0.00    +0.000 N 
ENDBRANCH   1  12
BRANCH   1  13
ATOM     13  C   UNL     1       1.492   2.847  19.937  0.00  0.00    +0.000 C 
BRANCH  13  14
ATOM     14  O   UNL     1       1.607   4.248  19.726  0.00  0.00    +0.000 OA
BRANCH  14  15
ATOM     15  C   UNL     1       1.900   4.998  20.913  0.00  0.00    +0.000 C 
BRANCH  15  16
ATOM     16  C   UNL     1       1.848   6.426  20.509  0.00  0.00    +0.000 A 
ATOM     17  C   UNL     1       1.300   7.538  21.102  0.00  0.00    +0.000 A 
ATOM     18  C   UNL     1       1.330   8.558  20.127  0.00  0.00    +0.000 A 
ATOM     19  C   UNL     1       0.786   9.849  20.020  0.00  0.00    +0.000 A 
ATOM     20  C   UNL     1       1.033  10.584  18.854  0.00  0.00    +0.000 A 
ATOM     21  C   UNL     1       1.855  10.074  17.846  0.00  0.00    +0.000 A 
ATOM     22  C   UNL     1       2.404   8.789  17.935  0.00  0.00    +0.000 A 
ATOM     23  C   UNL     1       2.076   8.055  19.072  0.00  0.00    +0.000 A 
ATOM     24  O   UNL     1       2.399   6.754  19.305  0.00  0.00    +0.000 OA
ENDBRANCH  15  16
ENDBRANCH  14  15
ENDBRANCH  13  14
ENDBRANCH   1  13
TORSDOF 5
ENDMDL
MODEL 8
REMARK VINA RESULT:      -7.7      4.970      6.923
REMARK  Name = 
REMARK  5 active torsions:
REMARK  status: ('A' for Active; 'I' for Inactive)
REMARK    1  A    between atoms: N_11  and  C_12
REMARK    2  A    between atoms: C_12  and  C_13
REMARK    3  A    between atoms: C_13  and  O_14
REMARK    4  A    between atoms: O_14  and  C_15
REMARK    5  A    between atoms: C_15  and  C_16
REMARK                            x       y       z     vdW  Elec       q    Type
REMARK                         _______ _______ _______ _____ _____    ______ ____
ROOT
ATOM      1  C   UNL     1       6.465   6.585  17.311  0.00  0.00    +0.000 C 
ENDROOT
BRANCH   1  12
ATOM      2  O   UNL     1       4.585   4.900  15.953  0.00  0.00    +0.000 OA
ATOM      3  C   UNL     1       4.623   4.937  17.175  0.00  0.00    +0.000 C 
ATOM      4  C   UNL     1       3.508   4.401  17.984  0.00  0.00    +0.000 A 
ATOM      5  C   UNL     1       2.443   3.729  17.379  0.00  0.00    +0.000 A 
ATOM      6  C   UNL     1       1.302   3.435  18.125  0.00  0.00    +0.000 A 
ATOM      7  C   UNL     1       1.225   3.820  19.465  0.00  0.00    +0.000 A 
ATOM      8  C   UNL     1       2.302   4.471  20.073  0.00  0.00    +0.000 A 
ATOM      9  C   UNL     1       3.450   4.746  19.336  0.00  0.00    +0.000 A 
ATOM     10  O   UNL     1       4.459   5.420  19.974  0.00  0.00    +0.000 OA
ATOM     11  C   UNL     1       5.716   5.258  19.315  0.00  0.00    +0.000 C 
ATOM     12  N   UNL     1       5.595   5.582  17.914  0.00  0.00    +0.000 N 
ENDBRANCH   1  12
BRANCH   1  13
ATOM     13  C   UNL     1       7.904   6.594  17.831  0.00  0.00    +0.000 C 
BRANCH  13  14
ATOM     14  O   UNL     1       8.239   7.770  18.556  0.00  0.00    +0.000 OA
BRANCH  14  15
ATOM     15  C   UNL     1       8.042   8.987  17.824  0.00  0.00    +0.000 C 
BRANCH  15  16
ATOM     16  C   UNL     1       8.944   9.985  18.453  0.00  0.00    +0.000 A 
ATOM     17  C   UNL     1       9.253  10.258  19.765  0.00  0.00    +0.000 A 
ATOM     18  C   UNL     1       9.955  11.483  19.756  0.00  0.00    +0.000 A 
ATOM     19  C   UNL     1      10.391  12.386  20.739  0.00  0.00    +0.000 A 
ATOM     20  C   UNL     1      11.073  13.540  20.331  0.00  0.00    +0.000 A 
ATOM     21  C   UNL     1      11.370  13.757  18.984  0.00  0.00    +0.000 A 
ATOM     22  C   UNL     1      10.941  12.869  17.990  0.00  0.00    +0.000 A 
ATOM     23  C   UNL     1      10.199  11.772  18.422  0.00  0.00    +0.000 A 
ATOM     24  O   UNL     1       9.588  10.855  17.624  0.00  0.00    +0.000 OA
ENDBRANCH  15  16
ENDBRANCH  14  15
ENDBRANCH  13  14
ENDBRANCH   1  13
TORSDOF 5
ENDMDL
MODEL 9
REMARK VINA RESULT:      -7.7      6.036      7.965
REMARK  Name = 
REMARK  5 active torsions:
REMARK  status: ('A' for Active; 'I' for Inactive)
REMARK    1  A    between atoms: N_11  and  C_12
REMARK    2  A    between atoms: C_12  and  C_13
REMARK    3  A    between atoms: C_13  and  O_14
REMARK    4  A    between atoms: O_14  and  C_15
REMARK    5  A    between atoms: C_15  and  C_16
REMARK                            x       y       z     vdW  Elec       q    Type
REMARK                         _______ _______ _______ _____ _____    ______ ____
ROOT
ATOM      1  C   UNL     1       7.187   7.855  17.370  0.00  0.00    +0.000 C 
ENDROOT
BRANCH   1  12
ATOM      2  O   UNL     1       5.640   6.135  15.677  0.00  0.00    +0.000 OA
ATOM      3  C   UNL     1       5.960   5.781  16.803  0.00  0.00    +0.000 C 
ATOM      4  C   UNL     1       5.293   4.634  17.454  0.00  0.00    +0.000 A 
ATOM      5  C   UNL     1       4.371   3.851  16.755  0.00  0.00    +0.000 A 
ATOM      6  C   UNL     1       3.591   2.924  17.447  0.00  0.00    +0.000 A 
ATOM      7  C   UNL     1       3.728   2.790  18.830  0.00  0.00    +0.000 A 
ATOM      8  C   UNL     1       4.669   3.558  19.522  0.00  0.00    +0.000 A 
ATOM      9  C   UNL     1       5.464   4.468  18.830  0.00  0.00    +0.000 A 
ATOM     10  O   UNL     1       6.342   5.221  19.566  0.00  0.00    +0.000 OA
ATOM     11  C   UNL     1       7.388   5.766  18.761  0.00  0.00    +0.000 C 
ATOM     12  N   UNL     1       6.838   6.462  17.623  0.00  0.00    +0.000 N 
ENDBRANCH   1  12
BRANCH   1  13
ATOM     13  C   UNL     1       8.335   8.402  18.220  0.00  0.00    +0.000 C 
BRANCH  13  14
ATOM     14  O   UNL     1       8.383   9.822  18.265  0.00  0.00    +0.000 OA
BRANCH  14  15
ATOM     15  C   UNL     1       9.406  10.348  19.121  0.00  0.00    +0.000 C 
BRANCH  15  16
ATOM     16  C   UNL     1       9.901  11.575  18.448  0.00  0.00    +0.000 A 
ATOM     17  C   UNL     1      11.045  11.843  17.733  0.00  0.00    +0.000 A 
ATOM     18  C   UNL     1      11.089  13.245  17.574  0.00  0.00    +0.000 A 
ATOM     19  C   UNL     1      12.044  14.165  17.110  0.00  0.00    +0.000 A 
ATOM     20  C   UNL     1      11.717  15.526  17.111  0.00  0.00    +0.000 A 
ATOM     21  C   UNL     1      10.448  15.958  17.504  0.00  0.00    +0.000 A 
ATOM     22  C   UNL     1       9.484  15.057  17.971  0.00  0.00    +0.000 A 
ATOM     23  C   UNL     1       9.868  13.719  18.030  0.00  0.00    +0.000 A 
ATOM     24  O   UNL     1       9.137  12.700  18.559  0.00  0.00    +0.000 OA
ENDBRANCH  15  16
ENDBRANCH  14  15
ENDBRANCH  13  14
ENDBRANCH   1  13
TORSDOF 5
ENDMDL
