MODEL 1
REMARK VINA RESULT:      -8.6      0.000      0.000
REMARK  Name = 
REMARK  14 active torsions:
REMARK  status: ('A' for Active; 'I' for Inactive)
REMARK    1  A    between atoms: C_1  and  C_2
REMARK    2  A    between atoms: C_6  and  C_7
REMARK    3  A    between atoms: C_8  and  C_9
REMARK    4  A    between atoms: C_9  and  C_10
REMARK    5  A    between atoms: C_9  and  O_11
REMARK    6  A    between atoms: C_9  and  C_12
REMARK    7  A    between atoms: C_12  and  C_13
REMARK    8  A    between atoms: C_13  and  C_14
REMARK    9  A    between atoms: C_15  and  C_16
REMARK   10  A    between atoms: C_20  and  C_21
REMARK   11  A    between atoms: C_20  and  C_22
REMARK   12  A    between atoms: C_26  and  C_27
REMARK   13  A    between atoms: C_26  and  O_28
REMARK   14  A    between atoms: C_29  and  C_30
REMARK                            x       y       z     vdW  Elec       q    Type
REMARK                         _______ _______ _______ _____ _____    ______ ____
ROOT
ATOM      1  C   UNL     1       3.468   7.953  17.830  0.00  0.00    +0.000 C 
ENDROOT
BRANCH   1   2
ATOM      2  C   UNL     1       3.699   6.464  17.366  0.00  0.00    +0.000 C 
ATOM      3  C   UNL     1       3.455   5.349  18.509  0.00  0.00    +0.000 C 
ATOM      4  C   UNL     1       4.287   5.673  19.771  0.00  0.00    +0.000 C 
ATOM      5  C   UNL     1       1.957   5.337  18.942  0.00  0.00    +0.000 C 
ATOM      6  C   UNL     1       1.578   4.155  19.846  0.00  0.00    +0.000 C 
ATOM      7  C   UNL     1       1.916   2.802  19.226  0.00  0.00    +0.000 C 
ATOM      8  C   UNL     1       3.378   2.663  18.744  0.00  0.00    +0.000 C 
ATOM      9  C   UNL     1       4.325   2.385  19.924  0.00  0.00    +0.000 C 
ATOM     10  C   UNL     1       3.431   1.392  17.849  0.00  0.00    +0.000 C 
ATOM     11  C   UNL     1       3.751   3.924  17.892  0.00  0.00    +0.000 C 
ATOM     12  C   UNL     1       5.161   3.854  17.283  0.00  0.00    +0.000 C 
ATOM     13  C   UNL     1       5.229   4.808  16.113  0.00  0.00    +0.000 C 
ATOM     14  C   UNL     1       5.033   6.264  16.536  0.00  0.00    +0.000 C 
ATOM     15  C   UNL     1       6.310   6.790  17.209  0.00  0.00    +0.000 C 
BRANCH  14  16
ATOM     16  O   UNL     1       4.941   6.965  15.280  0.00  0.00    +0.000 OA
ATOM     17  H   UNL     1       5.646   6.634  14.698  0.00  0.00    +0.000 HD
ENDBRANCH  14  16
ENDBRANCH   1   2
BRANCH   1  18
ATOM     18  C   UNL     1       2.071   8.490  17.452  0.00  0.00    +0.000 C 
BRANCH  18  19
ATOM     19  C   UNL     1       1.367   9.483  18.396  0.00  0.00    +0.000 C 
ATOM     20  C   UNL     1       1.485   8.934  19.826  0.00  0.00    +0.000 C 
BRANCH  19  22
ATOM     21  C   UNL     1      -0.862  10.709  18.319  0.00  0.00    +0.000 C 
ATOM     22  C   UNL     1      -0.089   9.647  18.029  0.00  0.00    +0.000 C 
BRANCH  21  28
ATOM     23  C   UNL     1      -5.596  12.592  18.594  0.00  0.00    +0.000 C 
ATOM     24  C   UNL     1      -4.494  11.836  17.899  0.00  0.00    +0.000 A 
ATOM     25  C   UNL     1      -4.742  11.340  16.610  0.00  0.00    +0.000 A 
ATOM     26  C   UNL     1      -3.760  10.645  15.920  0.00  0.00    +0.000 A 
ATOM     27  C   UNL     1      -2.521  10.433  16.513  0.00  0.00    +0.000 A 
ATOM     28  C   UNL     1      -2.232  10.906  17.806  0.00  0.00    +0.000 A 
ATOM     29  C   UNL     1      -3.223  11.640  18.503  0.00  0.00    +0.000 A 
ATOM     30  C   UNL     1      -2.977  12.221  19.877  0.00  0.00    +0.000 C 
ENDBRANCH  21  28
ENDBRANCH  19  22
BRANCH  19  31
ATOM     31  O   UNL     1       2.032  10.741  18.335  0.00  0.00    +0.000 OA
ATOM     32  H   UNL     1       2.318  10.964  19.236  0.00  0.00    +0.000 HD
ENDBRANCH  19  31
ENDBRANCH  18  19
ENDBRANCH   1  18
TORSDOF 7
ENDMDL
MODEL 2
REMARK VINA RESULT:      -8.0      4.813      8.014
REMARK  Name = 
REMARK  14 active torsions:
REMARK  status: ('A' for Active; 'I' for Inactive)
REMARK    1  A    between atoms: C_1  and  C_2
REMARK    2  A    between atoms: C_6  and  C_7
REMARK    3  A    between atoms: C_8  and  C_9
REMARK    4  A    between atoms: C_9  and  C_10
REMARK    5  A    between atoms: C_9  and  O_11
REMARK    6  A    between atoms: C_9  and  C_12
REMARK    7  A    between atoms: C_12  and  C_13
REMARK    8  A    between atoms: C_13  and  C_14
REMARK    9  A    between atoms: C_15  and  C_16
REMARK   10  A    between atoms: C_20  and  C_21
REMARK   11  A    between atoms: C_20  and  C_22
REMARK   12  A    between atoms: C_26  and  C_27
REMARK   13  A    between atoms: C_26  and  O_28
REMARK   14  A    between atoms: C_29  and  C_30
REMARK                            x       y       z     vdW  Elec       q    Type
REMARK                         _______ _______ _______ _____ _____    ______ ____
ROOT
ATOM      1  C   UNL     1       5.207   6.991  16.603  0.00  0.00    +0.000 C 
ENDROOT
BRANCH   1   2
ATOM      2  C   UNL     1       4.367   5.671  16.785  0.00  0.00    +0.000 C 
ATOM      3  C   UNL     1       3.816   5.415  18.281  0.00  0.00    +0.000 C 
ATOM      4  C   UNL     1       4.971   5.484  19.306  0.00  0.00    +0.000 C 
ATOM      5  C   UNL     1       2.790   6.523  18.676  0.00  0.00    +0.000 C 
ATOM      6  C   UNL     1       2.033   6.235  19.981  0.00  0.00    +0.000 C 
ATOM      7  C   UNL     1       1.313   4.889  19.966  0.00  0.00    +0.000 C 
ATOM      8  C   UNL     1       2.208   3.687  19.587  0.00  0.00    +0.000 C 
ATOM      9  C   UNL     1       3.068   3.240  20.782  0.00  0.00    +0.000 C 
ATOM     10  C   UNL     1       1.250   2.498  19.286  0.00  0.00    +0.000 C 
ATOM     11  C   UNL     1       3.022   4.047  18.298  0.00  0.00    +0.000 C 
ATOM     12  C   UNL     1       3.884   2.888  17.775  0.00  0.00    +0.000 C 
ATOM     13  C   UNL     1       4.200   3.139  16.318  0.00  0.00    +0.000 C 
ATOM     14  C   UNL     1       5.036   4.402  16.112  0.00  0.00    +0.000 C 
ATOM     15  C   UNL     1       6.494   4.136  16.519  0.00  0.00    +0.000 C 
BRANCH  14  16
ATOM     16  O   UNL     1       5.056   4.557  14.680  0.00  0.00    +0.000 OA
ATOM     17  H   UNL     1       5.632   5.312  14.467  0.00  0.00    +0.000 HD
ENDBRANCH  14  16
ENDBRANCH   1   2
BRANCH   1  18
ATOM     18  C   UNL     1       6.051   7.343  17.848  0.00  0.00    +0.000 C 
BRANCH  18  19
ATOM     19  C   UNL     1       7.580   7.461  17.711  0.00  0.00    +0.000 C 
ATOM     20  C   UNL     1       8.218   6.585  18.801  0.00  0.00    +0.000 C 
BRANCH  19  22
ATOM     21  C   UNL     1       8.870   9.354  18.820  0.00  0.00    +0.000 C 
ATOM     22  C   UNL     1       8.035   8.891  17.872  0.00  0.00    +0.000 C 
BRANCH  21  28
ATOM     23  C   UNL     1      10.201  13.671  21.192  0.00  0.00    +0.000 C 
ATOM     24  C   UNL     1      10.104  12.786  19.976  0.00  0.00    +0.000 A 
ATOM     25  C   UNL     1      10.656  13.250  18.773  0.00  0.00    +0.000 A 
ATOM     26  C   UNL     1      10.602  12.473  17.626  0.00  0.00    +0.000 A 
ATOM     27  C   UNL     1       9.992  11.225  17.666  0.00  0.00    +0.000 A 
ATOM     28  C   UNL     1       9.418  10.724  18.850  0.00  0.00    +0.000 A 
ATOM     29  C   UNL     1       9.495  11.502  20.030  0.00  0.00    +0.000 A 
ATOM     30  C   UNL     1       8.945  11.018  21.352  0.00  0.00    +0.000 C 
ENDBRANCH  21  28
ENDBRANCH  19  22
BRANCH  19  31
ATOM     31  O   UNL     1       7.978   6.961  16.437  0.00  0.00    +0.000 OA
ATOM     32  H   UNL     1       8.244   7.722  15.895  0.00  0.00    +0.000 HD
ENDBRANCH  19  31
ENDBRANCH  18  19
ENDBRANCH   1  18
TORSDOF 7
ENDMDL
MODEL 3
REMARK VINA RESULT:      -7.7      4.076      7.994
REMARK  Name = 
REMARK  14 active torsions:
REMARK  status: ('A' for Active; 'I' for Inactive)
REMARK    1  A    between atoms: C_1  and  C_2
REMARK    2  A    between atoms: C_6  and  C_7
REMARK    3  A    between atoms: C_8  and  C_9
REMARK    4  A    between atoms: C_9  and  C_10
REMARK    5  A    between atoms: C_9  and  O_11
REMARK    6  A    between atoms: C_9  and  C_12
REMARK    7  A    between atoms: C_12  and  C_13
REMARK    8  A    between atoms: C_13  and  C_14
REMARK    9  A    between atoms: C_15  and  C_16
REMARK   10  A    between atoms: C_20  and  C_21
REMARK   11  A    between atoms: C_20  and  C_22
REMARK   12  A    between atoms: C_26  and  C_27
REMARK   13  A    between atoms: C_26  and  O_28
REMARK   14  A    between atoms: C_29  and  C_30
REMARK                            x       y       z     vdW  Elec       q    Type
REMARK                         _______ _______ _______ _____ _____    ______ ____
ROOT
ATOM      1  C   UNL     1       4.808   6.394  17.273  0.00  0.00    +0.000 C 
ENDROOT
BRANCH   1   2
ATOM      2  C   UNL     1       3.923   6.066  18.535  0.00  0.00    +0.000 C 
ATOM      3  C   UNL     1       3.569   4.502  18.730  0.00  0.00    +0.000 C 
ATOM      4  C   UNL     1       2.938   3.923  17.443  0.00  0.00    +0.000 C 
ATOM      5  C   UNL     1       4.868   3.684  19.009  0.00  0.00    +0.000 C 
ATOM      6  C   UNL     1       4.609   2.234  19.444  0.00  0.00    +0.000 C 
ATOM      7  C   UNL     1       3.700   2.134  20.665  0.00  0.00    +0.000 C 
ATOM      8  C   UNL     1       2.365   2.902  20.537  0.00  0.00    +0.000 C 
ATOM      9  C   UNL     1       1.353   2.112  19.688  0.00  0.00    +0.000 C 
ATOM     10  C   UNL     1       1.755   2.974  21.966  0.00  0.00    +0.000 C 
ATOM     11  C   UNL     1       2.661   4.349  20.016  0.00  0.00    +0.000 C 
ATOM     12  C   UNL     1       1.410   5.238  19.934  0.00  0.00    +0.000 C 
ATOM     13  C   UNL     1       1.845   6.685  19.932  0.00  0.00    +0.000 C 
ATOM     14  C   UNL     1       2.686   7.040  18.705  0.00  0.00    +0.000 C 
ATOM     15  C   UNL     1       1.781   7.173  17.471  0.00  0.00    +0.000 C 
BRANCH  14  16
ATOM     16  O   UNL     1       3.145   8.375  18.993  0.00  0.00    +0.000 OA
ATOM     17  H   UNL     1       3.939   8.543  18.455  0.00  0.00    +0.000 HD
ENDBRANCH  14  16
ENDBRANCH   1   2
BRANCH   1  18
ATOM     18  C   UNL     1       5.871   7.481  17.550  0.00  0.00    +0.000 C 
BRANCH  18  19
ATOM     19  C   UNL     1       7.357   7.083  17.605  0.00  0.00    +0.000 C 
ATOM     20  C   UNL     1       7.482   5.866  18.536  0.00  0.00    +0.000 C 
BRANCH  19  22
ATOM     21  C   UNL     1       8.085   9.513  17.794  0.00  0.00    +0.000 C 
ATOM     22  C   UNL     1       8.208   8.216  18.125  0.00  0.00    +0.000 C 
BRANCH  21  28
ATOM     23  C   UNL     1       9.214  14.437  18.520  0.00  0.00    +0.000 C 
ATOM     24  C   UNL     1       9.352  12.970  18.837  0.00  0.00    +0.000 A 
ATOM     25  C   UNL     1      10.191  12.598  19.899  0.00  0.00    +0.000 A 
ATOM     26  C   UNL     1      10.347  11.263  20.240  0.00  0.00    +0.000 A 
ATOM     27  C   UNL     1       9.672  10.284  19.520  0.00  0.00    +0.000 A 
ATOM     28  C   UNL     1       8.828  10.612  18.443  0.00  0.00    +0.000 A 
ATOM     29  C   UNL     1       8.643  11.976  18.109  0.00  0.00    +0.000 A 
ATOM     30  C   UNL     1       7.719  12.415  16.997  0.00  0.00    +0.000 C 
ENDBRANCH  21  28
ENDBRANCH  19  22
BRANCH  19  31
ATOM     31  O   UNL     1       7.790   6.703  16.301  0.00  0.00    +0.000 OA
ATOM     32  H   UNL     1       8.529   6.083  16.408  0.00  0.00    +0.000 HD
ENDBRANCH  19  31
ENDBRANCH  18  19
ENDBRANCH   1  18
TORSDOF 7
ENDMDL
MODEL 4
REMARK VINA RESULT:      -7.7      3.932     10.126
REMARK  Name = 
REMARK  14 active torsions:
REMARK  status: ('A' for Active; 'I' for Inactive)
REMARK    1  A    between atoms: C_1  and  C_2
REMARK    2  A    between atoms: C_6  and  C_7
REMARK    3  A    between atoms: C_8  and  C_9
REMARK    4  A    between atoms: C_9  and  C_10
REMARK    5  A    between atoms: C_9  and  O_11
REMARK    6  A    between atoms: C_9  and  C_12
REMARK    7  A    between atoms: C_12  and  C_13
REMARK    8  A    between atoms: C_13  and  C_14
REMARK    9  A    between atoms: C_15  and  C_16
REMARK   10  A    between atoms: C_20  and  C_21
REMARK   11  A    between atoms: C_20  and  C_22
REMARK   12  A    between atoms: C_26  and  C_27
REMARK   13  A    between atoms: C_26  and  O_28
REMARK   14  A    between atoms: C_29  and  C_30
REMARK                            x       y       z     vdW  Elec       q    Type
REMARK                         _______ _______ _______ _____ _____    ______ ____
ROOT
ATOM      1  C   UNL     1       2.036  12.025  19.290  0.00  0.00    +0.000 C 
ENDROOT
BRANCH   1   2
ATOM      2  C   UNL     1       1.104  13.261  18.995  0.00  0.00    +0.000 C 
ATOM      3  C   UNL     1       1.845  14.696  19.028  0.00  0.00    +0.000 C 
ATOM      4  C   UNL     1       2.611  14.882  20.357  0.00  0.00    +0.000 C 
ATOM      5  C   UNL     1       2.897  14.787  17.879  0.00  0.00    +0.000 C 
ATOM      6  C   UNL     1       3.480  16.194  17.679  0.00  0.00    +0.000 C 
ATOM      7  C   UNL     1       2.407  17.253  17.442  0.00  0.00    +0.000 C 
ATOM      8  C   UNL     1       1.286  17.283  18.506  0.00  0.00    +0.000 C 
ATOM      9  C   UNL     1       1.754  18.007  19.780  0.00  0.00    +0.000 C 
ATOM     10  C   UNL     1       0.139  18.154  17.919  0.00  0.00    +0.000 C 
ATOM     11  C   UNL     1       0.772  15.822  18.740  0.00  0.00    +0.000 C 
ATOM     12  C   UNL     1      -0.410  15.739  19.719  0.00  0.00    +0.000 C 
ATOM     13  C   UNL     1      -1.139  14.436  19.487  0.00  0.00    +0.000 C 
ATOM     14  C   UNL     1      -0.267  13.218  19.788  0.00  0.00    +0.000 C 
ATOM     15  C   UNL     1      -0.140  13.028  21.308  0.00  0.00    +0.000 C 
BRANCH  14  16
ATOM     16  O   UNL     1      -1.068  12.113  19.327  0.00  0.00    +0.000 OA
ATOM     17  H   UNL     1      -1.727  11.911  20.014  0.00  0.00    +0.000 HD
ENDBRANCH  14  16
ENDBRANCH   1   2
BRANCH   1  18
ATOM     18  C   UNL     1       2.060  11.001  18.134  0.00  0.00    +0.000 C 
BRANCH  18  19
ATOM     19  C   UNL     1       1.335   9.654  18.309  0.00  0.00    +0.000 C 
ATOM     20  C   UNL     1       1.025   9.479  19.804  0.00  0.00    +0.000 C 
BRANCH  19  22
ATOM     21  C   UNL     1       2.500   7.402  18.526  0.00  0.00    +0.000 C 
ATOM     22  C   UNL     1       2.189   8.506  17.825  0.00  0.00    +0.000 C 
BRANCH  21  28
ATOM     23  C   UNL     1       3.102   2.392  17.767  0.00  0.00    +0.000 C 
ATOM     24  C   UNL     1       3.482   3.834  17.553  0.00  0.00    +0.000 A 
ATOM     25  C   UNL     1       4.542   4.117  16.678  0.00  0.00    +0.000 A 
ATOM     26  C   UNL     1       4.928   5.426  16.438  0.00  0.00    +0.000 A 
ATOM     27  C   UNL     1       4.264   6.469  17.074  0.00  0.00    +0.000 A 
ATOM     28  C   UNL     1       3.202   6.230  17.965  0.00  0.00    +0.000 A 
ATOM     29  C   UNL     1       2.786   4.896  18.193  0.00  0.00    +0.000 A 
ATOM     30  C   UNL     1       1.625   4.557  19.099  0.00  0.00    +0.000 C 
ENDBRANCH  21  28
ENDBRANCH  19  22
BRANCH  19  31
ATOM     31  O   UNL     1       0.105   9.685  17.591  0.00  0.00    +0.000 OA
ATOM     32  H   UNL     1       0.247  10.218  16.792  0.00  0.00    +0.000 HD
ENDBRANCH  19  31
ENDBRANCH  18  19
ENDBRANCH   1  18
TORSDOF 7
ENDMDL
MODEL 5
REMARK VINA RESULT:      -7.7      3.968     10.089
REMARK  Name = 
REMARK  14 active torsions:
REMARK  status: ('A' for Active; 'I' for Inactive)
REMARK    1  A    between atoms: C_1  and  C_2
REMARK    2  A    between atoms: C_6  and  C_7
REMARK    3  A    between atoms: C_8  and  C_9
REMARK    4  A    between atoms: C_9  and  C_10
REMARK    5  A    between atoms: C_9  and  O_11
REMARK    6  A    between atoms: C_9  and  C_12
REMARK    7  A    between atoms: C_12  and  C_13
REMARK    8  A    between atoms: C_13  and  C_14
REMARK    9  A    between atoms: C_15  and  C_16
REMARK   10  A    between atoms: C_20  and  C_21
REMARK   11  A    between atoms: C_20  and  C_22
REMARK   12  A    between atoms: C_26  and  C_27
REMARK   13  A    between atoms: C_26  and  O_28
REMARK   14  A    between atoms: C_29  and  C_30
REMARK                            x       y       z     vdW  Elec       q    Type
REMARK                         _______ _______ _______ _____ _____    ______ ____
ROOT
ATOM      1  C   UNL     1       2.100  11.911  19.297  0.00  0.00    +0.000 C 
ENDROOT
BRANCH   1   2
ATOM      2  C   UNL     1       1.213  13.180  19.000  0.00  0.00    +0.000 C 
ATOM      3  C   UNL     1       2.014  14.583  18.991  0.00  0.00    +0.000 C 
ATOM      4  C   UNL     1       2.817  14.759  20.300  0.00  0.00    +0.000 C 
ATOM      5  C   UNL     1       3.043  14.610  17.818  0.00  0.00    +0.000 C 
ATOM      6  C   UNL     1       3.680  15.988  17.580  0.00  0.00    +0.000 C 
ATOM      7  C   UNL     1       2.647  17.087  17.347  0.00  0.00    +0.000 C 
ATOM      8  C   UNL     1       1.553  17.182  18.435  0.00  0.00    +0.000 C 
ATOM      9  C   UNL     1       2.080  17.908  19.685  0.00  0.00    +0.000 C 
ATOM     10  C   UNL     1       0.431  18.091  17.857  0.00  0.00    +0.000 C 
ATOM     11  C   UNL     1       0.983  15.748  18.706  0.00  0.00    +0.000 C 
ATOM     12  C   UNL     1      -0.179  15.732  19.712  0.00  0.00    +0.000 C 
ATOM     13  C   UNL     1      -0.967  14.457  19.520  0.00  0.00    +0.000 C 
ATOM     14  C   UNL     1      -0.139  13.208  19.824  0.00  0.00    +0.000 C 
ATOM     15  C   UNL     1       0.014  13.040  21.343  0.00  0.00    +0.000 C 
BRANCH  14  16
ATOM     16  O   UNL     1      -0.997  12.130  19.400  0.00  0.00    +0.000 OA
ATOM     17  H   UNL     1      -0.503  11.586  18.763  0.00  0.00    +0.000 HD
ENDBRANCH  14  16
ENDBRANCH   1   2
BRANCH   1  18
ATOM     18  C   UNL     1       2.027  10.852  18.175  0.00  0.00    +0.000 C 
BRANCH  18  19
ATOM     19  C   UNL     1       1.113   9.626  18.358  0.00  0.00    +0.000 C 
ATOM     20  C   UNL     1       0.876   9.438  19.865  0.00  0.00    +0.000 C 
BRANCH  19  22
ATOM     21  C   UNL     1       2.447   7.462  18.462  0.00  0.00    +0.000 C 
ATOM     22  C   UNL     1       1.744   8.382  17.779  0.00  0.00    +0.000 C 
BRANCH  21  28
ATOM     23  C   UNL     1       5.933   4.458  16.256  0.00  0.00    +0.000 C 
ATOM     24  C   UNL     1       4.584   4.711  16.878  0.00  0.00    +0.000 A 
ATOM     25  C   UNL     1       3.706   3.625  17.020  0.00  0.00    +0.000 A 
ATOM     26  C   UNL     1       2.456   3.800  17.594  0.00  0.00    +0.000 A 
ATOM     27  C   UNL     1       2.065   5.063  18.026  0.00  0.00    +0.000 A 
ATOM     28  C   UNL     1       2.911   6.180  17.895  0.00  0.00    +0.000 A 
ATOM     29  C   UNL     1       4.199   6.001  17.335  0.00  0.00    +0.000 A 
ATOM     30  C   UNL     1       5.185   7.139  17.201  0.00  0.00    +0.000 C 
ENDBRANCH  21  28
ENDBRANCH  19  22
BRANCH  19  31
ATOM     31  O   UNL     1      -0.141   9.877  17.729  0.00  0.00    +0.000 OA
ATOM     32  H   UNL     1      -0.699   9.095  17.869  0.00  0.00    +0.000 HD
ENDBRANCH  19  31
ENDBRANCH  18  19
ENDBRANCH   1  18
TORSDOF 7
ENDMDL
MODEL 6
REMARK VINA RESULT:      -7.7      2.847      3.846
REMARK  Name = 
REMARK  14 active torsions:
REMARK  status: ('A' for Active; 'I' for Inactive)
REMARK    1  A    between atoms: C_1  and  C_2
REMARK    2  A    between atoms: C_6  and  C_7
REMARK    3  A    between atoms: C_8  and  C_9
REMARK    4  A    between atoms: C_9  and  C_10
REMARK    5  A    between atoms: C_9  and  O_11
REMARK    6  A    between atoms: C_9  and  C_12
REMARK    7  A    between atoms: C_12  and  C_13
REMARK    8  A    between atoms: C_13  and  C_14
REMARK    9  A    between atoms: C_15  and  C_16
REMARK   10  A    between atoms: C_20  and  C_21
REMARK   11  A    between atoms: C_20  and  C_22
REMARK   12  A    between atoms: C_26  and  C_27
REMARK   13  A    between atoms: C_26  and  O_28
REMARK   14  A    between atoms: C_29  and  C_30
REMARK                            x       y       z     vdW  Elec       q    Type
REMARK                         _______ _______ _______ _____ _____    ______ ____
ROOT
ATOM      1  C   UNL     1       3.340   8.029  17.846  0.00  0.00    +0.000 C 
ENDROOT
BRANCH   1   2
ATOM      2  C   UNL     1       3.602   6.549  17.370  0.00  0.00    +0.000 C 
ATOM      3  C   UNL     1       3.366   5.419  18.499  0.00  0.00    +0.000 C 
ATOM      4  C   UNL     1       4.176   5.745  19.774  0.00  0.00    +0.000 C 
ATOM      5  C   UNL     1       1.862   5.376  18.914  0.00  0.00    +0.000 C 
ATOM      6  C   UNL     1       1.495   4.178  19.802  0.00  0.00    +0.000 C 
ATOM      7  C   UNL     1       1.864   2.837  19.172  0.00  0.00    +0.000 C 
ATOM      8  C   UNL     1       3.333   2.730  18.706  0.00  0.00    +0.000 C 
ATOM      9  C   UNL     1       4.271   2.457  19.895  0.00  0.00    +0.000 C 
ATOM     10  C   UNL     1       3.420   1.468  17.799  0.00  0.00    +0.000 C 
ATOM     11  C   UNL     1       3.694   4.005  17.871  0.00  0.00    +0.000 C 
ATOM     12  C   UNL     1       5.111   3.966  17.278  0.00  0.00    +0.000 C 
ATOM     13  C   UNL     1       5.177   4.934  16.118  0.00  0.00    +0.000 C 
ATOM     14  C   UNL     1       4.950   6.381  16.553  0.00  0.00    +0.000 C 
ATOM     15  C   UNL     1       6.209   6.923  17.247  0.00  0.00    +0.000 C 
BRANCH  14  16
ATOM     16  O   UNL     1       4.860   7.093  15.304  0.00  0.00    +0.000 OA
ATOM     17  H   UNL     1       3.945   7.022  14.981  0.00  0.00    +0.000 HD
ENDBRANCH  14  16
ENDBRANCH   1   2
BRANCH   1  18
ATOM     18  C   UNL     1       1.923   8.531  17.491  0.00  0.00    +0.000 C 
BRANCH  18  19
ATOM     19  C   UNL     1       1.248   9.577  18.397  0.00  0.00    +0.000 C 
ATOM     20  C   UNL     1      -0.250   9.600  18.051  0.00  0.00    +0.000 C 
BRANCH  19  22
ATOM     21  C   UNL     1       1.287  12.117  18.553  0.00  0.00    +0.000 C 
ATOM     22  C   UNL     1       1.843  10.949  18.187  0.00  0.00    +0.000 C 
BRANCH  21  28
ATOM     23  C   UNL     1       1.430  17.204  18.935  0.00  0.00    +0.000 C 
ATOM     24  C   UNL     1       2.069  15.860  18.697  0.00  0.00    +0.000 A 
ATOM     25  C   UNL     1       3.453  15.816  18.467  0.00  0.00    +0.000 A 
ATOM     26  C   UNL     1       4.093  14.605  18.251  0.00  0.00    +0.000 A 
ATOM     27  C   UNL     1       3.359  13.425  18.258  0.00  0.00    +0.000 A 
ATOM     28  C   UNL     1       1.969  13.424  18.477  0.00  0.00    +0.000 A 
ATOM     29  C   UNL     1       1.314  14.655  18.725  0.00  0.00    +0.000 A 
ATOM     30  C   UNL     1      -0.167  14.737  19.014  0.00  0.00    +0.000 C 
ENDBRANCH  21  28
ENDBRANCH  19  22
BRANCH  19  31
ATOM     31  O   UNL     1       1.393   9.184  19.758  0.00  0.00    +0.000 OA
ATOM     32  H   UNL     1       2.344   9.158  19.955  0.00  0.00    +0.000 HD
ENDBRANCH  19  31
ENDBRANCH  18  19
ENDBRANCH   1  18
TORSDOF 7
ENDMDL
MODEL 7
REMARK VINA RESULT:      -7.6      1.661      3.332
REMARK  Name = 
REMARK  14 active torsions:
REMARK  status: ('A' for Active; 'I' for Inactive)
REMARK    1  A    between atoms: C_1  and  C_2
REMARK    2  A    between atoms: C_6  and  C_7
REMARK    3  A    between atoms: C_8  and  C_9
REMARK    4  A    between atoms: C_9  and  C_10
REMARK    5  A    between atoms: C_9  and  O_11
REMARK    6  A    between atoms: C_9  and  C_12
REMARK    7  A    between atoms: C_12  and  C_13
REMARK    8  A    between atoms: C_13  and  C_14
REMARK    9  A    between atoms: C_15  and  C_16
REMARK   10  A    between atoms: C_20  and  C_21
REMARK   11  A    between atoms: C_20  and  C_22
REMARK   12  A    between atoms: C_26  and  C_27
REMARK   13  A    between atoms: C_26  and  O_28
REMARK   14  A    between atoms: C_29  and  C_30
REMARK                            x       y       z     vdW  Elec       q    Type
REMARK                         _______ _______ _______ _____ _____    ______ ____
ROOT
ATOM      1  C   UNL     1       2.273   7.320  17.682  0.00  0.00    +0.000 C 
ENDROOT
BRANCH   1   2
ATOM      2  C   UNL     1       3.359   6.566  18.540  0.00  0.00    +0.000 C 
ATOM      3  C   UNL     1       4.801   6.412  17.830  0.00  0.00    +0.000 C 
ATOM      4  C   UNL     1       4.653   5.769  16.432  0.00  0.00    +0.000 C 
ATOM      5  C   UNL     1       5.453   7.814  17.620  0.00  0.00    +0.000 C 
ATOM      6  C   UNL     1       6.922   7.757  17.173  0.00  0.00    +0.000 C 
ATOM      7  C   UNL     1       7.801   6.950  18.124  0.00  0.00    +0.000 C 
ATOM      8  C   UNL     1       7.278   5.528  18.430  0.00  0.00    +0.000 C 
ATOM      9  C   UNL     1       7.596   4.562  17.276  0.00  0.00    +0.000 C 
ATOM     10  C   UNL     1       8.090   5.011  19.653  0.00  0.00    +0.000 C 
ATOM     11  C   UNL     1       5.760   5.617  18.805  0.00  0.00    +0.000 C 
ATOM     12  C   UNL     1       5.152   4.267  19.218  0.00  0.00    +0.000 C 
ATOM     13  C   UNL     1       3.901   4.527  20.025  0.00  0.00    +0.000 C 
ATOM     14  C   UNL     1       2.819   5.237  19.211  0.00  0.00    +0.000 C 
ATOM     15  C   UNL     1       2.150   4.242  18.250  0.00  0.00    +0.000 C 
BRANCH  14  16
ATOM     16  O   UNL     1       1.817   5.555  20.197  0.00  0.00    +0.000 OA
ATOM     17  H   UNL     1       1.845   6.514  20.356  0.00  0.00    +0.000 HD
ENDBRANCH  14  16
ENDBRANCH   1   2
BRANCH   1  18
ATOM     18  C   UNL     1       2.387   8.857  17.785  0.00  0.00    +0.000 C 
BRANCH  18  19
ATOM     19  C   UNL     1       1.358   9.632  18.628  0.00  0.00    +0.000 C 
ATOM     20  C   UNL     1       1.220   8.912  19.979  0.00  0.00    +0.000 C 
BRANCH  19  22
ATOM     21  C   UNL     1      -1.010  10.493  18.265  0.00  0.00    +0.000 C 
ATOM     22  C   UNL     1       0.016   9.687  17.938  0.00  0.00    +0.000 C 
BRANCH  21  28
ATOM     23  C   UNL     1      -5.705  12.310  17.435  0.00  0.00    +0.000 C 
ATOM     24  C   UNL     1      -4.480  11.529  17.033  0.00  0.00    +0.000 A 
ATOM     25  C   UNL     1      -4.456  10.946  15.757  0.00  0.00    +0.000 A 
ATOM     26  C   UNL     1      -3.351  10.224  15.332  0.00  0.00    +0.000 A 
ATOM     27  C   UNL     1      -2.260  10.071  16.180  0.00  0.00    +0.000 A 
ATOM     28  C   UNL     1      -2.246  10.632  17.470  0.00  0.00    +0.000 A 
ATOM     29  C   UNL     1      -3.360  11.394  17.898  0.00  0.00    +0.000 A 
ATOM     30  C   UNL     1      -3.405  12.068  19.250  0.00  0.00    +0.000 C 
ENDBRANCH  21  28
ENDBRANCH  19  22
BRANCH  19  31
ATOM     31  O   UNL     1       1.841  10.952  18.863  0.00  0.00    +0.000 OA
ATOM     32  H   UNL     1       1.520  11.228  19.737  0.00  0.00    +0.000 HD
ENDBRANCH  19  31
ENDBRANCH  18  19
ENDBRANCH   1  18
TORSDOF 7
ENDMDL
MODEL 8
REMARK VINA RESULT:      -7.5      4.882      7.903
REMARK  Name = 
REMARK  14 active torsions:
REMARK  status: ('A' for Active; 'I' for Inactive)
REMARK    1  A    between atoms: C_1  and  C_2
REMARK    2  A    between atoms: C_6  and  C_7
REMARK    3  A    between atoms: C_8  and  C_9
REMARK    4  A    between atoms: C_9  and  C_10
REMARK    5  A    between atoms: C_9  and  O_11
REMARK    6  A    between atoms: C_9  and  C_12
REMARK    7  A    between atoms: C_12  and  C_13
REMARK    8  A    between atoms: C_13  and  C_14
REMARK    9  A    between atoms: C_15  and  C_16
REMARK   10  A    between atoms: C_20  and  C_21
REMARK   11  A    between atoms: C_20  and  C_22
REMARK   12  A    between atoms: C_26  and  C_27
REMARK   13  A    between atoms: C_26  and  O_28
REMARK   14  A    between atoms: C_29  and  C_30
REMARK                            x       y       z     vdW  Elec       q    Type
REMARK                         _______ _______ _______ _____ _____    ______ ____
ROOT
ATOM      1  C   UNL     1       5.222   6.986  16.679  0.00  0.00    +0.000 C 
ENDROOT
BRANCH   1   2
ATOM      2  C   UNL     1       4.394   5.650  16.794  0.00  0.00    +0.000 C 
ATOM      3  C   UNL     1       3.840   5.318  18.274  0.00  0.00    +0.000 C 
ATOM      4  C   UNL     1       4.992   5.348  19.305  0.00  0.00    +0.000 C 
ATOM      5  C   UNL     1       2.803   6.396  18.718  0.00  0.00    +0.000 C 
ATOM      6  C   UNL     1       2.045   6.038  20.006  0.00  0.00    +0.000 C 
ATOM      7  C   UNL     1       1.338   4.688  19.923  0.00  0.00    +0.000 C 
ATOM      8  C   UNL     1       2.245   3.514  19.490  0.00  0.00    +0.000 C 
ATOM      9  C   UNL     1       3.106   3.018  20.665  0.00  0.00    +0.000 C 
ATOM     10  C   UNL     1       1.299   2.332  19.129  0.00  0.00    +0.000 C 
ATOM     11  C   UNL     1       3.059   3.944  18.222  0.00  0.00    +0.000 C 
ATOM     12  C   UNL     1       3.934   2.819  17.647  0.00  0.00    +0.000 C 
ATOM     13  C   UNL     1       4.252   3.143  16.205  0.00  0.00    +0.000 C 
ATOM     14  C   UNL     1       5.077   4.422  16.063  0.00  0.00    +0.000 C 
ATOM     15  C   UNL     1       6.536   4.150  16.461  0.00  0.00    +0.000 C 
BRANCH  14  16
ATOM     16  O   UNL     1       5.100   4.646  14.640  0.00  0.00    +0.000 OA
ATOM     17  H   UNL     1       5.964   5.030  14.409  0.00  0.00    +0.000 HD
ENDBRANCH  14  16
ENDBRANCH   1   2
BRANCH   1  18
ATOM     18  C   UNL     1       6.097   7.260  17.922  0.00  0.00    +0.000 C 
BRANCH  18  19
ATOM     19  C   UNL     1       7.568   7.671  17.730  0.00  0.00    +0.000 C 
ATOM     20  C   UNL     1       8.393   6.990  18.834  0.00  0.00    +0.000 C 
BRANCH  19  22
ATOM     21  C   UNL     1       8.802   9.819  18.311  0.00  0.00    +0.000 C 
ATOM     22  C   UNL     1       7.733   9.169  17.818  0.00  0.00    +0.000 C 
BRANCH  21  28
ATOM     23  C   UNL     1      11.513  14.090  18.978  0.00  0.00    +0.000 C 
ATOM     24  C   UNL     1      10.298  13.335  18.504  0.00  0.00    +0.000 A 
ATOM     25  C   UNL     1       9.286  14.054  17.849  0.00  0.00    +0.000 A 
ATOM     26  C   UNL     1       8.150  13.408  17.385  0.00  0.00    +0.000 A 
ATOM     27  C   UNL     1       8.010  12.037  17.575  0.00  0.00    +0.000 A 
ATOM     28  C   UNL     1       8.997  11.281  18.233  0.00  0.00    +0.000 A 
ATOM     29  C   UNL     1      10.171  11.931  18.685  0.00  0.00    +0.000 A 
ATOM     30  C   UNL     1      11.298  11.184  19.359  0.00  0.00    +0.000 C 
ENDBRANCH  21  28
ENDBRANCH  19  22
BRANCH  19  31
ATOM     31  O   UNL     1       8.027   7.201  16.466  0.00  0.00    +0.000 OA
ATOM     32  H   UNL     1       7.249   7.096  15.894  0.00  0.00    +0.000 HD
ENDBRANCH  19  31
ENDBRANCH  18  19
ENDBRANCH   1  18
TORSDOF 7
ENDMDL
MODEL 9
REMARK VINA RESULT:      -7.4      2.009      2.817
REMARK  Name = 
REMARK  14 active torsions:
REMARK  status: ('A' for Active; 'I' for Inactive)
REMARK    1  A    between atoms: C_1  and  C_2
REMARK    2  A    between atoms: C_6  and  C_7
REMARK    3  A    between atoms: C_8  and  C_9
REMARK    4  A    between atoms: C_9  and  C_10
REMARK    5  A    between atoms: C_9  and  O_11
REMARK    6  A    between atoms: C_9  and  C_12
REMARK    7  A    between atoms: C_12  and  C_13
REMARK    8  A    between atoms: C_13  and  C_14
REMARK    9  A    between atoms: C_15  and  C_16
REMARK   10  A    between atoms: C_20  and  C_21
REMARK   11  A    between atoms: C_20  and  C_22
REMARK   12  A    between atoms: C_26  and  C_27
REMARK   13  A    between atoms: C_26  and  O_28
REMARK   14  A    between atoms: C_29  and  C_30
REMARK                            x       y       z     vdW  Elec       q    Type
REMARK                         _______ _______ _______ _____ _____    ______ ____
ROOT
ATOM      1  C   UNL     1       3.480   7.924  17.538  0.00  0.00    +0.000 C 
ENDROOT
BRANCH   1   2
ATOM      2  C   UNL     1       3.746   6.416  17.165  0.00  0.00    +0.000 C 
ATOM      3  C   UNL     1       3.455   5.360  18.352  0.00  0.00    +0.000 C 
ATOM      4  C   UNL     1       4.220   5.758  19.634  0.00  0.00    +0.000 C 
ATOM      5  C   UNL     1       1.937   5.354  18.711  0.00  0.00    +0.000 C 
ATOM      6  C   UNL     1       1.524   4.216  19.656  0.00  0.00    +0.000 C 
ATOM      7  C   UNL     1       1.904   2.836  19.126  0.00  0.00    +0.000 C 
ATOM      8  C   UNL     1       3.389   2.689  18.724  0.00  0.00    +0.000 C 
ATOM      9  C   UNL     1       4.278   2.484  19.963  0.00  0.00    +0.000 C 
ATOM     10  C   UNL     1       3.497   1.373  17.901  0.00  0.00    +0.000 C 
ATOM     11  C   UNL     1       3.794   3.907  17.826  0.00  0.00    +0.000 C 
ATOM     12  C   UNL     1       5.232   3.821  17.291  0.00  0.00    +0.000 C 
ATOM     13  C   UNL     1       5.350   4.713  16.077  0.00  0.00    +0.000 C 
ATOM     14  C   UNL     1       5.121   6.187  16.413  0.00  0.00    +0.000 C 
ATOM     15  C   UNL     1       6.359   6.762  17.119  0.00  0.00    +0.000 C 
BRANCH  14  16
ATOM     16  O   UNL     1       5.086   6.821  15.119  0.00  0.00    +0.000 OA
ATOM     17  H   UNL     1       5.941   6.661  14.682  0.00  0.00    +0.000 HD
ENDBRANCH  14  16
ENDBRANCH   1   2
BRANCH   1  18
ATOM     18  C   UNL     1       2.178   8.123  18.345  0.00  0.00    +0.000 C 
BRANCH  18  19
ATOM     19  C   UNL     1       1.402   9.445  18.206  0.00  0.00    +0.000 C 
ATOM     20  C   UNL     1       2.398  10.529  17.763  0.00  0.00    +0.000 C 
BRANCH  19  22
ATOM     21  C   UNL     1       0.088  10.983  19.749  0.00  0.00    +0.000 C 
ATOM     22  C   UNL     1       0.759   9.842  19.513  0.00  0.00    +0.000 C 
BRANCH  21  28
ATOM     23  C   UNL     1      -3.490  13.429  22.443  0.00  0.00    +0.000 C 
ATOM     24  C   UNL     1      -2.403  12.396  22.286  0.00  0.00    +0.000 A 
ATOM     25  C   UNL     1      -2.123  11.558  23.376  0.00  0.00    +0.000 A 
ATOM     26  C   UNL     1      -1.140  10.586  23.284  0.00  0.00    +0.000 A 
ATOM     27  C   UNL     1      -0.421  10.442  22.103  0.00  0.00    +0.000 A 
ATOM     28  C   UNL     1      -0.664  11.266  20.988  0.00  0.00    +0.000 A 
ATOM     29  C   UNL     1      -1.686  12.243  21.069  0.00  0.00    +0.000 A 
ATOM     30  C   UNL     1      -2.041  13.136  19.903  0.00  0.00    +0.000 C 
ENDBRANCH  21  28
ENDBRANCH  19  22
BRANCH  19  31
ATOM     31  O   UNL     1       0.408   9.302  17.195  0.00  0.00    +0.000 OA
ATOM     32  H   UNL     1       0.186   8.358  17.135  0.00  0.00    +0.000 HD
ENDBRANCH  19  31
ENDBRANCH  18  19
ENDBRANCH   1  18
TORSDOF 7
ENDMDL
