MODEL 1
REMARK VINA RESULT:      -7.1      0.000      0.000
REMARK  Name = 
REMARK  7 active torsions:
REMARK  status: ('A' for Active; 'I' for Inactive)
REMARK    1  A    between atoms: C_1  and  O_2
REMARK    2  A    between atoms: O_2  and  C_3
REMARK    3  A    between atoms: C_7  and  C_8
REMARK    4  A    between atoms: N_13  and  C_14
REMARK    5  A    between atoms: C_14  and  C_15
REMARK    6  A    between atoms: C_17  and  C_18
REMARK    7  A    between atoms: C_24  and  C_25
REMARK                            x       y       z     vdW  Elec       q    Type
REMARK                         _______ _______ _______ _____ _____    ______ ____
ROOT
ATOM      1  C   UNL     1       2.401   7.811  18.229  0.00  0.00    +0.000 C 
ATOM      2  O   UNL     1       2.541   8.383  17.148  0.00  0.00    +0.000 OA
ATOM      3  N   UNL     1       1.851   8.450  19.340  0.00  0.00    +0.000 N 
ATOM      4  C   UNL     1       1.214   9.756  19.173  0.00  0.00    +0.000 C 
ATOM      5  C   UNL     1      -0.200   9.791  19.813  0.00  0.00    +0.000 C 
ATOM      6  N   UNL     1      -0.307   9.243  21.195  0.00  0.00    +0.000 NA
ATOM      7  C   UNL     1       0.380   7.925  21.218  0.00  0.00    +0.000 C 
ATOM      8  C   UNL     1       1.839   7.986  20.732  0.00  0.00    +0.000 C 
ENDROOT
BRANCH   1  13
ATOM      9  C   UNL     1       4.537   4.693  18.675  0.00  0.00    +0.000 A 
ATOM     10  C   UNL     1       3.596   3.697  18.415  0.00  0.00    +0.000 A 
ATOM     11  C   UNL     1       2.268   4.032  18.140  0.00  0.00    +0.000 A 
ATOM     12  C   UNL     1       1.889   5.375  18.070  0.00  0.00    +0.000 A 
ATOM     13  C   UNL     1       2.830   6.385  18.305  0.00  0.00    +0.000 A 
ATOM     14  C   UNL     1       4.129   6.026  18.686  0.00  0.00    +0.000 A 
BRANCH   9  16
ATOM     15  C   UNL     1       6.853   5.217  18.717  0.00  0.00    +0.000 C 
ATOM     16  O   UNL     1       5.813   4.260  18.911  0.00  0.00    +0.000 OA
ENDBRANCH   9  16
ENDBRANCH   1  13
BRANCH   6  17
ATOM     17  C   UNL     1       0.245  10.200  22.182  0.00  0.00    +0.000 C 
BRANCH  17  18
ATOM     18  C   UNL     1      -0.662  11.377  22.371  0.00  0.00    +0.000 A 
ATOM     19  N   UNL     1      -1.877  11.233  23.022  0.00  0.00    +0.000 NA
ATOM     20  C   UNL     1      -2.449  12.420  22.931  0.00  0.00    +0.000 A 
ATOM     21  O   UNL     1      -1.658  13.359  22.319  0.00  0.00    +0.000 OA
ATOM     22  C   UNL     1      -0.517  12.692  21.979  0.00  0.00    +0.000 A 
ATOM     23  C   UNL     1       0.532  13.476  21.308  0.00  0.00    +0.000 C 
BRANCH  20  24
ATOM     24  C   UNL     1      -3.819  12.713  23.413  0.00  0.00    +0.000 A 
ATOM     25  C   UNL     1      -4.840  13.425  22.741  0.00  0.00    +0.000 A 
ATOM     26  C   UNL     1      -5.926  13.413  23.587  0.00  0.00    +0.000 A 
ATOM     27  O   UNL     1      -5.630  12.742  24.733  0.00  0.00    +0.000 OA
ATOM     28  C   UNL     1      -4.343  12.315  24.619  0.00  0.00    +0.000 A 
ENDBRANCH  20  24
ENDBRANCH  17  18
ENDBRANCH   6  17
TORSDOF 5
ENDMDL
MODEL 2
REMARK VINA RESULT:      -7.0      3.504     10.856
REMARK  Name = 
REMARK  7 active torsions:
REMARK  status: ('A' for Active; 'I' for Inactive)
REMARK    1  A    between atoms: C_1  and  O_2
REMARK    2  A    between atoms: O_2  and  C_3
REMARK    3  A    between atoms: C_7  and  C_8
REMARK    4  A    between atoms: N_13  and  C_14
REMARK    5  A    between atoms: C_14  and  C_15
REMARK    6  A    between atoms: C_17  and  C_18
REMARK    7  A    between atoms: C_24  and  C_25
REMARK                            x       y       z     vdW  Elec       q    Type
REMARK                         _______ _______ _______ _____ _____    ______ ____
ROOT
ATOM      1  C   UNL     1       1.614   7.324  20.479  0.00  0.00    +0.000 C 
ATOM      2  O   UNL     1       0.959   7.074  21.491  0.00  0.00    +0.000 OA
ATOM      3  N   UNL     1       2.491   6.396  19.916  0.00  0.00    +0.000 N 
ATOM      4  C   UNL     1       2.476   5.014  20.392  0.00  0.00    +0.000 C 
ATOM      5  C   UNL     1       2.376   4.003  19.219  0.00  0.00    +0.000 C 
ATOM      6  N   UNL     1       3.304   4.234  18.075  0.00  0.00    +0.000 NA
ATOM      7  C   UNL     1       3.219   5.670  17.701  0.00  0.00    +0.000 C 
ATOM      8  C   UNL     1       3.497   6.627  18.873  0.00  0.00    +0.000 C 
ENDROOT
BRANCH   1  13
ATOM      9  C   UNL     1       0.674  10.977  19.973  0.00  0.00    +0.000 A 
ATOM     10  C   UNL     1       1.056  11.159  18.644  0.00  0.00    +0.000 A 
ATOM     11  C   UNL     1       1.654  10.119  17.930  0.00  0.00    +0.000 A 
ATOM     12  C   UNL     1       1.823   8.868  18.532  0.00  0.00    +0.000 A 
ATOM     13  C   UNL     1       1.421   8.665  19.858  0.00  0.00    +0.000 A 
ATOM     14  C   UNL     1       0.924   9.751  20.589  0.00  0.00    +0.000 A 
BRANCH   9  16
ATOM     15  C   UNL     1      -1.218  12.406  20.096  0.00  0.00    +0.000 C 
ATOM     16  O   UNL     1       0.078  12.051  20.575  0.00  0.00    +0.000 OA
ENDBRANCH   9  16
ENDBRANCH   1  13
BRANCH   6  17
ATOM     17  C   UNL     1       4.680   3.809  18.424  0.00  0.00    +0.000 C 
BRANCH  17  18
ATOM     18  C   UNL     1       5.669   4.249  17.389  0.00  0.00    +0.000 A 
ATOM     19  N   UNL     1       5.428   4.025  16.043  0.00  0.00    +0.000 NA
ATOM     20  C   UNL     1       6.523   4.443  15.432  0.00  0.00    +0.000 A 
ATOM     21  O   UNL     1       7.445   4.993  16.286  0.00  0.00    +0.000 OA
ATOM     22  C   UNL     1       6.889   4.879  17.527  0.00  0.00    +0.000 A 
ATOM     23  C   UNL     1       7.672   5.412  18.655  0.00  0.00    +0.000 C 
BRANCH  20  24
ATOM     24  C   UNL     1       6.754   4.312  13.975  0.00  0.00    +0.000 A 
ATOM     25  C   UNL     1       6.115   3.429  13.072  0.00  0.00    +0.000 A 
ATOM     26  C   UNL     1       6.657   3.699  11.837  0.00  0.00    +0.000 A 
ATOM     27  O   UNL     1       7.587   4.688  11.929  0.00  0.00    +0.000 OA
ATOM     28  C   UNL     1       7.640   5.059  13.237  0.00  0.00    +0.000 A 
ENDBRANCH  20  24
ENDBRANCH  17  18
ENDBRANCH   6  17
TORSDOF 5
ENDMDL
MODEL 3
REMARK VINA RESULT:      -7.0      3.534     10.680
REMARK  Name = 
REMARK  7 active torsions:
REMARK  status: ('A' for Active; 'I' for Inactive)
REMARK    1  A    between atoms: C_1  and  O_2
REMARK    2  A    between atoms: O_2  and  C_3
REMARK    3  A    between atoms: C_7  and  C_8
REMARK    4  A    between atoms: N_13  and  C_14
REMARK    5  A    between atoms: C_14  and  C_15
REMARK    6  A    between atoms: C_17  and  C_18
REMARK    7  A    between atoms: C_24  and  C_25
REMARK                            x       y       z     vdW  Elec       q    Type
REMARK                         _______ _______ _______ _____ _____    ______ ____
ROOT
ATOM      1  C   UNL     1       0.491   9.333  20.656  0.00  0.00    +0.000 C 
ATOM      2  O   UNL     1       0.071   9.130  21.795  0.00  0.00    +0.000 OA
ATOM      3  N   UNL     1       1.449   8.512  20.062  0.00  0.00    +0.000 N 
ATOM      4  C   UNL     1       1.809   7.249  20.705  0.00  0.00    +0.000 C 
ATOM      5  C   UNL     1       1.750   6.060  19.708  0.00  0.00    +0.000 C 
ATOM      6  N   UNL     1       2.416   6.276  18.392  0.00  0.00    +0.000 NA
ATOM      7  C   UNL     1       1.964   7.588  17.860  0.00  0.00    +0.000 C 
ATOM      8  C   UNL     1       2.206   8.759  18.830  0.00  0.00    +0.000 C 
ENDROOT
BRANCH   1  13
ATOM      9  C   UNL     1      -1.546  11.413  18.204  0.00  0.00    +0.000 A 
ATOM     10  C   UNL     1      -1.118  12.698  18.538  0.00  0.00    +0.000 A 
ATOM     11  C   UNL     1      -0.208  12.892  19.580  0.00  0.00    +0.000 A 
ATOM     12  C   UNL     1       0.320  11.790  20.258  0.00  0.00    +0.000 A 
ATOM     13  C   UNL     1      -0.083  10.493  19.916  0.00  0.00    +0.000 A 
ATOM     14  C   UNL     1      -1.076  10.328  18.943  0.00  0.00    +0.000 A 
BRANCH   9  16
ATOM     15  C   UNL     1      -2.420  10.104  16.426  0.00  0.00    +0.000 C 
ATOM     16  O   UNL     1      -2.419  11.330  17.155  0.00  0.00    +0.000 OA
ENDBRANCH   9  16
ENDBRANCH   1  13
BRANCH   6  17
ATOM     17  C   UNL     1       3.889   6.185  18.530  0.00  0.00    +0.000 C 
BRANCH  17  18
ATOM     18  C   UNL     1       4.465   5.162  17.599  0.00  0.00    +0.000 A 
ATOM     19  N   UNL     1       5.134   5.553  16.451  0.00  0.00    +0.000 NA
ATOM     20  C   UNL     1       5.420   4.423  15.829  0.00  0.00    +0.000 A 
ATOM     21  O   UNL     1       5.041   3.306  16.530  0.00  0.00    +0.000 OA
ATOM     22  C   UNL     1       4.447   3.784  17.662  0.00  0.00    +0.000 A 
ATOM     23  C   UNL     1       3.949   2.784  18.621  0.00  0.00    +0.000 C 
BRANCH  20  24
ATOM     24  C   UNL     1       6.061   4.356  14.495  0.00  0.00    +0.000 A 
ATOM     25  C   UNL     1       5.612   3.654  13.352  0.00  0.00    +0.000 A 
ATOM     26  C   UNL     1       6.534   3.916  12.364  0.00  0.00    +0.000 A 
ATOM     27  O   UNL     1       7.518   4.730  12.833  0.00  0.00    +0.000 OA
ATOM     28  C   UNL     1       7.222   4.997  14.134  0.00  0.00    +0.000 A 
ENDBRANCH  20  24
ENDBRANCH  17  18
ENDBRANCH   6  17
TORSDOF 5
ENDMDL
MODEL 4
REMARK VINA RESULT:      -6.9      3.405     10.712
REMARK  Name = 
REMARK  7 active torsions:
REMARK  status: ('A' for Active; 'I' for Inactive)
REMARK    1  A    between atoms: C_1  and  O_2
REMARK    2  A    between atoms: O_2  and  C_3
REMARK    3  A    between atoms: C_7  and  C_8
REMARK    4  A    between atoms: N_13  and  C_14
REMARK    5  A    between atoms: C_14  and  C_15
REMARK    6  A    between atoms: C_17  and  C_18
REMARK    7  A    between atoms: C_24  and  C_25
REMARK                            x       y       z     vdW  Elec       q    Type
REMARK                         _______ _______ _______ _____ _____    ______ ____
ROOT
ATOM      1  C   UNL     1       0.393   9.102  20.693  0.00  0.00    +0.000 C 
ATOM      2  O   UNL     1       0.125   8.564  21.767  0.00  0.00    +0.000 OA
ATOM      3  N   UNL     1       1.458   8.681  19.898  0.00  0.00    +0.000 N 
ATOM      4  C   UNL     1       2.145   7.431  20.222  0.00  0.00    +0.000 C 
ATOM      5  C   UNL     1       2.272   6.507  18.981  0.00  0.00    +0.000 C 
ATOM      6  N   UNL     1       2.762   7.154  17.731  0.00  0.00    +0.000 NA
ATOM      7  C   UNL     1       1.984   8.404  17.528  0.00  0.00    +0.000 C 
ATOM      8  C   UNL     1       2.036   9.361  18.733  0.00  0.00    +0.000 C 
ENDROOT
BRANCH   1  13
ATOM      9  C   UNL     1      -1.897  11.299  18.592  0.00  0.00    +0.000 A 
ATOM     10  C   UNL     1      -2.112  12.361  19.470  0.00  0.00    +0.000 A 
ATOM     11  C   UNL     1      -1.554  12.345  20.750  0.00  0.00    +0.000 A 
ATOM     12  C   UNL     1      -0.730  11.285  21.138  0.00  0.00    +0.000 A 
ATOM     13  C   UNL     1      -0.487  10.224  20.256  0.00  0.00    +0.000 A 
ATOM     14  C   UNL     1      -1.143  10.207  19.019  0.00  0.00    +0.000 A 
BRANCH   9  16
ATOM     15  C   UNL     1      -2.776  10.209  16.675  0.00  0.00    +0.000 C 
ATOM     16  O   UNL     1      -2.470  11.424  17.356  0.00  0.00    +0.000 OA
ENDBRANCH   9  16
ENDBRANCH   1  13
BRANCH   6  17
ATOM     17  C   UNL     1       4.223   7.388  17.800  0.00  0.00    +0.000 C 
BRANCH  17  18
ATOM     18  C   UNL     1       4.989   6.261  17.179  0.00  0.00    +0.000 A 
ATOM     19  N   UNL     1       5.263   6.259  15.820  0.00  0.00    +0.000 NA
ATOM     20  C   UNL     1       5.856   5.100  15.599  0.00  0.00    +0.000 A 
ATOM     21  O   UNL     1       6.052   4.363  16.740  0.00  0.00    +0.000 OA
ATOM     22  C   UNL     1       5.512   5.115  17.742  0.00  0.00    +0.000 A 
ATOM     23  C   UNL     1       5.597   4.561  19.104  0.00  0.00    +0.000 C 
BRANCH  20  24
ATOM     24  C   UNL     1       6.250   4.619  14.254  0.00  0.00    +0.000 A 
ATOM     25  C   UNL     1       5.589   3.662  13.448  0.00  0.00    +0.000 A 
ATOM     26  C   UNL     1       6.328   3.572  12.291  0.00  0.00    +0.000 A 
ATOM     27  O   UNL     1       7.398   4.411  12.340  0.00  0.00    +0.000 OA
ATOM     28  C   UNL     1       7.343   5.049  13.541  0.00  0.00    +0.000 A 
ENDBRANCH  20  24
ENDBRANCH  17  18
ENDBRANCH   6  17
TORSDOF 5
ENDMDL
MODEL 5
REMARK VINA RESULT:      -6.8      3.738      4.733
REMARK  Name = 
REMARK  7 active torsions:
REMARK  status: ('A' for Active; 'I' for Inactive)
REMARK    1  A    between atoms: C_1  and  O_2
REMARK    2  A    between atoms: O_2  and  C_3
REMARK    3  A    between atoms: C_7  and  C_8
REMARK    4  A    between atoms: N_13  and  C_14
REMARK    5  A    between atoms: C_14  and  C_15
REMARK    6  A    between atoms: C_17  and  C_18
REMARK    7  A    between atoms: C_24  and  C_25
REMARK                            x       y       z     vdW  Elec       q    Type
REMARK                         _______ _______ _______ _____ _____    ______ ____
ROOT
ATOM      1  C   UNL     1       3.475   5.488  18.948  0.00  0.00    +0.000 C 
ATOM      2  O   UNL     1       3.486   4.673  19.870  0.00  0.00    +0.000 OA
ATOM      3  N   UNL     1       2.558   6.537  18.898  0.00  0.00    +0.000 N 
ATOM      4  C   UNL     1       1.733   6.825  20.069  0.00  0.00    +0.000 C 
ATOM      5  C   UNL     1       1.785   8.328  20.454  0.00  0.00    +0.000 C 
ATOM      6  N   UNL     1       1.598   9.297  19.336  0.00  0.00    +0.000 NA
ATOM      7  C   UNL     1       2.490   8.884  18.221  0.00  0.00    +0.000 C 
ATOM      8  C   UNL     1       2.272   7.429  17.768  0.00  0.00    +0.000 C 
ENDROOT
BRANCH   1  13
ATOM      9  C   UNL     1       6.543   6.028  16.761  0.00  0.00    +0.000 A 
ATOM     10  C   UNL     1       6.394   4.985  15.847  0.00  0.00    +0.000 A 
ATOM     11  C   UNL     1       5.331   4.087  15.964  0.00  0.00    +0.000 A 
ATOM     12  C   UNL     1       4.377   4.264  16.971  0.00  0.00    +0.000 A 
ATOM     13  C   UNL     1       4.502   5.321  17.880  0.00  0.00    +0.000 A 
ATOM     14  C   UNL     1       5.633   6.144  17.811  0.00  0.00    +0.000 A 
BRANCH   9  16
ATOM     15  C   UNL     1       7.763   7.937  17.469  0.00  0.00    +0.000 C 
ATOM     16  O   UNL     1       7.604   6.864  16.544  0.00  0.00    +0.000 OA
ENDBRANCH   9  16
ENDBRANCH   1  13
BRANCH   6  17
ATOM     17  C   UNL     1       0.173   9.370  18.939  0.00  0.00    +0.000 C 
BRANCH  17  18
ATOM     18  C   UNL     1      -0.254  10.783  18.687  0.00  0.00    +0.000 A 
ATOM     19  N   UNL     1       0.640  11.830  18.846  0.00  0.00    +0.000 NA
ATOM     20  C   UNL     1      -0.078  12.919  18.639  0.00  0.00    +0.000 A 
ATOM     21  O   UNL     1      -1.377  12.655  18.285  0.00  0.00    +0.000 OA
ATOM     22  C   UNL     1      -1.477  11.294  18.303  0.00  0.00    +0.000 A 
ATOM     23  C   UNL     1      -2.786  10.723  17.942  0.00  0.00    +0.000 C 
BRANCH  20  24
ATOM     24  C   UNL     1       0.449  14.294  18.797  0.00  0.00    +0.000 A 
ATOM     25  C   UNL     1      -0.268  15.512  18.717  0.00  0.00    +0.000 A 
ATOM     26  C   UNL     1       0.654  16.506  18.950  0.00  0.00    +0.000 A 
ATOM     27  O   UNL     1       1.887  15.974  19.165  0.00  0.00    +0.000 OA
ATOM     28  C   UNL     1       1.754  14.623  19.073  0.00  0.00    +0.000 A 
ENDBRANCH  20  24
ENDBRANCH  17  18
ENDBRANCH   6  17
TORSDOF 5
ENDMDL
MODEL 6
REMARK VINA RESULT:      -6.8      2.301      3.378
REMARK  Name = 
REMARK  7 active torsions:
REMARK  status: ('A' for Active; 'I' for Inactive)
REMARK    1  A    between atoms: C_1  and  O_2
REMARK    2  A    between atoms: O_2  and  C_3
REMARK    3  A    between atoms: C_7  and  C_8
REMARK    4  A    between atoms: N_13  and  C_14
REMARK    5  A    between atoms: C_14  and  C_15
REMARK    6  A    between atoms: C_17  and  C_18
REMARK    7  A    between atoms: C_24  and  C_25
REMARK                            x       y       z     vdW  Elec       q    Type
REMARK                         _______ _______ _______ _____ _____    ______ ____
ROOT
ATOM      1  C   UNL     1       3.396   5.668  19.059  0.00  0.00    +0.000 C 
ATOM      2  O   UNL     1       3.442   4.893  20.014  0.00  0.00    +0.000 OA
ATOM      3  N   UNL     1       2.466   6.705  18.990  0.00  0.00    +0.000 N 
ATOM      4  C   UNL     1       1.669   7.033  20.171  0.00  0.00    +0.000 C 
ATOM      5  C   UNL     1       1.714   8.552  20.490  0.00  0.00    +0.000 C 
ATOM      6  N   UNL     1       1.486   9.470  19.337  0.00  0.00    +0.000 NA
ATOM      7  C   UNL     1       2.351   9.019  18.217  0.00  0.00    +0.000 C 
ATOM      8  C   UNL     1       2.138   7.544  17.832  0.00  0.00    +0.000 C 
ENDROOT
BRANCH   1  13
ATOM      9  C   UNL     1       6.429   6.113  16.803  0.00  0.00    +0.000 A 
ATOM     10  C   UNL     1       6.235   5.067  15.901  0.00  0.00    +0.000 A 
ATOM     11  C   UNL     1       5.152   4.197  16.049  0.00  0.00    +0.000 A 
ATOM     12  C   UNL     1       4.225   4.406  17.074  0.00  0.00    +0.000 A 
ATOM     13  C   UNL     1       4.396   5.467  17.971  0.00  0.00    +0.000 A 
ATOM     14  C   UNL     1       5.545   6.261  17.871  0.00  0.00    +0.000 A 
BRANCH   9  16
ATOM     15  C   UNL     1       7.780   7.925  17.531  0.00  0.00    +0.000 C 
ATOM     16  O   UNL     1       7.505   6.921  16.557  0.00  0.00    +0.000 OA
ENDBRANCH   9  16
ENDBRANCH   1  13
BRANCH   6  17
ATOM     17  C   UNL     1       0.049   9.511  18.978  0.00  0.00    +0.000 C 
BRANCH  17  18
ATOM     18  C   UNL     1      -0.594  10.784  19.435  0.00  0.00    +0.000 A 
ATOM     19  N   UNL     1      -0.284  11.327  20.671  0.00  0.00    +0.000 NA
ATOM     20  C   UNL     1      -1.084  12.372  20.789  0.00  0.00    +0.000 A 
ATOM     21  O   UNL     1      -1.856  12.594  19.677  0.00  0.00    +0.000 OA
ATOM     22  C   UNL     1      -1.528  11.588  18.814  0.00  0.00    +0.000 A 
ATOM     23  C   UNL     1      -2.210  11.589  17.508  0.00  0.00    +0.000 C 
BRANCH  20  24
ATOM     24  C   UNL     1      -1.167  13.212  22.006  0.00  0.00    +0.000 A 
ATOM     25  C   UNL     1      -2.198  13.233  22.976  0.00  0.00    +0.000 A 
ATOM     26  C   UNL     1      -1.809  14.161  23.915  0.00  0.00    +0.000 A 
ATOM     27  O   UNL     1      -0.611  14.709  23.579  0.00  0.00    +0.000 OA
ATOM     28  C   UNL     1      -0.223  14.124  22.413  0.00  0.00    +0.000 A 
ENDBRANCH  20  24
ENDBRANCH  17  18
ENDBRANCH   6  17
TORSDOF 5
ENDMDL
MODEL 7
REMARK VINA RESULT:      -6.8      3.767     10.599
REMARK  Name = 
REMARK  7 active torsions:
REMARK  status: ('A' for Active; 'I' for Inactive)
REMARK    1  A    between atoms: C_1  and  O_2
REMARK    2  A    between atoms: O_2  and  C_3
REMARK    3  A    between atoms: C_7  and  C_8
REMARK    4  A    between atoms: N_13  and  C_14
REMARK    5  A    between atoms: C_14  and  C_15
REMARK    6  A    between atoms: C_17  and  C_18
REMARK    7  A    between atoms: C_24  and  C_25
REMARK                            x       y       z     vdW  Elec       q    Type
REMARK                         _______ _______ _______ _____ _____    ______ ____
ROOT
ATOM      1  C   UNL     1       0.701   8.702  20.457  0.00  0.00    +0.000 C 
ATOM      2  O   UNL     1       0.107   8.339  21.472  0.00  0.00    +0.000 OA
ATOM      3  N   UNL     1       1.746   7.962  19.905  0.00  0.00    +0.000 N 
ATOM      4  C   UNL     1       2.007   6.611  20.398  0.00  0.00    +0.000 C 
ATOM      5  C   UNL     1       2.114   5.585  19.238  0.00  0.00    +0.000 C 
ATOM      6  N   UNL     1       2.979   5.983  18.090  0.00  0.00    +0.000 NA
ATOM      7  C   UNL     1       2.609   7.368  17.698  0.00  0.00    +0.000 C 
ATOM      8  C   UNL     1       2.687   8.376  18.858  0.00  0.00    +0.000 C 
ENDROOT
BRANCH   1  13
ATOM      9  C   UNL     1       0.416  12.375  19.501  0.00  0.00    +0.000 A 
ATOM     10  C   UNL     1      -0.660  12.328  18.615  0.00  0.00    +0.000 A 
ATOM     11  C   UNL     1      -1.262  11.108  18.297  0.00  0.00    +0.000 A 
ATOM     12  C   UNL     1      -0.820   9.932  18.909  0.00  0.00    +0.000 A 
ATOM     13  C   UNL     1       0.244   9.970  19.819  0.00  0.00    +0.000 A 
ATOM     14  C   UNL     1       0.903  11.185  20.041  0.00  0.00    +0.000 A 
BRANCH   9  16
ATOM     15  C   UNL     1       0.508  14.666  18.884  0.00  0.00    +0.000 C 
ATOM     16  O   UNL     1       0.918  13.620  19.762  0.00  0.00    +0.000 OA
ENDBRANCH   9  16
ENDBRANCH   1  13
BRANCH   6  17
ATOM     17  C   UNL     1       4.411   5.846  18.444  0.00  0.00    +0.000 C 
BRANCH  17  18
ATOM     18  C   UNL     1       5.281   5.862  17.224  0.00  0.00    +0.000 A 
ATOM     19  N   UNL     1       4.977   5.067  16.131  0.00  0.00    +0.000 NA
ATOM     20  C   UNL     1       5.981   5.252  15.292  0.00  0.00    +0.000 A 
ATOM     21  O   UNL     1       6.896   6.174  15.734  0.00  0.00    +0.000 OA
ATOM     22  C   UNL     1       6.436   6.568  16.957  0.00  0.00    +0.000 A 
ATOM     23  C   UNL     1       7.233   7.583  17.667  0.00  0.00    +0.000 C 
BRANCH  20  24
ATOM     24  C   UNL     1       6.129   4.523  14.011  0.00  0.00    +0.000 A 
ATOM     25  C   UNL     1       5.196   3.656  13.395  0.00  0.00    +0.000 A 
ATOM     26  C   UNL     1       5.785   3.245  12.221  0.00  0.00    +0.000 A 
ATOM     27  O   UNL     1       7.018   3.803  12.084  0.00  0.00    +0.000 OA
ATOM     28  C   UNL     1       7.220   4.585  13.179  0.00  0.00    +0.000 A 
ENDBRANCH  20  24
ENDBRANCH  17  18
ENDBRANCH   6  17
TORSDOF 5
ENDMDL
MODEL 8
REMARK VINA RESULT:      -6.7      3.703     10.417
REMARK  Name = 
REMARK  7 active torsions:
REMARK  status: ('A' for Active; 'I' for Inactive)
REMARK    1  A    between atoms: C_1  and  O_2
REMARK    2  A    between atoms: O_2  and  C_3
REMARK    3  A    between atoms: C_7  and  C_8
REMARK    4  A    between atoms: N_13  and  C_14
REMARK    5  A    between atoms: C_14  and  C_15
REMARK    6  A    between atoms: C_17  and  C_18
REMARK    7  A    between atoms: C_24  and  C_25
REMARK                            x       y       z     vdW  Elec       q    Type
REMARK                         _______ _______ _______ _____ _____    ______ ____
ROOT
ATOM      1  C   UNL     1       0.572   9.022  20.928  0.00  0.00    +0.000 C 
ATOM      2  O   UNL     1       0.063   8.979  22.048  0.00  0.00    +0.000 OA
ATOM      3  N   UNL     1       1.435   8.029  20.467  0.00  0.00    +0.000 N 
ATOM      4  C   UNL     1       1.574   6.789  21.229  0.00  0.00    +0.000 C 
ATOM      5  C   UNL     1       1.402   5.537  20.327  0.00  0.00    +0.000 C 
ATOM      6  N   UNL     1       2.166   5.544  19.047  0.00  0.00    +0.000 NA
ATOM      7  C   UNL     1       1.937   6.854  18.384  0.00  0.00    +0.000 C 
ATOM      8  C   UNL     1       2.288   8.060  19.273  0.00  0.00    +0.000 C 
ENDROOT
BRANCH   1  13
ATOM      9  C   UNL     1       0.581  12.459  19.292  0.00  0.00    +0.000 A 
ATOM     10  C   UNL     1      -0.512  12.339  18.435  0.00  0.00    +0.000 A 
ATOM     11  C   UNL     1      -1.221  11.138  18.355  0.00  0.00    +0.000 A 
ATOM     12  C   UNL     1      -0.869  10.065  19.179  0.00  0.00    +0.000 A 
ATOM     13  C   UNL     1       0.212  10.181  20.061  0.00  0.00    +0.000 A 
ATOM     14  C   UNL     1       0.975  11.355  20.047  0.00  0.00    +0.000 A 
BRANCH   9  16
ATOM     15  C   UNL     1       2.192  13.907  18.319  0.00  0.00    +0.000 C 
ATOM     16  O   UNL     1       1.192  13.683  19.311  0.00  0.00    +0.000 OA
ENDBRANCH   9  16
ENDBRANCH   1  13
BRANCH   6  17
ATOM     17  C   UNL     1       3.600   5.263  19.292  0.00  0.00    +0.000 C 
BRANCH  17  18
ATOM     18  C   UNL     1       4.215   4.510  18.152  0.00  0.00    +0.000 A 
ATOM     19  N   UNL     1       5.094   5.138  17.285  0.00  0.00    +0.000 NA
ATOM     20  C   UNL     1       5.364   4.229  16.365  0.00  0.00    +0.000 A 
ATOM     21  O   UNL     1       4.770   3.017  16.608  0.00  0.00    +0.000 OA
ATOM     22  C   UNL     1       4.053   3.199  17.755  0.00  0.00    +0.000 A 
ATOM     23  C   UNL     1       3.312   2.032  18.264  0.00  0.00    +0.000 C 
BRANCH  20  24
ATOM     24  C   UNL     1       6.200   4.490  15.170  0.00  0.00    +0.000 A 
ATOM     25  C   UNL     1       6.034   3.968  13.865  0.00  0.00    +0.000 A 
ATOM     26  C   UNL     1       7.046   4.517  13.110  0.00  0.00    +0.000 A 
ATOM     27  O   UNL     1       7.819   5.337  13.872  0.00  0.00    +0.000 OA
ATOM     28  C   UNL     1       7.296   5.318  15.128  0.00  0.00    +0.000 A 
ENDBRANCH  20  24
ENDBRANCH  17  18
ENDBRANCH   6  17
TORSDOF 5
ENDMDL
MODEL 9
REMARK VINA RESULT:      -6.7      1.089      1.848
REMARK  Name = 
REMARK  7 active torsions:
REMARK  status: ('A' for Active; 'I' for Inactive)
REMARK    1  A    between atoms: C_1  and  O_2
REMARK    2  A    between atoms: O_2  and  C_3
REMARK    3  A    between atoms: C_7  and  C_8
REMARK    4  A    between atoms: N_13  and  C_14
REMARK    5  A    between atoms: C_14  and  C_15
REMARK    6  A    between atoms: C_17  and  C_18
REMARK    7  A    between atoms: C_24  and  C_25
REMARK                            x       y       z     vdW  Elec       q    Type
REMARK                         _______ _______ _______ _____ _____    ______ ____
ROOT
ATOM      1  C   UNL     1       2.400   7.782  18.237  0.00  0.00    +0.000 C 
ATOM      2  O   UNL     1       2.544   8.387  17.174  0.00  0.00    +0.000 OA
ATOM      3  N   UNL     1       1.842   8.386  19.363  0.00  0.00    +0.000 N 
ATOM      4  C   UNL     1       1.201   9.694  19.232  0.00  0.00    +0.000 C 
ATOM      5  C   UNL     1      -0.217   9.706  19.865  0.00  0.00    +0.000 C 
ATOM      6  N   UNL     1      -0.329   9.116  21.229  0.00  0.00    +0.000 NA
ATOM      7  C   UNL     1       0.363   7.801  21.217  0.00  0.00    +0.000 C 
ATOM      8  C   UNL     1       1.824   7.880  20.740  0.00  0.00    +0.000 C 
ENDROOT
BRANCH   1  13
ATOM      9  C   UNL     1       2.374   4.002  18.676  0.00  0.00    +0.000 A 
ATOM     10  C   UNL     1       3.695   3.696  18.348  0.00  0.00    +0.000 A 
ATOM     11  C   UNL     1       4.576   4.702  17.946  0.00  0.00    +0.000 A 
ATOM     12  C   UNL     1       4.150   6.033  17.923  0.00  0.00    +0.000 A 
ATOM     13  C   UNL     1       2.833   6.356  18.273  0.00  0.00    +0.000 A 
ATOM     14  C   UNL     1       1.937   5.322  18.568  0.00  0.00    +0.000 A 
BRANCH   9  16
ATOM     15  C   UNL     1       1.214   2.934  20.452  0.00  0.00    +0.000 C 
ATOM     16  O   UNL     1       1.600   2.948  19.079  0.00  0.00    +0.000 OA
ENDBRANCH   9  16
ENDBRANCH   1  13
BRANCH   6  17
ATOM     17  C   UNL     1       0.215  10.045  22.247  0.00  0.00    +0.000 C 
BRANCH  17  18
ATOM     18  C   UNL     1      -0.640  11.268  22.385  0.00  0.00    +0.000 A 
ATOM     19  N   UNL     1      -1.869  11.201  23.021  0.00  0.00    +0.000 NA
ATOM     20  C   UNL     1      -2.384  12.409  22.884  0.00  0.00    +0.000 A 
ATOM     21  O   UNL     1      -1.542  13.291  22.254  0.00  0.00    +0.000 OA
ATOM     22  C   UNL     1      -0.428  12.561  21.954  0.00  0.00    +0.000 A 
ATOM     23  C   UNL     1       0.666  13.275  21.274  0.00  0.00    +0.000 C 
BRANCH  20  24
ATOM     24  C   UNL     1      -3.746  12.780  23.334  0.00  0.00    +0.000 A 
ATOM     25  C   UNL     1      -4.424  12.342  24.496  0.00  0.00    +0.000 A 
ATOM     26  C   UNL     1      -5.644  12.977  24.481  0.00  0.00    +0.000 A 
ATOM     27  O   UNL     1      -5.755  13.772  23.382  0.00  0.00    +0.000 OA
ATOM     28  C   UNL     1      -4.592  13.649  22.688  0.00  0.00    +0.000 A 
ENDBRANCH  20  24
ENDBRANCH  17  18
ENDBRANCH   6  17
TORSDOF 5
ENDMDL
