MODEL 1
REMARK VINA RESULT:      -8.8      0.000      0.000
REMARK  Name = 
REMARK  8 active torsions:
REMARK  status: ('A' for Active; 'I' for Inactive)
REMARK    1  A    between atoms: O_1  and  C_2
REMARK    2  A    between atoms: C_5  and  C_6
REMARK    3  A    between atoms: C_6  and  N_7
REMARK    4  A    between atoms: N_7  and  C_8
REMARK    5  A    between atoms: C_11  and  C_12
REMARK    6  A    between atoms: C_12  and  C_13
REMARK    7  A    between atoms: C_12  and  C_19
REMARK    8  A    between atoms: C_26  and  O_27
REMARK                            x       y       z     vdW  Elec       q    Type
REMARK                         _______ _______ _______ _____ _____    ______ ____
ROOT
ATOM      1  C   UNL     1       2.629   3.253  19.321  0.00  0.00    +0.000 C 
ATOM      2  C   UNL     1       4.091   3.635  19.629  0.00  0.00    +0.000 C 
ATOM      3  O   UNL     1       4.594   4.563  18.666  0.00  0.00    +0.000 OA
ATOM      4  C   UNL     1       4.659   4.034  17.325  0.00  0.00    +0.000 C 
ATOM      5  C   UNL     1       3.249   3.594  16.885  0.00  0.00    +0.000 C 
ATOM      6  C   UNL     1       2.603   2.648  17.901  0.00  0.00    +0.000 C 
ENDROOT
BRANCH   1   7
ATOM      7  N   UNL     1       1.780   4.459  19.440  0.00  0.00    +0.000 NA
ATOM      8  H   UNL     1       1.594   4.850  18.517  0.00  0.00    +0.000 HD
BRANCH   7   9
ATOM      9  C   UNL     1       2.349   5.495  20.295  0.00  0.00    +0.000 C 
BRANCH   9  13
ATOM     10  C   UNL     1       1.730   9.361  18.508  0.00  0.00    +0.000 A 
ATOM     11  C   UNL     1       2.344   8.358  17.766  0.00  0.00    +0.000 A 
ATOM     12  C   UNL     1       2.564   7.111  18.355  0.00  0.00    +0.000 A 
ATOM     13  C   UNL     1       2.175   6.866  19.684  0.00  0.00    +0.000 A 
ATOM     14  C   UNL     1       1.560   7.893  20.411  0.00  0.00    +0.000 A 
ATOM     15  C   UNL     1       1.339   9.139  19.823  0.00  0.00    +0.000 A 
BRANCH  10  16
ATOM     16  O   UNL     1       1.484  10.591  17.971  0.00  0.00    +0.000 OA
ATOM     17  H   UNL     1       2.248  10.846  17.431  0.00  0.00    +0.000 HD
ENDBRANCH  10  16
ENDBRANCH   9  13
ENDBRANCH   7   9
ENDBRANCH   1   7
BRANCH   6  18
ATOM     18  O   UNL     1       3.226   1.357  17.878  0.00  0.00    +0.000 OA
ATOM     19  H   UNL     1       3.454   1.088  18.782  0.00  0.00    +0.000 HD
ENDBRANCH   6  18
BRANCH   4  20
ATOM     20  C   UNL     1       5.273   5.136  16.393  0.00  0.00    +0.000 C 
BRANCH  20  21
ATOM     21  C   UNL     1       6.363   5.907  17.158  0.00  0.00    +0.000 A 
ATOM     22  C   UNL     1       7.177   5.293  18.122  0.00  0.00    +0.000 A 
ATOM     23  C   UNL     1       8.110   6.032  18.852  0.00  0.00    +0.000 A 
ATOM     24  C   UNL     1       8.237   7.402  18.637  0.00  0.00    +0.000 A 
ATOM     25  C   UNL     1       7.439   8.031  17.684  0.00  0.00    +0.000 A 
ATOM     26  C   UNL     1       6.512   7.290  16.949  0.00  0.00    +0.000 A 
ENDBRANCH  20  21
BRANCH  20  27
ATOM     27  C   UNL     1       5.766   4.653  15.024  0.00  0.00    +0.000 A 
ATOM     28  C   UNL     1       4.883   3.961  14.178  0.00  0.00    +0.000 A 
ATOM     29  C   UNL     1       5.285   3.554  12.903  0.00  0.00    +0.000 A 
ATOM     30  C   UNL     1       6.573   3.830  12.454  0.00  0.00    +0.000 A 
ATOM     31  C   UNL     1       7.461   4.517  13.276  0.00  0.00    +0.000 A 
ATOM     32  C   UNL     1       7.057   4.934  14.545  0.00  0.00    +0.000 A 
ENDBRANCH  20  27
ENDBRANCH   4  20
TORSDOF 8
ENDMDL
MODEL 2
REMARK VINA RESULT:      -8.7      0.170      1.278
REMARK  Name = 
REMARK  8 active torsions:
REMARK  status: ('A' for Active; 'I' for Inactive)
REMARK    1  A    between atoms: O_1  and  C_2
REMARK    2  A    between atoms: C_5  and  C_6
REMARK    3  A    between atoms: C_6  and  N_7
REMARK    4  A    between atoms: N_7  and  C_8
REMARK    5  A    between atoms: C_11  and  C_12
REMARK    6  A    between atoms: C_12  and  C_13
REMARK    7  A    between atoms: C_12  and  C_19
REMARK    8  A    between atoms: C_26  and  O_27
REMARK                            x       y       z     vdW  Elec       q    Type
REMARK                         _______ _______ _______ _____ _____    ______ ____
ROOT
ATOM      1  C   UNL     1       2.629   3.199  19.369  0.00  0.00    +0.000 C 
ATOM      2  C   UNL     1       4.139   3.443  19.574  0.00  0.00    +0.000 C 
ATOM      3  O   UNL     1       4.636   4.405  18.643  0.00  0.00    +0.000 OA
ATOM      4  C   UNL     1       4.547   3.985  17.265  0.00  0.00    +0.000 C 
ATOM      5  C   UNL     1       3.073   3.690  16.920  0.00  0.00    +0.000 C 
ATOM      6  C   UNL     1       2.437   2.717  17.915  0.00  0.00    +0.000 C 
ENDROOT
BRANCH   1   7
ATOM      7  N   UNL     1       1.897   4.452  19.653  0.00  0.00    +0.000 NA
ATOM      8  H   UNL     1       1.393   4.761  18.822  0.00  0.00    +0.000 HD
BRANCH   7   9
ATOM      9  C   UNL     1       2.749   5.537  20.129  0.00  0.00    +0.000 C 
BRANCH   9  13
ATOM     10  C   UNL     1       1.673   9.371  18.496  0.00  0.00    +0.000 A 
ATOM     11  C   UNL     1       1.305   9.058  19.800  0.00  0.00    +0.000 A 
ATOM     12  C   UNL     1       1.635   7.805  20.320  0.00  0.00    +0.000 A 
ATOM     13  C   UNL     1       2.329   6.863  19.539  0.00  0.00    +0.000 A 
ATOM     14  C   UNL     1       2.688   7.201  18.229  0.00  0.00    +0.000 A 
ATOM     15  C   UNL     1       2.359   8.454  17.708  0.00  0.00    +0.000 A 
BRANCH  10  16
ATOM     16  O   UNL     1       1.382  10.586  17.948  0.00  0.00    +0.000 OA
ATOM     17  H   UNL     1       2.085  11.208  18.197  0.00  0.00    +0.000 HD
ENDBRANCH  10  16
ENDBRANCH   9  13
ENDBRANCH   7   9
ENDBRANCH   1   7
BRANCH   6  18
ATOM     18  O   UNL     1       2.947   1.388  17.740  0.00  0.00    +0.000 OA
ATOM     19  H   UNL     1       2.960   0.927  18.594  0.00  0.00    +0.000 HD
ENDBRANCH   6  18
BRANCH   4  20
ATOM     20  C   UNL     1       5.171   5.109  16.368  0.00  0.00    +0.000 C 
BRANCH  20  21
ATOM     21  C   UNL     1       6.209   5.899  17.183  0.00  0.00    +0.000 A 
ATOM     22  C   UNL     1       6.392   7.282  17.024  0.00  0.00    +0.000 A 
ATOM     23  C   UNL     1       7.391   7.961  17.726  0.00  0.00    +0.000 A 
ATOM     24  C   UNL     1       8.231   7.266  18.591  0.00  0.00    +0.000 A 
ATOM     25  C   UNL     1       8.066   5.894  18.764  0.00  0.00    +0.000 A 
ATOM     26  C   UNL     1       7.063   5.216  18.069  0.00  0.00    +0.000 A 
ENDBRANCH  20  21
BRANCH  20  27
ATOM     27  C   UNL     1       5.731   4.651  15.017  0.00  0.00    +0.000 A 
ATOM     28  C   UNL     1       4.917   3.900  14.152  0.00  0.00    +0.000 A 
ATOM     29  C   UNL     1       5.379   3.512  12.892  0.00  0.00    +0.000 A 
ATOM     30  C   UNL     1       6.659   3.866  12.476  0.00  0.00    +0.000 A 
ATOM     31  C   UNL     1       7.479   4.612  13.317  0.00  0.00    +0.000 A 
ATOM     32  C   UNL     1       7.014   5.010  14.571  0.00  0.00    +0.000 A 
ENDBRANCH  20  27
ENDBRANCH   4  20
TORSDOF 8
ENDMDL
MODEL 3
REMARK VINA RESULT:      -8.7      0.212      1.280
REMARK  Name = 
REMARK  8 active torsions:
REMARK  status: ('A' for Active; 'I' for Inactive)
REMARK    1  A    between atoms: O_1  and  C_2
REMARK    2  A    between atoms: C_5  and  C_6
REMARK    3  A    between atoms: C_6  and  N_7
REMARK    4  A    between atoms: N_7  and  C_8
REMARK    5  A    between atoms: C_11  and  C_12
REMARK    6  A    between atoms: C_12  and  C_13
REMARK    7  A    between atoms: C_12  and  C_19
REMARK    8  A    between atoms: C_26  and  O_27
REMARK                            x       y       z     vdW  Elec       q    Type
REMARK                         _______ _______ _______ _____ _____    ______ ____
ROOT
ATOM      1  C   UNL     1       2.626   3.247  19.331  0.00  0.00    +0.000 C 
ATOM      2  C   UNL     1       4.140   3.479  19.523  0.00  0.00    +0.000 C 
ATOM      3  O   UNL     1       4.631   4.455  18.603  0.00  0.00    +0.000 OA
ATOM      4  C   UNL     1       4.523   4.061  17.219  0.00  0.00    +0.000 C 
ATOM      5  C   UNL     1       3.044   3.781  16.887  0.00  0.00    +0.000 C 
ATOM      6  C   UNL     1       2.414   2.792  17.871  0.00  0.00    +0.000 C 
ENDROOT
BRANCH   1   7
ATOM      7  N   UNL     1       1.904   4.499  19.646  0.00  0.00    +0.000 NA
ATOM      8  H   UNL     1       1.416   4.841  18.819  0.00  0.00    +0.000 HD
BRANCH   7   9
ATOM      9  C   UNL     1       2.762   5.556  20.171  0.00  0.00    +0.000 C 
BRANCH   9  13
ATOM     10  C   UNL     1       1.588   9.331  18.470  0.00  0.00    +0.000 A 
ATOM     11  C   UNL     1       2.339   8.444  17.707  0.00  0.00    +0.000 A 
ATOM     12  C   UNL     1       2.738   7.229  18.268  0.00  0.00    +0.000 A 
ATOM     13  C   UNL     1       2.391   6.901  19.591  0.00  0.00    +0.000 A 
ATOM     14  C   UNL     1       1.635   7.812  20.340  0.00  0.00    +0.000 A 
ATOM     15  C   UNL     1       1.236   9.025  19.779  0.00  0.00    +0.000 A 
BRANCH  10  16
ATOM     16  O   UNL     1       1.166  10.524  17.961  0.00  0.00    +0.000 OA
ATOM     17  H   UNL     1       0.264  10.688  18.277  0.00  0.00    +0.000 HD
ENDBRANCH  10  16
ENDBRANCH   9  13
ENDBRANCH   7   9
ENDBRANCH   1   7
BRANCH   6  18
ATOM     18  O   UNL     1       2.914   1.465  17.666  0.00  0.00    +0.000 OA
ATOM     19  H   UNL     1       2.247   0.817  17.943  0.00  0.00    +0.000 HD
ENDBRANCH   6  18
BRANCH   4  20
ATOM     20  C   UNL     1       5.143   5.199  16.335  0.00  0.00    +0.000 C 
BRANCH  20  21
ATOM     21  C   UNL     1       6.189   5.974  17.156  0.00  0.00    +0.000 A 
ATOM     22  C   UNL     1       6.391   7.354  16.998  0.00  0.00    +0.000 A 
ATOM     23  C   UNL     1       7.396   8.019  17.704  0.00  0.00    +0.000 A 
ATOM     24  C   UNL     1       8.223   7.312  18.573  0.00  0.00    +0.000 A 
ATOM     25  C   UNL     1       8.038   5.942  18.745  0.00  0.00    +0.000 A 
ATOM     26  C   UNL     1       7.028   5.279  18.045  0.00  0.00    +0.000 A 
ENDBRANCH  20  21
BRANCH  20  27
ATOM     27  C   UNL     1       5.692   4.761  14.973  0.00  0.00    +0.000 A 
ATOM     28  C   UNL     1       7.001   5.118  14.610  0.00  0.00    +0.000 A 
ATOM     29  C   UNL     1       7.551   4.690  13.399  0.00  0.00    +0.000 A 
ATOM     30  C   UNL     1       6.801   3.901  12.531  0.00  0.00    +0.000 A 
ATOM     31  C   UNL     1       5.504   3.534  12.874  0.00  0.00    +0.000 A 
ATOM     32  C   UNL     1       4.959   3.951  14.089  0.00  0.00    +0.000 A 
ENDBRANCH  20  27
ENDBRANCH   4  20
TORSDOF 8
ENDMDL
MODEL 4
REMARK VINA RESULT:      -8.5      1.046      3.618
REMARK  Name = 
REMARK  8 active torsions:
REMARK  status: ('A' for Active; 'I' for Inactive)
REMARK    1  A    between atoms: O_1  and  C_2
REMARK    2  A    between atoms: C_5  and  C_6
REMARK    3  A    between atoms: C_6  and  N_7
REMARK    4  A    between atoms: N_7  and  C_8
REMARK    5  A    between atoms: C_11  and  C_12
REMARK    6  A    between atoms: C_12  and  C_13
REMARK    7  A    between atoms: C_12  and  C_19
REMARK    8  A    between atoms: C_26  and  O_27
REMARK                            x       y       z     vdW  Elec       q    Type
REMARK                         _______ _______ _______ _____ _____    ______ ____
ROOT
ATOM      1  C   UNL     1       2.721   4.417  19.251  0.00  0.00    +0.000 C 
ATOM      2  C   UNL     1       3.810   3.341  19.445  0.00  0.00    +0.000 C 
ATOM      3  O   UNL     1       5.044   3.745  18.850  0.00  0.00    +0.000 OA
ATOM      4  C   UNL     1       4.978   3.903  17.417  0.00  0.00    +0.000 C 
ATOM      5  C   UNL     1       3.905   4.954  17.073  0.00  0.00    +0.000 C 
ATOM      6  C   UNL     1       2.560   4.636  17.731  0.00  0.00    +0.000 C 
ENDROOT
BRANCH   1   7
ATOM      7  N   UNL     1       3.129   5.648  19.962  0.00  0.00    +0.000 NA
ATOM      8  H   UNL     1       3.829   5.430  20.670  0.00  0.00    +0.000 HD
BRANCH   7   9
ATOM      9  C   UNL     1       2.020   6.361  20.587  0.00  0.00    +0.000 C 
BRANCH   9  13
ATOM     10  C   UNL     1       1.286  10.160  18.702  0.00  0.00    +0.000 A 
ATOM     11  C   UNL     1       2.010   9.189  18.019  0.00  0.00    +0.000 A 
ATOM     12  C   UNL     1       2.266   7.965  18.641  0.00  0.00    +0.000 A 
ATOM     13  C   UNL     1       1.804   7.711  19.945  0.00  0.00    +0.000 A 
ATOM     14  C   UNL     1       1.079   8.706  20.613  0.00  0.00    +0.000 A 
ATOM     15  C   UNL     1       0.822   9.929  19.992  0.00  0.00    +0.000 A 
BRANCH  10  16
ATOM     16  O   UNL     1       1.002  11.366  18.132  0.00  0.00    +0.000 OA
ATOM     17  H   UNL     1       1.729  11.598  17.533  0.00  0.00    +0.000 HD
ENDBRANCH  10  16
ENDBRANCH   9  13
ENDBRANCH   7   9
ENDBRANCH   1   7
BRANCH   6  18
ATOM     18  O   UNL     1       1.932   3.507  17.110  0.00  0.00    +0.000 OA
ATOM     19  H   UNL     1       2.602   2.843  16.884  0.00  0.00    +0.000 HD
ENDBRANCH   6  18
BRANCH   4  20
ATOM     20  C   UNL     1       6.406   4.295  16.900  0.00  0.00    +0.000 C 
BRANCH  20  21
ATOM     21  C   UNL     1       6.414   4.288  15.362  0.00  0.00    +0.000 A 
ATOM     22  C   UNL     1       5.469   3.571  14.611  0.00  0.00    +0.000 A 
ATOM     23  C   UNL     1       5.544   3.525  13.217  0.00  0.00    +0.000 A 
ATOM     24  C   UNL     1       6.571   4.187  12.551  0.00  0.00    +0.000 A 
ATOM     25  C   UNL     1       7.519   4.905  13.277  0.00  0.00    +0.000 A 
ATOM     26  C   UNL     1       7.440   4.958  14.670  0.00  0.00    +0.000 A 
ENDBRANCH  20  21
BRANCH  20  27
ATOM     27  C   UNL     1       6.989   5.593  17.471  0.00  0.00    +0.000 A 
ATOM     28  C   UNL     1       7.788   5.541  18.625  0.00  0.00    +0.000 A 
ATOM     29  C   UNL     1       8.378   6.698  19.140  0.00  0.00    +0.000 A 
ATOM     30  C   UNL     1       8.177   7.924  18.513  0.00  0.00    +0.000 A 
ATOM     31  C   UNL     1       7.390   7.996  17.368  0.00  0.00    +0.000 A 
ATOM     32  C   UNL     1       6.811   6.839  16.845  0.00  0.00    +0.000 A 
ENDBRANCH  20  27
ENDBRANCH   4  20
TORSDOF 8
ENDMDL
MODEL 5
REMARK VINA RESULT:      -8.4      3.121      6.882
REMARK  Name = 
REMARK  8 active torsions:
REMARK  status: ('A' for Active; 'I' for Inactive)
REMARK    1  A    between atoms: O_1  and  C_2
REMARK    2  A    between atoms: C_5  and  C_6
REMARK    3  A    between atoms: C_6  and  N_7
REMARK    4  A    between atoms: N_7  and  C_8
REMARK    5  A    between atoms: C_11  and  C_12
REMARK    6  A    between atoms: C_12  and  C_13
REMARK    7  A    between atoms: C_12  and  C_19
REMARK    8  A    between atoms: C_26  and  O_27
REMARK                            x       y       z     vdW  Elec       q    Type
REMARK                         _______ _______ _______ _____ _____    ______ ____
ROOT
ATOM      1  C   UNL     1       7.718   6.814  17.761  0.00  0.00    +0.000 C 
ATOM      2  C   UNL     1       7.077   6.311  16.450  0.00  0.00    +0.000 C 
ATOM      3  O   UNL     1       5.651   6.331  16.535  0.00  0.00    +0.000 OA
ATOM      4  C   UNL     1       5.112   5.442  17.535  0.00  0.00    +0.000 C 
ATOM      5  C   UNL     1       5.686   5.825  18.914  0.00  0.00    +0.000 C 
ATOM      6  C   UNL     1       7.215   5.897  18.897  0.00  0.00    +0.000 C 
ENDROOT
BRANCH   1   7
ATOM      7  N   UNL     1       7.344   8.230  17.967  0.00  0.00    +0.000 NA
ATOM      8  H   UNL     1       6.395   8.396  17.634  0.00  0.00    +0.000 HD
BRANCH   7   9
ATOM      9  C   UNL     1       8.251   9.176  17.325  0.00  0.00    +0.000 C 
BRANCH   9  13
ATOM     10  C   UNL     1       9.625  12.239  20.018  0.00  0.00    +0.000 A 
ATOM     11  C   UNL     1       9.627  10.913  20.436  0.00  0.00    +0.000 A 
ATOM     12  C   UNL     1       9.160   9.924  19.569  0.00  0.00    +0.000 A 
ATOM     13  C   UNL     1       8.688  10.256  18.287  0.00  0.00    +0.000 A 
ATOM     14  C   UNL     1       8.694  11.599  17.889  0.00  0.00    +0.000 A 
ATOM     15  C   UNL     1       9.162  12.589  18.755  0.00  0.00    +0.000 A 
BRANCH  10  16
ATOM     16  O   UNL     1      10.082  13.239  20.825  0.00  0.00    +0.000 OA
ATOM     17  H   UNL     1       9.625  14.060  20.583  0.00  0.00    +0.000 HD
ENDBRANCH  10  16
ENDBRANCH   9  13
ENDBRANCH   7   9
ENDBRANCH   1   7
BRANCH   6  18
ATOM     18  O   UNL     1       7.795   4.591  18.802  0.00  0.00    +0.000 OA
ATOM     19  H   UNL     1       8.508   4.500  19.454  0.00  0.00    +0.000 HD
ENDBRANCH   6  18
BRANCH   4  20
ATOM     20  C   UNL     1       3.548   5.531  17.479  0.00  0.00    +0.000 C 
BRANCH  20  21
ATOM     21  C   UNL     1       2.942   4.183  17.908  0.00  0.00    +0.000 A 
ATOM     22  C   UNL     1       1.558   3.999  18.064  0.00  0.00    +0.000 A 
ATOM     23  C   UNL     1       1.041   2.786  18.523  0.00  0.00    +0.000 A 
ATOM     24  C   UNL     1       1.900   1.738  18.843  0.00  0.00    +0.000 A 
ATOM     25  C   UNL     1       3.275   1.899  18.693  0.00  0.00    +0.000 A 
ATOM     26  C   UNL     1       3.792   3.109  18.227  0.00  0.00    +0.000 A 
ENDBRANCH  20  21
BRANCH  20  27
ATOM     27  C   UNL     1       2.918   6.708  18.233  0.00  0.00    +0.000 A 
ATOM     28  C   UNL     1       2.668   7.910  17.550  0.00  0.00    +0.000 A 
ATOM     29  C   UNL     1       2.048   8.983  18.193  0.00  0.00    +0.000 A 
ATOM     30  C   UNL     1       1.669   8.874  19.528  0.00  0.00    +0.000 A 
ATOM     31  C   UNL     1       1.905   7.691  20.221  0.00  0.00    +0.000 A 
ATOM     32  C   UNL     1       2.514   6.614  19.576  0.00  0.00    +0.000 A 
ENDBRANCH  20  27
ENDBRANCH   4  20
TORSDOF 8
ENDMDL
MODEL 6
REMARK VINA RESULT:      -8.4      2.191      7.218
REMARK  Name = 
REMARK  8 active torsions:
REMARK  status: ('A' for Active; 'I' for Inactive)
REMARK    1  A    between atoms: O_1  and  C_2
REMARK    2  A    between atoms: C_5  and  C_6
REMARK    3  A    between atoms: C_6  and  N_7
REMARK    4  A    between atoms: N_7  and  C_8
REMARK    5  A    between atoms: C_11  and  C_12
REMARK    6  A    between atoms: C_12  and  C_13
REMARK    7  A    between atoms: C_12  and  C_19
REMARK    8  A    between atoms: C_26  and  O_27
REMARK                            x       y       z     vdW  Elec       q    Type
REMARK                         _______ _______ _______ _____ _____    ______ ____
ROOT
ATOM      1  C   UNL     1       7.238   5.031  17.521  0.00  0.00    +0.000 C 
ATOM      2  C   UNL     1       6.406   4.577  18.738  0.00  0.00    +0.000 C 
ATOM      3  O   UNL     1       5.009   4.762  18.503  0.00  0.00    +0.000 OA
ATOM      4  C   UNL     1       4.624   6.142  18.328  0.00  0.00    +0.000 C 
ATOM      5  C   UNL     1       5.400   6.736  17.136  0.00  0.00    +0.000 C 
ATOM      6  C   UNL     1       6.909   6.518  17.271  0.00  0.00    +0.000 C 
ENDROOT
BRANCH   1   7
ATOM      7  N   UNL     1       6.905   4.173  16.363  0.00  0.00    +0.000 NA
ATOM      8  H   UNL     1       7.254   3.227  16.513  0.00  0.00    +0.000 HD
BRANCH   7   9
ATOM      9  C   UNL     1       7.416   4.677  15.092  0.00  0.00    +0.000 C 
BRANCH   9  13
ATOM     10  C   UNL     1       4.949   3.297  11.847  0.00  0.00    +0.000 A 
ATOM     11  C   UNL     1       6.320   3.428  11.653  0.00  0.00    +0.000 A 
ATOM     12  C   UNL     1       7.115   3.897  12.700  0.00  0.00    +0.000 A 
ATOM     13  C   UNL     1       6.544   4.239  13.938  0.00  0.00    +0.000 A 
ATOM     14  C   UNL     1       5.161   4.100  14.109  0.00  0.00    +0.000 A 
ATOM     15  C   UNL     1       4.365   3.631  13.063  0.00  0.00    +0.000 A 
BRANCH  10  16
ATOM     16  O   UNL     1       4.133   2.832  10.857  0.00  0.00    +0.000 OA
ATOM     17  H   UNL     1       4.340   1.896  10.706  0.00  0.00    +0.000 HD
ENDBRANCH  10  16
ENDBRANCH   9  13
ENDBRANCH   7   9
ENDBRANCH   1   7
BRANCH   6  18
ATOM     18  O   UNL     1       7.464   7.350  18.297  0.00  0.00    +0.000 OA
ATOM     19  H   UNL     1       7.173   7.035  19.168  0.00  0.00    +0.000 HD
ENDBRANCH   6  18
BRANCH   4  20
ATOM     20  C   UNL     1       3.069   6.196  18.133  0.00  0.00    +0.000 C 
BRANCH  20  21
ATOM     21  C   UNL     1       2.428   4.953  18.773  0.00  0.00    +0.000 A 
ATOM     22  C   UNL     1       1.739   3.992  18.016  0.00  0.00    +0.000 A 
ATOM     23  C   UNL     1       1.105   2.910  18.633  0.00  0.00    +0.000 A 
ATOM     24  C   UNL     1       1.141   2.777  20.018  0.00  0.00    +0.000 A 
ATOM     25  C   UNL     1       1.820   3.720  20.787  0.00  0.00    +0.000 A 
ATOM     26  C   UNL     1       2.460   4.796  20.171  0.00  0.00    +0.000 A 
ENDBRANCH  20  21
BRANCH  20  27
ATOM     27  C   UNL     1       2.385   7.492  18.584  0.00  0.00    +0.000 A 
ATOM     28  C   UNL     1       2.094   8.485  17.635  0.00  0.00    +0.000 A 
ATOM     29  C   UNL     1       1.424   9.654  18.004  0.00  0.00    +0.000 A 
ATOM     30  C   UNL     1       1.036   9.850  19.326  0.00  0.00    +0.000 A 
ATOM     31  C   UNL     1       1.312   8.876  20.281  0.00  0.00    +0.000 A 
ATOM     32  C   UNL     1       1.970   7.703  19.911  0.00  0.00    +0.000 A 
ENDBRANCH  20  27
ENDBRANCH   4  20
TORSDOF 8
ENDMDL
MODEL 7
REMARK VINA RESULT:      -8.4      3.514      6.414
REMARK  Name = 
REMARK  8 active torsions:
REMARK  status: ('A' for Active; 'I' for Inactive)
REMARK    1  A    between atoms: O_1  and  C_2
REMARK    2  A    between atoms: C_5  and  C_6
REMARK    3  A    between atoms: C_6  and  N_7
REMARK    4  A    between atoms: N_7  and  C_8
REMARK    5  A    between atoms: C_11  and  C_12
REMARK    6  A    between atoms: C_12  and  C_13
REMARK    7  A    between atoms: C_12  and  C_19
REMARK    8  A    between atoms: C_26  and  O_27
REMARK                            x       y       z     vdW  Elec       q    Type
REMARK                         _______ _______ _______ _____ _____    ______ ____
ROOT
ATOM      1  C   UNL     1       0.557   9.930  20.370  0.00  0.00    +0.000 C 
ATOM      2  C   UNL     1       1.772   9.914  19.419  0.00  0.00    +0.000 C 
ATOM      3  O   UNL     1       1.935   8.629  18.816  0.00  0.00    +0.000 OA
ATOM      4  C   UNL     1       2.229   7.575  19.756  0.00  0.00    +0.000 C 
ATOM      5  C   UNL     1       1.088   7.486  20.789  0.00  0.00    +0.000 C 
ATOM      6  C   UNL     1       0.796   8.841  21.437  0.00  0.00    +0.000 C 
ENDROOT
BRANCH   1   7
ATOM      7  N   UNL     1      -0.674   9.694  19.583  0.00  0.00    +0.000 NA
ATOM      8  H   UNL     1      -0.775   8.700  19.379  0.00  0.00    +0.000 HD
BRANCH   7   9
ATOM      9  C   UNL     1      -0.727  10.448  18.335  0.00  0.00    +0.000 C 
BRANCH   9  13
ATOM     10  C   UNL     1      -4.740  11.501  17.192  0.00  0.00    +0.000 A 
ATOM     11  C   UNL     1      -4.270  11.870  18.447  0.00  0.00    +0.000 A 
ATOM     12  C   UNL     1      -2.976  11.509  18.825  0.00  0.00    +0.000 A 
ATOM     13  C   UNL     1      -2.152  10.775  17.953  0.00  0.00    +0.000 A 
ATOM     14  C   UNL     1      -2.648  10.414  16.694  0.00  0.00    +0.000 A 
ATOM     15  C   UNL     1      -3.942  10.776  16.316  0.00  0.00    +0.000 A 
BRANCH  10  16
ATOM     16  O   UNL     1      -5.994  11.842  16.774  0.00  0.00    +0.000 OA
ATOM     17  H   UNL     1      -6.585  11.824  17.543  0.00  0.00    +0.000 HD
ENDBRANCH  10  16
ENDBRANCH   9  13
ENDBRANCH   7   9
ENDBRANCH   1   7
BRANCH   6  18
ATOM     18  O   UNL     1       1.843   9.222  22.338  0.00  0.00    +0.000 OA
ATOM     19  H   UNL     1       1.462   9.656  23.118  0.00  0.00    +0.000 HD
ENDBRANCH   6  18
BRANCH   4  20
ATOM     20  C   UNL     1       2.432   6.244  18.953  0.00  0.00    +0.000 C 
BRANCH  20  21
ATOM     21  C   UNL     1       3.875   6.178  18.425  0.00  0.00    +0.000 A 
ATOM     22  C   UNL     1       4.248   6.741  17.193  0.00  0.00    +0.000 A 
ATOM     23  C   UNL     1       5.550   6.604  16.705  0.00  0.00    +0.000 A 
ATOM     24  C   UNL     1       6.498   5.894  17.436  0.00  0.00    +0.000 A 
ATOM     25  C   UNL     1       6.149   5.329  18.661  0.00  0.00    +0.000 A 
ATOM     26  C   UNL     1       4.851   5.472  19.152  0.00  0.00    +0.000 A 
ENDBRANCH  20  21
BRANCH  20  27
ATOM     27  C   UNL     1       2.029   4.957  19.682  0.00  0.00    +0.000 A 
ATOM     28  C   UNL     1       1.339   3.954  18.982  0.00  0.00    +0.000 A 
ATOM     29  C   UNL     1       1.004   2.748  19.602  0.00  0.00    +0.000 A 
ATOM     30  C   UNL     1       1.352   2.525  20.931  0.00  0.00    +0.000 A 
ATOM     31  C   UNL     1       2.038   3.505  21.641  0.00  0.00    +0.000 A 
ATOM     32  C   UNL     1       2.383   4.705  21.019  0.00  0.00    +0.000 A 
ENDBRANCH  20  27
ENDBRANCH   4  20
TORSDOF 8
ENDMDL
MODEL 8
REMARK VINA RESULT:      -8.4      3.278      6.294
REMARK  Name = 
REMARK  8 active torsions:
REMARK  status: ('A' for Active; 'I' for Inactive)
REMARK    1  A    between atoms: O_1  and  C_2
REMARK    2  A    between atoms: C_5  and  C_6
REMARK    3  A    between atoms: C_6  and  N_7
REMARK    4  A    between atoms: N_7  and  C_8
REMARK    5  A    between atoms: C_11  and  C_12
REMARK    6  A    between atoms: C_12  and  C_13
REMARK    7  A    between atoms: C_12  and  C_19
REMARK    8  A    between atoms: C_26  and  O_27
REMARK                            x       y       z     vdW  Elec       q    Type
REMARK                         _______ _______ _______ _____ _____    ______ ____
ROOT
ATOM      1  C   UNL     1       0.685   9.978  20.370  0.00  0.00    +0.000 C 
ATOM      2  C   UNL     1       1.685   9.844  19.202  0.00  0.00    +0.000 C 
ATOM      3  O   UNL     1       1.662   8.524  18.655  0.00  0.00    +0.000 OA
ATOM      4  C   UNL     1       2.086   7.501  19.580  0.00  0.00    +0.000 C 
ATOM      5  C   UNL     1       1.170   7.529  20.820  0.00  0.00    +0.000 C 
ATOM      6  C   UNL     1       1.079   8.929  21.432  0.00  0.00    +0.000 C 
ENDROOT
BRANCH   1   7
ATOM      7  N   UNL     1      -0.687   9.777  19.854  0.00  0.00    +0.000 NA
ATOM      8  H   UNL     1      -0.673   9.146  19.053  0.00  0.00    +0.000 HD
BRANCH   7   9
ATOM      9  C   UNL     1      -1.361  11.015  19.480  0.00  0.00    +0.000 C 
BRANCH   9  13
ATOM     10  C   UNL     1      -3.591  10.457  15.842  0.00  0.00    +0.000 A 
ATOM     11  C   UNL     1      -2.404   9.758  16.027  0.00  0.00    +0.000 A 
ATOM     12  C   UNL     1      -1.670   9.957  17.198  0.00  0.00    +0.000 A 
ATOM     13  C   UNL     1      -2.119  10.856  18.182  0.00  0.00    +0.000 A 
ATOM     14  C   UNL     1      -3.317  11.549  17.972  0.00  0.00    +0.000 A 
ATOM     15  C   UNL     1      -4.051  11.350  16.802  0.00  0.00    +0.000 A 
BRANCH  10  16
ATOM     16  O   UNL     1      -4.348  10.287  14.719  0.00  0.00    +0.000 OA
ATOM     17  H   UNL     1      -5.141  10.839  14.800  0.00  0.00    +0.000 HD
ENDBRANCH  10  16
ENDBRANCH   9  13
ENDBRANCH   7   9
ENDBRANCH   1   7
BRANCH   6  18
ATOM     18  O   UNL     1       2.302   9.290  22.086  0.00  0.00    +0.000 OA
ATOM     19  H   UNL     1       3.053   9.105  21.501  0.00  0.00    +0.000 HD
ENDBRANCH   6  18
BRANCH   4  20
ATOM     20  C   UNL     1       2.060   6.122  18.833  0.00  0.00    +0.000 C 
BRANCH  20  21
ATOM     21  C   UNL     1       3.313   5.994  17.949  0.00  0.00    +0.000 A 
ATOM     22  C   UNL     1       3.700   4.775  17.371  0.00  0.00    +0.000 A 
ATOM     23  C   UNL     1       4.881   4.672  16.632  0.00  0.00    +0.000 A 
ATOM     24  C   UNL     1       5.700   5.785  16.468  0.00  0.00    +0.000 A 
ATOM     25  C   UNL     1       5.334   7.004  17.033  0.00  0.00    +0.000 A 
ATOM     26  C   UNL     1       4.150   7.110  17.764  0.00  0.00    +0.000 A 
ENDBRANCH  20  21
BRANCH  20  27
ATOM     27  C   UNL     1       1.853   4.888  19.717  0.00  0.00    +0.000 A 
ATOM     28  C   UNL     1       1.000   3.861  19.280  0.00  0.00    +0.000 A 
ATOM     29  C   UNL     1       0.830   2.699  20.036  0.00  0.00    +0.000 A 
ATOM     30  C   UNL     1       1.509   2.545  21.242  0.00  0.00    +0.000 A 
ATOM     31  C   UNL     1       2.361   3.549  21.691  0.00  0.00    +0.000 A 
ATOM     32  C   UNL     1       2.540   4.705  20.930  0.00  0.00    +0.000 A 
ENDBRANCH  20  27
ENDBRANCH   4  20
TORSDOF 8
ENDMDL
MODEL 9
REMARK VINA RESULT:      -8.3      3.271      6.355
REMARK  Name = 
REMARK  8 active torsions:
REMARK  status: ('A' for Active; 'I' for Inactive)
REMARK    1  A    between atoms: O_1  and  C_2
REMARK    2  A    between atoms: C_5  and  C_6
REMARK    3  A    between atoms: C_6  and  N_7
REMARK    4  A    between atoms: N_7  and  C_8
REMARK    5  A    between atoms: C_11  and  C_12
REMARK    6  A    between atoms: C_12  and  C_13
REMARK    7  A    between atoms: C_12  and  C_19
REMARK    8  A    between atoms: C_26  and  O_27
REMARK                            x       y       z     vdW  Elec       q    Type
REMARK                         _______ _______ _______ _____ _____    ______ ____
ROOT
ATOM      1  C   UNL     1       0.698   9.915  20.522  0.00  0.00    +0.000 C 
ATOM      2  C   UNL     1       1.777   9.847  19.422  0.00  0.00    +0.000 C 
ATOM      3  O   UNL     1       1.806   8.556  18.810  0.00  0.00    +0.000 OA
ATOM      4  C   UNL     1       2.174   7.490  19.709  0.00  0.00    +0.000 C 
ATOM      5  C   UNL     1       1.174   7.450  20.881  0.00  0.00    +0.000 C 
ATOM      6  C   UNL     1       1.026   8.816  21.555  0.00  0.00    +0.000 C 
ENDROOT
BRANCH   1   7
ATOM      7  N   UNL     1      -0.633   9.732  19.902  0.00  0.00    +0.000 NA
ATOM      8  H   UNL     1      -0.557   9.142  19.073  0.00  0.00    +0.000 HD
BRANCH   7   9
ATOM      9  C   UNL     1      -1.292  10.983  19.543  0.00  0.00    +0.000 C 
BRANCH   9  13
ATOM     10  C   UNL     1      -3.568  10.483  15.925  0.00  0.00    +0.000 A 
ATOM     11  C   UNL     1      -2.372   9.789  16.079  0.00  0.00    +0.000 A 
ATOM     12  C   UNL     1      -1.625   9.970  17.245  0.00  0.00    +0.000 A 
ATOM     13  C   UNL     1      -2.066  10.845  18.253  0.00  0.00    +0.000 A 
ATOM     14  C   UNL     1      -3.272  11.534  18.074  0.00  0.00    +0.000 A 
ATOM     15  C   UNL     1      -4.021  11.353  16.910  0.00  0.00    +0.000 A 
BRANCH  10  16
ATOM     16  O   UNL     1      -4.338  10.330  14.809  0.00  0.00    +0.000 OA
ATOM     17  H   UNL     1      -3.952  10.865  14.098  0.00  0.00    +0.000 HD
ENDBRANCH  10  16
ENDBRANCH   9  13
ENDBRANCH   7   9
ENDBRANCH   1   7
BRANCH   6  18
ATOM     18  O   UNL     1       2.197   9.151  22.311  0.00  0.00    +0.000 OA
ATOM     19  H   UNL     1       2.344   8.485  23.000  0.00  0.00    +0.000 HD
ENDBRANCH   6  18
BRANCH   4  20
ATOM     20  C   UNL     1       2.214   6.151  18.894  0.00  0.00    +0.000 C 
BRANCH  20  21
ATOM     21  C   UNL     1       3.537   6.066  18.113  0.00  0.00    +0.000 A 
ATOM     22  C   UNL     1       4.032   7.141  17.358  0.00  0.00    +0.000 A 
ATOM     23  C   UNL     1       5.199   7.012  16.602  0.00  0.00    +0.000 A 
ATOM     24  C   UNL     1       5.885   5.801  16.579  0.00  0.00    +0.000 A 
ATOM     25  C   UNL     1       5.411   4.722  17.321  0.00  0.00    +0.000 A 
ATOM     26  C   UNL     1       4.250   4.853  18.083  0.00  0.00    +0.000 A 
ENDBRANCH  20  21
BRANCH  20  27
ATOM     27  C   UNL     1       1.938   4.874  19.695  0.00  0.00    +0.000 A 
ATOM     28  C   UNL     1       2.500   4.726  20.974  0.00  0.00    +0.000 A 
ATOM     29  C   UNL     1       2.225   3.598  21.751  0.00  0.00    +0.000 A 
ATOM     30  C   UNL     1       1.386   2.600  21.263  0.00  0.00    +0.000 A 
ATOM     31  C   UNL     1       0.817   2.729  20.000  0.00  0.00    +0.000 A 
ATOM     32  C   UNL     1       1.082   3.861  19.228  0.00  0.00    +0.000 A 
ENDBRANCH  20  27
ENDBRANCH   4  20
TORSDOF 8
ENDMDL
