MODEL 1
REMARK VINA RESULT:      -8.2      0.000      0.000
REMARK  Name = 
REMARK  6 active torsions:
REMARK  status: ('A' for Active; 'I' for Inactive)
REMARK    1  A    between atoms: C_1  and  N_2
REMARK    2  A    between atoms: C_5  and  C_6
REMARK    3  A    between atoms: C_6  and  C_7
REMARK    4  A    between atoms: C_9  and  C_10
REMARK    5  A    between atoms: N_16  and  C_17
REMARK    6  A    between atoms: C_17  and  C_18
REMARK                            x       y       z     vdW  Elec       q    Type
REMARK                         _______ _______ _______ _____ _____    ______ ____
ROOT
ATOM      1  C   UNL     1       2.348   8.299  18.012  0.00  0.00    +0.000 A 
ATOM      2  N   UNL     1       3.358   8.062  17.112  0.00  0.00    +0.000 NA
ATOM      3  C   UNL     1       3.940   6.960  17.564  0.00  0.00    +0.000 A 
ATOM      4  N   UNL     1       3.320   6.601  18.738  0.00  0.00    +0.000 N 
ATOM      5  N   UNL     1       2.324   7.460  19.050  0.00  0.00    +0.000 NA
ENDROOT
BRANCH   3   6
ATOM      6  C   UNL     1       5.033   6.225  16.933  0.00  0.00    +0.000 A 
ATOM      7  C   UNL     1       6.340   6.690  16.924  0.00  0.00    +0.000 A 
ATOM      8  N   UNL     1       7.355   6.022  16.307  0.00  0.00    +0.000 NA
ATOM      9  C   UNL     1       6.998   4.882  15.672  0.00  0.00    +0.000 A 
ATOM     10  C   UNL     1       5.697   4.416  15.674  0.00  0.00    +0.000 A 
ATOM     11  N   UNL     1       4.698   5.064  16.315  0.00  0.00    +0.000 NA
ENDBRANCH   3   6
BRANCH   1  12
ATOM     12  C   UNL     1       1.346   9.396  17.872  0.00  0.00    +0.000 C 
BRANCH  12  17
ATOM     13  C   UNL     1      -0.400  13.130  21.923  0.00  0.00    +0.000 C 
ATOM     14  N   UNL     1      -0.188  12.369  20.689  0.00  0.00    +0.000 NA
ATOM     15  C   UNL     1       1.206  12.509  20.242  0.00  0.00    +0.000 C 
ATOM     16  C   UNL     1       1.475  11.719  18.957  0.00  0.00    +0.000 C 
ATOM     17  C   UNL     1       1.137  10.232  19.147  0.00  0.00    +0.000 C 
ATOM     18  C   UNL     1      -0.322  10.130  19.625  0.00  0.00    +0.000 C 
ATOM     19  C   UNL     1      -0.550  10.961  20.891  0.00  0.00    +0.000 C 
ENDBRANCH  12  17
ENDBRANCH   1  12
BRANCH   4  20
ATOM     20  C   UNL     1       3.652   5.531  19.670  0.00  0.00    +0.000 C 
BRANCH  20  21
ATOM     21  C   UNL     1       2.650   4.400  19.694  0.00  0.00    +0.000 A 
ATOM     22  C   UNL     1       2.186   3.926  20.932  0.00  0.00    +0.000 A 
ATOM     23  C   UNL     1       1.245   2.896  20.996  0.00  0.00    +0.000 A 
ATOM     24  C   UNL     1       0.751   2.331  19.822  0.00  0.00    +0.000 A 
ATOM     25  C   UNL     1       1.186   2.802  18.587  0.00  0.00    +0.000 A 
ATOM     26  C   UNL     1       2.121   3.837  18.523  0.00  0.00    +0.000 A 
ENDBRANCH  20  21
ENDBRANCH   4  20
TORSDOF 5
ENDMDL
MODEL 2
REMARK VINA RESULT:      -8.1      1.606      2.043
REMARK  Name = 
REMARK  6 active torsions:
REMARK  status: ('A' for Active; 'I' for Inactive)
REMARK    1  A    between atoms: C_1  and  N_2
REMARK    2  A    between atoms: C_5  and  C_6
REMARK    3  A    between atoms: C_6  and  C_7
REMARK    4  A    between atoms: C_9  and  C_10
REMARK    5  A    between atoms: N_16  and  C_17
REMARK    6  A    between atoms: C_17  and  C_18
REMARK                            x       y       z     vdW  Elec       q    Type
REMARK                         _______ _______ _______ _____ _____    ______ ____
ROOT
ATOM      1  C   UNL     1       2.388   7.678  17.903  0.00  0.00    +0.000 A 
ATOM      2  N   UNL     1       3.757   7.578  17.932  0.00  0.00    +0.000 NA
ATOM      3  C   UNL     1       3.988   6.277  17.819  0.00  0.00    +0.000 A 
ATOM      4  N   UNL     1       2.775   5.630  17.789  0.00  0.00    +0.000 N 
ATOM      5  N   UNL     1       1.748   6.506  17.870  0.00  0.00    +0.000 NA
ENDROOT
BRANCH   3   6
ATOM      6  C   UNL     1       5.290   5.624  17.719  0.00  0.00    +0.000 A 
ATOM      7  C   UNL     1       6.073   5.342  18.829  0.00  0.00    +0.000 A 
ATOM      8  N   UNL     1       7.303   4.764  18.734  0.00  0.00    +0.000 NA
ATOM      9  C   UNL     1       7.728   4.507  17.476  0.00  0.00    +0.000 A 
ATOM     10  C   UNL     1       6.955   4.789  16.367  0.00  0.00    +0.000 A 
ATOM     11  N   UNL     1       5.721   5.333  16.465  0.00  0.00    +0.000 NA
ENDBRANCH   3   6
BRANCH   1  12
ATOM     12  C   UNL     1       1.646   8.972  17.909  0.00  0.00    +0.000 C 
BRANCH  12  17
ATOM     13  C   UNL     1      -0.566   9.940  23.160  0.00  0.00    +0.000 C 
ATOM     14  N   UNL     1      -0.271   9.452  21.811  0.00  0.00    +0.000 NA
ATOM     15  C   UNL     1      -0.436  10.538  20.832  0.00  0.00    +0.000 C 
ATOM     16  C   UNL     1      -0.127  10.071  19.406  0.00  0.00    +0.000 C 
ATOM     17  C   UNL     1       1.295   9.498  19.313  0.00  0.00    +0.000 C 
ATOM     18  C   UNL     1       1.429   8.377  20.357  0.00  0.00    +0.000 C 
ATOM     19  C   UNL     1       1.079   8.880  21.760  0.00  0.00    +0.000 C 
ENDBRANCH  12  17
ENDBRANCH   1  12
BRANCH   4  20
ATOM     20  C   UNL     1       2.488   4.201  17.778  0.00  0.00    +0.000 C 
BRANCH  20  21
ATOM     21  C   UNL     1       2.336   3.591  19.152  0.00  0.00    +0.000 A 
ATOM     22  C   UNL     1       3.455   3.006  19.767  0.00  0.00    +0.000 A 
ATOM     23  C   UNL     1       3.359   2.448  21.044  0.00  0.00    +0.000 A 
ATOM     24  C   UNL     1       2.144   2.475  21.725  0.00  0.00    +0.000 A 
ATOM     25  C   UNL     1       1.030   3.068  21.137  0.00  0.00    +0.000 A 
ATOM     26  C   UNL     1       1.128   3.632  19.864  0.00  0.00    +0.000 A 
ENDBRANCH  20  21
ENDBRANCH   4  20
TORSDOF 5
ENDMDL
MODEL 3
REMARK VINA RESULT:      -8.0      1.481      1.956
REMARK  Name = 
REMARK  6 active torsions:
REMARK  status: ('A' for Active; 'I' for Inactive)
REMARK    1  A    between atoms: C_1  and  N_2
REMARK    2  A    between atoms: C_5  and  C_6
REMARK    3  A    between atoms: C_6  and  C_7
REMARK    4  A    between atoms: C_9  and  C_10
REMARK    5  A    between atoms: N_16  and  C_17
REMARK    6  A    between atoms: C_17  and  C_18
REMARK                            x       y       z     vdW  Elec       q    Type
REMARK                         _______ _______ _______ _____ _____    ______ ____
ROOT
ATOM      1  C   UNL     1       2.500   7.898  17.995  0.00  0.00    +0.000 A 
ATOM      2  N   UNL     1       3.863   7.729  17.993  0.00  0.00    +0.000 NA
ATOM      3  C   UNL     1       4.026   6.423  17.832  0.00  0.00    +0.000 A 
ATOM      4  N   UNL     1       2.781   5.839  17.805  0.00  0.00    +0.000 N 
ATOM      5  N   UNL     1       1.802   6.762  17.935  0.00  0.00    +0.000 NA
ENDROOT
BRANCH   3   6
ATOM      6  C   UNL     1       5.291   5.709  17.685  0.00  0.00    +0.000 A 
ATOM      7  C   UNL     1       6.102   5.394  18.765  0.00  0.00    +0.000 A 
ATOM      8  N   UNL     1       7.299   4.758  18.626  0.00  0.00    +0.000 NA
ATOM      9  C   UNL     1       7.663   4.478  17.353  0.00  0.00    +0.000 A 
ATOM     10  C   UNL     1       6.861   4.793  16.273  0.00  0.00    +0.000 A 
ATOM     11  N   UNL     1       5.659   5.395  16.417  0.00  0.00    +0.000 NA
ENDBRANCH   3   6
BRANCH   1  12
ATOM     12  C   UNL     1       1.825   9.227  18.058  0.00  0.00    +0.000 C 
BRANCH  12  17
ATOM     13  C   UNL     1      -0.709  10.558  23.079  0.00  0.00    +0.000 C 
ATOM     14  N   UNL     1       0.222  10.369  21.964  0.00  0.00    +0.000 NA
ATOM     15  C   UNL     1       0.405   8.935  21.695  0.00  0.00    +0.000 C 
ATOM     16  C   UNL     1       1.366   8.692  20.527  0.00  0.00    +0.000 C 
ATOM     17  C   UNL     1       0.874   9.400  19.256  0.00  0.00    +0.000 C 
ATOM     18  C   UNL     1       0.684  10.892  19.582  0.00  0.00    +0.000 C 
ATOM     19  C   UNL     1      -0.257  11.084  20.775  0.00  0.00    +0.000 C 
ENDBRANCH  12  17
ENDBRANCH   1  12
BRANCH   4  20
ATOM     20  C   UNL     1       2.422   4.427  17.751  0.00  0.00    +0.000 C 
BRANCH  20  21
ATOM     21  C   UNL     1       2.319   3.764  19.106  0.00  0.00    +0.000 A 
ATOM     22  C   UNL     1       3.445   3.112  19.634  0.00  0.00    +0.000 A 
ATOM     23  C   UNL     1       3.394   2.504  20.891  0.00  0.00    +0.000 A 
ATOM     24  C   UNL     1       2.220   2.548  21.638  0.00  0.00    +0.000 A 
ATOM     25  C   UNL     1       1.101   3.207  21.137  0.00  0.00    +0.000 A 
ATOM     26  C   UNL     1       1.153   3.821  19.885  0.00  0.00    +0.000 A 
ENDBRANCH  20  21
ENDBRANCH   4  20
TORSDOF 5
ENDMDL
MODEL 4
REMARK VINA RESULT:      -7.8      1.611      2.069
REMARK  Name = 
REMARK  6 active torsions:
REMARK  status: ('A' for Active; 'I' for Inactive)
REMARK    1  A    between atoms: C_1  and  N_2
REMARK    2  A    between atoms: C_5  and  C_6
REMARK    3  A    between atoms: C_6  and  C_7
REMARK    4  A    between atoms: C_9  and  C_10
REMARK    5  A    between atoms: N_16  and  C_17
REMARK    6  A    between atoms: C_17  and  C_18
REMARK                            x       y       z     vdW  Elec       q    Type
REMARK                         _______ _______ _______ _____ _____    ______ ____
ROOT
ATOM      1  C   UNL     1       2.378   7.774  17.856  0.00  0.00    +0.000 A 
ATOM      2  N   UNL     1       3.750   7.722  17.842  0.00  0.00    +0.000 NA
ATOM      3  C   UNL     1       4.023   6.430  17.714  0.00  0.00    +0.000 A 
ATOM      4  N   UNL     1       2.832   5.741  17.718  0.00  0.00    +0.000 N 
ATOM      5  N   UNL     1       1.779   6.581  17.836  0.00  0.00    +0.000 NA
ENDROOT
BRANCH   3   6
ATOM      6  C   UNL     1       5.343   5.824  17.569  0.00  0.00    +0.000 A 
ATOM      7  C   UNL     1       5.890   5.507  16.334  0.00  0.00    +0.000 A 
ATOM      8  N   UNL     1       7.107   4.911  16.199  0.00  0.00    +0.000 NA
ATOM      9  C   UNL     1       7.741   4.617  17.357  0.00  0.00    +0.000 A 
ATOM     10  C   UNL     1       7.200   4.926  18.590  0.00  0.00    +0.000 A 
ATOM     11  N   UNL     1       6.006   5.548  18.720  0.00  0.00    +0.000 NA
ENDBRANCH   3   6
BRANCH   1  12
ATOM     12  C   UNL     1       1.592   9.041  17.893  0.00  0.00    +0.000 C 
BRANCH  12  17
ATOM     13  C   UNL     1      -0.518   9.921  23.201  0.00  0.00    +0.000 C 
ATOM     14  N   UNL     1      -0.246   9.451  21.840  0.00  0.00    +0.000 NA
ATOM     15  C   UNL     1      -0.445  10.546  20.878  0.00  0.00    +0.000 C 
ATOM     16  C   UNL     1      -0.162  10.100  19.440  0.00  0.00    +0.000 C 
ATOM     17  C   UNL     1       1.265   9.546  19.310  0.00  0.00    +0.000 C 
ATOM     18  C   UNL     1       1.436   8.415  20.338  0.00  0.00    +0.000 C 
ATOM     19  C   UNL     1       1.110   8.898  21.754  0.00  0.00    +0.000 C 
ENDBRANCH  12  17
ENDBRANCH   1  12
BRANCH   4  20
ATOM     20  C   UNL     1       2.596   4.303  17.707  0.00  0.00    +0.000 C 
BRANCH  20  21
ATOM     21  C   UNL     1       2.443   3.692  19.081  0.00  0.00    +0.000 A 
ATOM     22  C   UNL     1       1.168   3.639  19.667  0.00  0.00    +0.000 A 
ATOM     23  C   UNL     1       0.984   3.064  20.927  0.00  0.00    +0.000 A 
ATOM     24  C   UNL     1       2.071   2.529  21.613  0.00  0.00    +0.000 A 
ATOM     25  C   UNL     1       3.339   2.556  21.038  0.00  0.00    +0.000 A 
ATOM     26  C   UNL     1       3.522   3.123  19.776  0.00  0.00    +0.000 A 
ENDBRANCH  20  21
ENDBRANCH   4  20
TORSDOF 5
ENDMDL
MODEL 5
REMARK VINA RESULT:      -7.8      0.545      1.335
REMARK  Name = 
REMARK  6 active torsions:
REMARK  status: ('A' for Active; 'I' for Inactive)
REMARK    1  A    between atoms: C_1  and  N_2
REMARK    2  A    between atoms: C_5  and  C_6
REMARK    3  A    between atoms: C_6  and  C_7
REMARK    4  A    between atoms: C_9  and  C_10
REMARK    5  A    between atoms: N_16  and  C_17
REMARK    6  A    between atoms: C_17  and  C_18
REMARK                            x       y       z     vdW  Elec       q    Type
REMARK                         _______ _______ _______ _____ _____    ______ ____
ROOT
ATOM      1  C   UNL     1       2.328   8.287  18.028  0.00  0.00    +0.000 A 
ATOM      2  N   UNL     1       3.325   8.020  17.123  0.00  0.00    +0.000 NA
ATOM      3  C   UNL     1       3.902   6.922  17.592  0.00  0.00    +0.000 A 
ATOM      4  N   UNL     1       3.291   6.595  18.781  0.00  0.00    +0.000 N 
ATOM      5  N   UNL     1       2.306   7.470  19.084  0.00  0.00    +0.000 NA
ENDROOT
BRANCH   3   6
ATOM      6  C   UNL     1       4.980   6.163  16.966  0.00  0.00    +0.000 A 
ATOM      7  C   UNL     1       4.760   4.980  16.276  0.00  0.00    +0.000 A 
ATOM      8  N   UNL     1       5.769   4.253  15.719  0.00  0.00    +0.000 NA
ATOM      9  C   UNL     1       7.013   4.747  15.911  0.00  0.00    +0.000 A 
ATOM     10  C   UNL     1       7.240   5.922  16.601  0.00  0.00    +0.000 A 
ATOM     11  N   UNL     1       6.233   6.659  17.124  0.00  0.00    +0.000 NA
ENDBRANCH   3   6
BRANCH   1  12
ATOM     12  C   UNL     1       1.335   9.390  17.874  0.00  0.00    +0.000 C 
BRANCH  12  17
ATOM     13  C   UNL     1      -0.362  13.200  21.876  0.00  0.00    +0.000 C 
ATOM     14  N   UNL     1      -0.166  12.414  20.654  0.00  0.00    +0.000 NA
ATOM     15  C   UNL     1       1.219  12.551  20.181  0.00  0.00    +0.000 C 
ATOM     16  C   UNL     1       1.470  11.736  18.908  0.00  0.00    +0.000 C 
ATOM     17  C   UNL     1       1.143  10.252  19.135  0.00  0.00    +0.000 C 
ATOM     18  C   UNL     1      -0.307  10.153  19.640  0.00  0.00    +0.000 C 
ATOM     19  C   UNL     1      -0.518  11.009  20.892  0.00  0.00    +0.000 C 
ENDBRANCH  12  17
ENDBRANCH   1  12
BRANCH   4  20
ATOM     20  C   UNL     1       3.622   5.542  19.732  0.00  0.00    +0.000 C 
BRANCH  20  21
ATOM     21  C   UNL     1       2.602   4.429  19.802  0.00  0.00    +0.000 A 
ATOM     22  C   UNL     1       2.152   3.839  18.609  0.00  0.00    +0.000 A 
ATOM     23  C   UNL     1       1.224   2.796  18.634  0.00  0.00    +0.000 A 
ATOM     24  C   UNL     1       0.740   2.323  19.851  0.00  0.00    +0.000 A 
ATOM     25  C   UNL     1       1.190   2.884  21.043  0.00  0.00    +0.000 A 
ATOM     26  C   UNL     1       2.123   3.923  21.020  0.00  0.00    +0.000 A 
ENDBRANCH  20  21
ENDBRANCH   4  20
TORSDOF 5
ENDMDL
MODEL 6
REMARK VINA RESULT:      -7.6      0.958      1.024
REMARK  Name = 
REMARK  6 active torsions:
REMARK  status: ('A' for Active; 'I' for Inactive)
REMARK    1  A    between atoms: C_1  and  N_2
REMARK    2  A    between atoms: C_5  and  C_6
REMARK    3  A    between atoms: C_6  and  C_7
REMARK    4  A    between atoms: C_9  and  C_10
REMARK    5  A    between atoms: N_16  and  C_17
REMARK    6  A    between atoms: C_17  and  C_18
REMARK                            x       y       z     vdW  Elec       q    Type
REMARK                         _______ _______ _______ _____ _____    ______ ____
ROOT
ATOM      1  C   UNL     1       2.281   8.449  18.093  0.00  0.00    +0.000 A 
ATOM      2  N   UNL     1       3.334   8.271  17.230  0.00  0.00    +0.000 NA
ATOM      3  C   UNL     1       3.893   7.136  17.631  0.00  0.00    +0.000 A 
ATOM      4  N   UNL     1       3.214   6.699  18.745  0.00  0.00    +0.000 N 
ATOM      5  N   UNL     1       2.205   7.539  19.067  0.00  0.00    +0.000 NA
ENDROOT
BRANCH   3   6
ATOM      6  C   UNL     1       5.014   6.443  17.005  0.00  0.00    +0.000 A 
ATOM      7  C   UNL     1       6.329   6.857  17.158  0.00  0.00    +0.000 A 
ATOM      8  N   UNL     1       7.375   6.231  16.547  0.00  0.00    +0.000 NA
ATOM      9  C   UNL     1       7.042   5.189  15.752  0.00  0.00    +0.000 A 
ATOM     10  C   UNL     1       5.733   4.774  15.593  0.00  0.00    +0.000 A 
ATOM     11  N   UNL     1       4.702   5.377  16.226  0.00  0.00    +0.000 NA
ENDBRANCH   3   6
BRANCH   1  12
ATOM     12  C   UNL     1       1.289   9.557  17.981  0.00  0.00    +0.000 C 
BRANCH  12  17
ATOM     13  C   UNL     1      -1.311  11.643  22.702  0.00  0.00    +0.000 C 
ATOM     14  N   UNL     1      -0.473  11.428  21.519  0.00  0.00    +0.000 NA
ATOM     15  C   UNL     1       0.409  10.270  21.728  0.00  0.00    +0.000 C 
ATOM     16  C   UNL     1       1.297  10.003  20.509  0.00  0.00    +0.000 C 
ATOM     17  C   UNL     1       0.447   9.787  19.248  0.00  0.00    +0.000 C 
ATOM     18  C   UNL     1      -0.468  11.011  19.072  0.00  0.00    +0.000 C 
ATOM     19  C   UNL     1      -1.311  11.259  20.327  0.00  0.00    +0.000 C 
ENDBRANCH  12  17
ENDBRANCH   1  12
BRANCH   4  20
ATOM     20  C   UNL     1       3.499   5.565  19.615  0.00  0.00    +0.000 C 
BRANCH  20  21
ATOM     21  C   UNL     1       2.610   4.366  19.376  0.00  0.00    +0.000 A 
ATOM     22  C   UNL     1       1.483   4.178  20.194  0.00  0.00    +0.000 A 
ATOM     23  C   UNL     1       0.627   3.093  19.992  0.00  0.00    +0.000 A 
ATOM     24  C   UNL     1       0.882   2.186  18.967  0.00  0.00    +0.000 A 
ATOM     25  C   UNL     1       1.984   2.368  18.135  0.00  0.00    +0.000 A 
ATOM     26  C   UNL     1       2.836   3.457  18.332  0.00  0.00    +0.000 A 
ENDBRANCH  20  21
ENDBRANCH   4  20
TORSDOF 5
ENDMDL
MODEL 7
REMARK VINA RESULT:      -7.6      1.591      4.486
REMARK  Name = 
REMARK  6 active torsions:
REMARK  status: ('A' for Active; 'I' for Inactive)
REMARK    1  A    between atoms: C_1  and  N_2
REMARK    2  A    between atoms: C_5  and  C_6
REMARK    3  A    between atoms: C_6  and  C_7
REMARK    4  A    between atoms: C_9  and  C_10
REMARK    5  A    between atoms: N_16  and  C_17
REMARK    6  A    between atoms: C_17  and  C_18
REMARK                            x       y       z     vdW  Elec       q    Type
REMARK                         _______ _______ _______ _____ _____    ______ ____
ROOT
ATOM      1  C   UNL     1       2.584   7.772  18.117  0.00  0.00    +0.000 A 
ATOM      2  N   UNL     1       1.761   6.874  18.751  0.00  0.00    +0.000 NA
ATOM      3  C   UNL     1       2.565   5.870  19.073  0.00  0.00    +0.000 A 
ATOM      4  N   UNL     1       3.817   6.153  18.578  0.00  0.00    +0.000 N 
ATOM      5  N   UNL     1       3.837   7.346  17.943  0.00  0.00    +0.000 NA
ENDROOT
BRANCH   3   6
ATOM      6  C   UNL     1       2.214   4.676  19.836  0.00  0.00    +0.000 A 
ATOM      7  C   UNL     1       2.417   4.577  21.205  0.00  0.00    +0.000 A 
ATOM      8  N   UNL     1       2.120   3.451  21.914  0.00  0.00    +0.000 NA
ATOM      9  C   UNL     1       1.639   2.418  21.186  0.00  0.00    +0.000 A 
ATOM     10  C   UNL     1       1.438   2.510  19.822  0.00  0.00    +0.000 A 
ATOM     11  N   UNL     1       1.702   3.639  19.127  0.00  0.00    +0.000 NA
ENDBRANCH   3   6
BRANCH   1  12
ATOM     12  C   UNL     1       2.145   9.118  17.647  0.00  0.00    +0.000 C 
BRANCH  12  17
ATOM     13  C   UNL     1      -1.988  12.442  19.944  0.00  0.00    +0.000 C 
ATOM     14  N   UNL     1      -0.964  11.835  19.090  0.00  0.00    +0.000 NA
ATOM     15  C   UNL     1       0.345  11.880  19.758  0.00  0.00    +0.000 C 
ATOM     16  C   UNL     1       1.445  11.246  18.901  0.00  0.00    +0.000 C 
ATOM     17  C   UNL     1       1.093   9.793  18.545  0.00  0.00    +0.000 C 
ATOM     18  C   UNL     1      -0.284   9.788  17.861  0.00  0.00    +0.000 C 
ATOM     19  C   UNL     1      -1.343  10.461  18.739  0.00  0.00    +0.000 C 
ENDBRANCH  12  17
ENDBRANCH   1  12
BRANCH   4  20
ATOM     20  C   UNL     1       5.018   5.328  18.577  0.00  0.00    +0.000 C 
BRANCH  20  21
ATOM     21  C   UNL     1       5.546   5.008  17.197  0.00  0.00    +0.000 A 
ATOM     22  C   UNL     1       6.868   5.357  16.874  0.00  0.00    +0.000 A 
ATOM     23  C   UNL     1       7.397   5.061  15.616  0.00  0.00    +0.000 A 
ATOM     24  C   UNL     1       6.615   4.405  14.668  0.00  0.00    +0.000 A 
ATOM     25  C   UNL     1       5.310   4.035  14.979  0.00  0.00    +0.000 A 
ATOM     26  C   UNL     1       4.782   4.324  16.238  0.00  0.00    +0.000 A 
ENDBRANCH  20  21
ENDBRANCH   4  20
TORSDOF 5
ENDMDL
MODEL 8
REMARK VINA RESULT:      -7.5      2.362      8.098
REMARK  Name = 
REMARK  6 active torsions:
REMARK  status: ('A' for Active; 'I' for Inactive)
REMARK    1  A    between atoms: C_1  and  N_2
REMARK    2  A    between atoms: C_5  and  C_6
REMARK    3  A    between atoms: C_6  and  C_7
REMARK    4  A    between atoms: C_9  and  C_10
REMARK    5  A    between atoms: N_16  and  C_17
REMARK    6  A    between atoms: C_17  and  C_18
REMARK                            x       y       z     vdW  Elec       q    Type
REMARK                         _______ _______ _______ _____ _____    ______ ____
ROOT
ATOM      1  C   UNL     1       2.277   8.381  18.220  0.00  0.00    +0.000 A 
ATOM      2  N   UNL     1       1.974   8.332  19.558  0.00  0.00    +0.000 NA
ATOM      3  C   UNL     1       1.129   9.339  19.736  0.00  0.00    +0.000 A 
ATOM      4  N   UNL     1       0.995   9.998  18.536  0.00  0.00    +0.000 N 
ATOM      5  N   UNL     1       1.741   9.417  17.570  0.00  0.00    +0.000 NA
ENDROOT
BRANCH   3   6
ATOM      6  C   UNL     1       0.434   9.692  20.970  0.00  0.00    +0.000 A 
ATOM      7  C   UNL     1       0.373  10.993  21.449  0.00  0.00    +0.000 A 
ATOM      8  N   UNL     1      -0.246  11.319  22.618  0.00  0.00    +0.000 NA
ATOM      9  C   UNL     1      -0.778  10.280  23.302  0.00  0.00    +0.000 A 
ATOM     10  C   UNL     1      -0.718   8.982  22.832  0.00  0.00    +0.000 A 
ATOM     11  N   UNL     1      -0.131   8.666  21.656  0.00  0.00    +0.000 NA
ENDBRANCH   3   6
BRANCH   1  12
ATOM     12  C   UNL     1       3.132   7.379  17.521  0.00  0.00    +0.000 C 
BRANCH  12  17
ATOM     13  C   UNL     1       3.566   1.770  18.850  0.00  0.00    +0.000 C 
ATOM     14  N   UNL     1       3.476   3.068  18.175  0.00  0.00    +0.000 NA
ATOM     15  C   UNL     1       2.180   3.700  18.464  0.00  0.00    +0.000 C 
ATOM     16  C   UNL     1       2.048   5.066  17.784  0.00  0.00    +0.000 C 
ATOM     17  C   UNL     1       3.189   6.003  18.209  0.00  0.00    +0.000 C 
ATOM     18  C   UNL     1       4.523   5.302  17.901  0.00  0.00    +0.000 C 
ATOM     19  C   UNL     1       4.596   3.927  18.574  0.00  0.00    +0.000 C 
ENDBRANCH  12  17
ENDBRANCH   1  12
BRANCH   4  20
ATOM     20  C   UNL     1       0.266  11.222  18.230  0.00  0.00    +0.000 C 
BRANCH  20  21
ATOM     21  C   UNL     1      -1.224  11.029  18.061  0.00  0.00    +0.000 A 
ATOM     22  C   UNL     1      -1.688   9.973  17.259  0.00  0.00    +0.000 A 
ATOM     23  C   UNL     1      -3.057   9.751  17.094  0.00  0.00    +0.000 A 
ATOM     24  C   UNL     1      -3.978  10.575  17.735  0.00  0.00    +0.000 A 
ATOM     25  C   UNL     1      -3.535  11.614  18.549  0.00  0.00    +0.000 A 
ATOM     26  C   UNL     1      -2.167  11.832  18.720  0.00  0.00    +0.000 A 
ENDBRANCH  20  21
ENDBRANCH   4  20
TORSDOF 5
ENDMDL
MODEL 9
REMARK VINA RESULT:      -7.5      1.566      4.530
REMARK  Name = 
REMARK  6 active torsions:
REMARK  status: ('A' for Active; 'I' for Inactive)
REMARK    1  A    between atoms: C_1  and  N_2
REMARK    2  A    between atoms: C_5  and  C_6
REMARK    3  A    between atoms: C_6  and  C_7
REMARK    4  A    between atoms: C_9  and  C_10
REMARK    5  A    between atoms: N_16  and  C_17
REMARK    6  A    between atoms: C_17  and  C_18
REMARK                            x       y       z     vdW  Elec       q    Type
REMARK                         _______ _______ _______ _____ _____    ______ ____
ROOT
ATOM      1  C   UNL     1       2.641   7.790  18.039  0.00  0.00    +0.000 A 
ATOM      2  N   UNL     1       1.825   6.843  18.609  0.00  0.00    +0.000 NA
ATOM      3  C   UNL     1       2.651   5.856  18.929  0.00  0.00    +0.000 A 
ATOM      4  N   UNL     1       3.910   6.197  18.495  0.00  0.00    +0.000 N 
ATOM      5  N   UNL     1       3.914   7.412  17.902  0.00  0.00    +0.000 NA
ENDROOT
BRANCH   3   6
ATOM      6  C   UNL     1       2.311   4.625  19.637  0.00  0.00    +0.000 A 
ATOM      7  C   UNL     1       1.838   3.494  18.986  0.00  0.00    +0.000 A 
ATOM      8  N   UNL     1       1.489   2.356  19.649  0.00  0.00    +0.000 NA
ATOM      9  C   UNL     1       1.606   2.409  20.995  0.00  0.00    +0.000 A 
ATOM     10  C   UNL     1       2.073   3.533  21.649  0.00  0.00    +0.000 A 
ATOM     11  N   UNL     1       2.450   4.650  20.986  0.00  0.00    +0.000 NA
ENDBRANCH   3   6
BRANCH   1  12
ATOM     12  C   UNL     1       2.174   9.136  17.598  0.00  0.00    +0.000 C 
BRANCH  12  17
ATOM     13  C   UNL     1      -1.924  12.384  20.060  0.00  0.00    +0.000 C 
ATOM     14  N   UNL     1      -0.924  11.796  19.165  0.00  0.00    +0.000 NA
ATOM     15  C   UNL     1       0.409  11.866  19.780  0.00  0.00    +0.000 C 
ATOM     16  C   UNL     1       1.486  11.252  18.879  0.00  0.00    +0.000 C 
ATOM     17  C   UNL     1       1.147   9.793  18.538  0.00  0.00    +0.000 C 
ATOM     18  C   UNL     1      -0.256   9.761  17.910  0.00  0.00    +0.000 C 
ATOM     19  C   UNL     1      -1.292  10.415  18.830  0.00  0.00    +0.000 C 
ENDBRANCH  12  17
ENDBRANCH   1  12
BRANCH   4  20
ATOM     20  C   UNL     1       5.139   5.413  18.513  0.00  0.00    +0.000 C 
BRANCH  20  21
ATOM     21  C   UNL     1       5.638   5.015  17.143  0.00  0.00    +0.000 A 
ATOM     22  C   UNL     1       4.777   4.317  16.280  0.00  0.00    +0.000 A 
ATOM     23  C   UNL     1       5.195   3.949  14.999  0.00  0.00    +0.000 A 
ATOM     24  C   UNL     1       6.476   4.279  14.563  0.00  0.00    +0.000 A 
ATOM     25  C   UNL     1       7.335   4.987  15.400  0.00  0.00    +0.000 A 
ATOM     26  C   UNL     1       6.915   5.362  16.677  0.00  0.00    +0.000 A 
ENDBRANCH  20  21
ENDBRANCH   4  20
TORSDOF 5
ENDMDL
