MODEL 1
REMARK VINA RESULT:      -8.2      0.000      0.000
REMARK  Name = 
REMARK  7 active torsions:
REMARK  status: ('A' for Active; 'I' for Inactive)
REMARK    1  A    between atoms: C_6  and  N_7
REMARK    2  A    between atoms: N_7  and  C_8
REMARK    3  A    between atoms: C_8  and  C_9
REMARK    4  A    between atoms: C_9  and  N_10
REMARK    5  A    between atoms: N_10  and  C_11
REMARK    6  A    between atoms: C_11  and  C_12
REMARK    7  A    between atoms: C_12  and  C_13
REMARK                            x       y       z     vdW  Elec       q    Type
REMARK                         _______ _______ _______ _____ _____    ______ ____
ROOT
ATOM      1  C   UNL     1       2.278   4.467  21.034  0.00  0.00    +0.000 C 
ENDROOT
BRANCH   1   2
ATOM      2  N   UNL     1       2.394   3.256  20.208  0.00  0.00    +0.000 NA
ATOM      3  H   UNL     1       1.725   3.317  19.436  0.00  0.00    +0.000 HD
BRANCH   2   4
ATOM      4  C   UNL     1       3.720   3.083  19.631  0.00  0.00    +0.000 C 
BRANCH   4   5
ATOM      5  C   UNL     1       3.712   3.098  18.100  0.00  0.00    +0.000 C 
BRANCH   5   6
ATOM      6  C   UNL     1       4.681   4.122  17.479  0.00  0.00    +0.000 C 
ATOM      7  C   UNL     1       5.901   4.364  18.403  0.00  0.00    +0.000 C 
ATOM      8  C   UNL     1       6.875   5.360  17.764  0.00  0.00    +0.000 C 
ATOM      9  C   UNL     1       7.372   4.791  16.428  0.00  0.00    +0.000 C 
ATOM     10  C   UNL     1       6.184   4.560  15.480  0.00  0.00    +0.000 C 
ATOM     11  C   UNL     1       5.461   5.894  15.236  0.00  0.00    +0.000 C 
ATOM     12  C   UNL     1       4.953   6.469  16.566  0.00  0.00    +0.000 C 
ATOM     13  C   UNL     1       6.140   6.687  17.519  0.00  0.00    +0.000 C 
ATOM     14  C   UNL     1       3.976   5.474  17.207  0.00  0.00    +0.000 C 
ATOM     15  C   UNL     1       5.206   3.567  16.128  0.00  0.00    +0.000 C 
ENDBRANCH   5   6
ENDBRANCH   4   5
ENDBRANCH   2   4
ENDBRANCH   1   2
BRANCH   1  16
ATOM     16  C   UNL     1       1.808   5.602  20.126  0.00  0.00    +0.000 C 
BRANCH  16  17
ATOM     17  N   UNL     1       2.536   6.860  20.339  0.00  0.00    +0.000 N 
ATOM     18  H   UNL     1       2.761   6.994  21.322  0.00  0.00    +0.000 HD
BRANCH  17  24
ATOM     19 CL   UNL     1      -1.524  11.732  23.000  0.00  0.00    +0.000 Cl
ATOM     20  C   UNL     1      -0.521  10.644  22.122  0.00  0.00    +0.000 A 
ATOM     21  C   UNL     1       0.092   9.583  22.774  0.00  0.00    +0.000 A 
ATOM     22  C   UNL     1       0.895   8.700  22.045  0.00  0.00    +0.000 A 
ATOM     23  C   UNL     1       1.094   8.868  20.650  0.00  0.00    +0.000 A 
ATOM     24  C   UNL     1       1.864   8.005  19.817  0.00  0.00    +0.000 A 
ATOM     25  C   UNL     1       2.041   8.381  18.479  0.00  0.00    +0.000 A 
ATOM     26  C   UNL     1       1.382   9.482  17.982  0.00  0.00    +0.000 A 
ATOM     27  N   UNL     1       0.595  10.271  18.725  0.00  0.00    +0.000 NA
ATOM     28  C   UNL     1       0.467   9.978  20.023  0.00  0.00    +0.000 A 
ATOM     29  C   UNL     1      -0.326  10.835  20.761  0.00  0.00    +0.000 A 
ENDBRANCH  17  24
ENDBRANCH  16  17
ENDBRANCH   1  16
TORSDOF 7
ENDMDL
MODEL 2
REMARK VINA RESULT:      -8.2      0.421      1.524
REMARK  Name = 
REMARK  7 active torsions:
REMARK  status: ('A' for Active; 'I' for Inactive)
REMARK    1  A    between atoms: C_6  and  N_7
REMARK    2  A    between atoms: N_7  and  C_8
REMARK    3  A    between atoms: C_8  and  C_9
REMARK    4  A    between atoms: C_9  and  N_10
REMARK    5  A    between atoms: N_10  and  C_11
REMARK    6  A    between atoms: C_11  and  C_12
REMARK    7  A    between atoms: C_12  and  C_13
REMARK                            x       y       z     vdW  Elec       q    Type
REMARK                         _______ _______ _______ _____ _____    ______ ____
ROOT
ATOM      1  C   UNL     1       2.419   4.361  20.701  0.00  0.00    +0.000 C 
ENDROOT
BRANCH   1   2
ATOM      2  N   UNL     1       1.847   3.336  19.815  0.00  0.00    +0.000 NA
ATOM      3  H   UNL     1       0.833   3.313  19.947  0.00  0.00    +0.000 HD
BRANCH   2   4
ATOM      4  C   UNL     1       2.104   3.594  18.405  0.00  0.00    +0.000 C 
BRANCH   4   5
ATOM      5  C   UNL     1       3.414   2.973  17.913  0.00  0.00    +0.000 C 
BRANCH   5   6
ATOM      6  C   UNL     1       4.458   4.004  17.442  0.00  0.00    +0.000 C 
ATOM      7  C   UNL     1       5.089   3.577  16.092  0.00  0.00    +0.000 C 
ATOM      8  C   UNL     1       6.104   4.623  15.615  0.00  0.00    +0.000 C 
ATOM      9  C   UNL     1       5.388   5.968  15.424  0.00  0.00    +0.000 C 
ATOM     10  C   UNL     1       4.770   6.428  16.754  0.00  0.00    +0.000 C 
ATOM     11  C   UNL     1       5.879   6.577  17.807  0.00  0.00    +0.000 C 
ATOM     12  C   UNL     1       6.597   5.235  18.011  0.00  0.00    +0.000 C 
ATOM     13  C   UNL     1       7.204   4.769  16.677  0.00  0.00    +0.000 C 
ATOM     14  C   UNL     1       5.583   4.188  18.491  0.00  0.00    +0.000 C 
ATOM     15  C   UNL     1       3.759   5.374  17.233  0.00  0.00    +0.000 C 
ENDBRANCH   5   6
ENDBRANCH   4   5
ENDBRANCH   2   4
ENDBRANCH   1   2
BRANCH   1  16
ATOM     16  C   UNL     1       1.662   5.664  20.450  0.00  0.00    +0.000 C 
BRANCH  16  17
ATOM     17  N   UNL     1       2.543   6.827  20.282  0.00  0.00    +0.000 N 
ATOM     18  H   UNL     1       3.032   7.047  21.146  0.00  0.00    +0.000 HD
BRANCH  17  24
ATOM     19 CL   UNL     1      -1.492  11.685  23.008  0.00  0.00    +0.000 Cl
ATOM     20  C   UNL     1      -0.495  10.603  22.115  0.00  0.00    +0.000 A 
ATOM     21  C   UNL     1       0.114   9.531  22.753  0.00  0.00    +0.000 A 
ATOM     22  C   UNL     1       0.912   8.654  22.012  0.00  0.00    +0.000 A 
ATOM     23  C   UNL     1       1.110   8.838  20.619  0.00  0.00    +0.000 A 
ATOM     24  C   UNL     1       1.875   7.982  19.775  0.00  0.00    +0.000 A 
ATOM     25  C   UNL     1       2.053   8.373  18.441  0.00  0.00    +0.000 A 
ATOM     26  C   UNL     1       1.398   9.483  17.959  0.00  0.00    +0.000 A 
ATOM     27  N   UNL     1       0.615  10.267  18.712  0.00  0.00    +0.000 NA
ATOM     28  C   UNL     1       0.488   9.959  20.007  0.00  0.00    +0.000 A 
ATOM     29  C   UNL     1      -0.301  10.809  20.756  0.00  0.00    +0.000 A 
ENDBRANCH  17  24
ENDBRANCH  16  17
ENDBRANCH   1  16
TORSDOF 7
ENDMDL
MODEL 3
REMARK VINA RESULT:      -8.1      0.722      1.293
REMARK  Name = 
REMARK  7 active torsions:
REMARK  status: ('A' for Active; 'I' for Inactive)
REMARK    1  A    between atoms: C_6  and  N_7
REMARK    2  A    between atoms: N_7  and  C_8
REMARK    3  A    between atoms: C_8  and  C_9
REMARK    4  A    between atoms: C_9  and  N_10
REMARK    5  A    between atoms: N_10  and  C_11
REMARK    6  A    between atoms: C_11  and  C_12
REMARK    7  A    between atoms: C_12  and  C_13
REMARK                            x       y       z     vdW  Elec       q    Type
REMARK                         _______ _______ _______ _____ _____    ______ ____
ROOT
ATOM      1  C   UNL     1       1.841   4.506  19.191  0.00  0.00    +0.000 C 
ENDROOT
BRANCH   1   2
ATOM      2  N   UNL     1       2.489   3.276  19.670  0.00  0.00    +0.000 NA
ATOM      3  H   UNL     1       1.817   2.507  19.618  0.00  0.00    +0.000 HD
BRANCH   2   4
ATOM      4  C   UNL     1       3.654   2.901  18.880  0.00  0.00    +0.000 C 
BRANCH   4   5
ATOM      5  C   UNL     1       4.896   3.731  19.216  0.00  0.00    +0.000 C 
BRANCH   5   6
ATOM      6  C   UNL     1       5.427   4.568  18.036  0.00  0.00    +0.000 C 
ATOM      7  C   UNL     1       5.183   6.080  18.275  0.00  0.00    +0.000 C 
ATOM      8  C   UNL     1       5.742   6.909  17.112  0.00  0.00    +0.000 C 
ATOM      9  C   UNL     1       7.253   6.663  17.001  0.00  0.00    +0.000 C 
ATOM     10  C   UNL     1       7.527   5.173  16.743  0.00  0.00    +0.000 C 
ATOM     11  C   UNL     1       6.836   4.748  15.437  0.00  0.00    +0.000 C 
ATOM     12  C   UNL     1       5.322   4.983  15.540  0.00  0.00    +0.000 C 
ATOM     13  C   UNL     1       5.050   6.472  15.812  0.00  0.00    +0.000 C 
ATOM     14  C   UNL     1       4.761   4.152  16.702  0.00  0.00    +0.000 C 
ATOM     15  C   UNL     1       6.958   4.346  17.906  0.00  0.00    +0.000 C 
ENDBRANCH   5   6
ENDBRANCH   4   5
ENDBRANCH   2   4
ENDBRANCH   1   2
BRANCH   1  16
ATOM     16  C   UNL     1       1.635   5.420  20.399  0.00  0.00    +0.000 C 
BRANCH  16  17
ATOM     17  N   UNL     1       2.526   6.588  20.405  0.00  0.00    +0.000 N 
ATOM     18  H   UNL     1       2.865   6.788  21.343  0.00  0.00    +0.000 HD
BRANCH  17  24
ATOM     19 CL   UNL     1      -1.409  11.728  22.729  0.00  0.00    +0.000 Cl
ATOM     20  C   UNL     1      -0.419  10.568  21.931  0.00  0.00    +0.000 A 
ATOM     21  C   UNL     1       0.100   9.493  22.640  0.00  0.00    +0.000 A 
ATOM     22  C   UNL     1       0.894   8.552  21.976  0.00  0.00    +0.000 A 
ATOM     23  C   UNL     1       1.177   8.675  20.592  0.00  0.00    +0.000 A 
ATOM     24  C   UNL     1       1.945   7.753  19.822  0.00  0.00    +0.000 A 
ATOM     25  C   UNL     1       2.215   8.086  18.488  0.00  0.00    +0.000 A 
ATOM     26  C   UNL     1       1.643   9.207  17.931  0.00  0.00    +0.000 A 
ATOM     27  N   UNL     1       0.859  10.054  18.611  0.00  0.00    +0.000 NA
ATOM     28  C   UNL     1       0.645   9.800  19.907  0.00  0.00    +0.000 A 
ATOM     29  C   UNL     1      -0.140  10.715  20.580  0.00  0.00    +0.000 A 
ENDBRANCH  17  24
ENDBRANCH  16  17
ENDBRANCH   1  16
TORSDOF 7
ENDMDL
MODEL 4
REMARK VINA RESULT:      -8.0      5.342      7.689
REMARK  Name = 
REMARK  7 active torsions:
REMARK  status: ('A' for Active; 'I' for Inactive)
REMARK    1  A    between atoms: C_6  and  N_7
REMARK    2  A    between atoms: N_7  and  C_8
REMARK    3  A    between atoms: C_8  and  C_9
REMARK    4  A    between atoms: C_9  and  N_10
REMARK    5  A    between atoms: N_10  and  C_11
REMARK    6  A    between atoms: C_11  and  C_12
REMARK    7  A    between atoms: C_12  and  C_13
REMARK                            x       y       z     vdW  Elec       q    Type
REMARK                         _______ _______ _______ _____ _____    ______ ____
ROOT
ATOM      1  C   UNL     1       7.624   6.821  17.793  0.00  0.00    +0.000 C 
ENDROOT
BRANCH   1   2
ATOM      2  N   UNL     1       7.484   8.258  17.514  0.00  0.00    +0.000 NA
ATOM      3  H   UNL     1       6.549   8.560  17.797  0.00  0.00    +0.000 HD
BRANCH   2   4
ATOM      4  C   UNL     1       8.450   9.076  18.235  0.00  0.00    +0.000 C 
BRANCH   4   5
ATOM      5  C   UNL     1       8.604  10.479  17.642  0.00  0.00    +0.000 C 
BRANCH   5   6
ATOM      6  C   UNL     1       9.529  11.405  18.456  0.00  0.00    +0.000 C 
ATOM      7  C   UNL     1      10.885  11.608  17.733  0.00  0.00    +0.000 C 
ATOM      8  C   UNL     1      11.788  12.556  18.533  0.00  0.00    +0.000 C 
ATOM      9  C   UNL     1      11.091  13.917  18.671  0.00  0.00    +0.000 C 
ATOM     10  C   UNL     1       9.750  13.750  19.404  0.00  0.00    +0.000 C 
ATOM     11  C   UNL     1      10.003  13.155  20.798  0.00  0.00    +0.000 C 
ATOM     12  C   UNL     1      10.694  11.789  20.672  0.00  0.00    +0.000 C 
ATOM     13  C   UNL     1      12.029  11.954  19.926  0.00  0.00    +0.000 C 
ATOM     14  C   UNL     1       9.790  10.839  19.873  0.00  0.00    +0.000 C 
ATOM     15  C   UNL     1       8.852  12.794  18.603  0.00  0.00    +0.000 C 
ENDBRANCH   5   6
ENDBRANCH   4   5
ENDBRANCH   2   4
ENDBRANCH   1   2
BRANCH   1  16
ATOM     16  C   UNL     1       6.941   6.062  16.657  0.00  0.00    +0.000 C 
BRANCH  16  17
ATOM     17  N   UNL     1       6.024   5.013  17.124  0.00  0.00    +0.000 N 
ATOM     18  H   UNL     1       5.835   4.335  16.390  0.00  0.00    +0.000 HD
BRANCH  17  24
ATOM     19 CL   UNL     1       1.412   2.719  21.682  0.00  0.00    +0.000 Cl
ATOM     20  C   UNL     1       2.430   3.504  20.538  0.00  0.00    +0.000 A 
ATOM     21  C   UNL     1       3.607   2.895  20.122  0.00  0.00    +0.000 A 
ATOM     22  C   UNL     1       4.419   3.539  19.183  0.00  0.00    +0.000 A 
ATOM     23  C   UNL     1       4.062   4.803  18.647  0.00  0.00    +0.000 A 
ATOM     24  C   UNL     1       4.805   5.521  17.665  0.00  0.00    +0.000 A 
ATOM     25  C   UNL     1       4.362   6.807  17.326  0.00  0.00    +0.000 A 
ATOM     26  C   UNL     1       3.181   7.285  17.846  0.00  0.00    +0.000 A 
ATOM     27  N   UNL     1       2.425   6.603  18.717  0.00  0.00    +0.000 NA
ATOM     28  C   UNL     1       2.863   5.404  19.114  0.00  0.00    +0.000 A 
ATOM     29  C   UNL     1       2.073   4.748  20.038  0.00  0.00    +0.000 A 
ENDBRANCH  17  24
ENDBRANCH  16  17
ENDBRANCH   1  16
TORSDOF 7
ENDMDL
MODEL 5
REMARK VINA RESULT:      -7.9      2.590      4.628
REMARK  Name = 
REMARK  7 active torsions:
REMARK  status: ('A' for Active; 'I' for Inactive)
REMARK    1  A    between atoms: C_6  and  N_7
REMARK    2  A    between atoms: N_7  and  C_8
REMARK    3  A    between atoms: C_8  and  C_9
REMARK    4  A    between atoms: C_9  and  N_10
REMARK    5  A    between atoms: N_10  and  C_11
REMARK    6  A    between atoms: C_11  and  C_12
REMARK    7  A    between atoms: C_12  and  C_13
REMARK                            x       y       z     vdW  Elec       q    Type
REMARK                         _______ _______ _______ _____ _____    ______ ____
ROOT
ATOM      1  C   UNL     1       1.593   8.877  17.736  0.00  0.00    +0.000 C 
ENDROOT
BRANCH   1   2
ATOM      2  N   UNL     1       3.007   8.478  17.689  0.00  0.00    +0.000 NA
ATOM      3  H   UNL     1       3.524   9.010  18.393  0.00  0.00    +0.000 HD
BRANCH   2   4
ATOM      4  C   UNL     1       3.211   7.063  17.966  0.00  0.00    +0.000 C 
BRANCH   4   5
ATOM      5  C   UNL     1       2.549   6.609  19.270  0.00  0.00    +0.000 C 
BRANCH   5   6
ATOM      6  C   UNL     1       2.380   5.082  19.388  0.00  0.00    +0.000 C 
ATOM      7  C   UNL     1       3.725   4.401  19.750  0.00  0.00    +0.000 C 
ATOM      8  C   UNL     1       3.543   2.886  19.897  0.00  0.00    +0.000 C 
ATOM      9  C   UNL     1       2.530   2.608  21.017  0.00  0.00    +0.000 C 
ATOM     10  C   UNL     1       1.177   3.253  20.676  0.00  0.00    +0.000 C 
ATOM     11  C   UNL     1       0.656   2.673  19.352  0.00  0.00    +0.000 C 
ATOM     12  C   UNL     1       1.658   2.952  18.223  0.00  0.00    +0.000 C 
ATOM     13  C   UNL     1       3.015   2.318  18.570  0.00  0.00    +0.000 C 
ATOM     14  C   UNL     1       1.840   4.469  18.073  0.00  0.00    +0.000 C 
ATOM     15  C   UNL     1       1.367   4.771  20.522  0.00  0.00    +0.000 C 
ENDBRANCH   5   6
ENDBRANCH   4   5
ENDBRANCH   2   4
ENDBRANCH   1   2
BRANCH   1  16
ATOM     16  C   UNL     1       1.516  10.225  18.452  0.00  0.00    +0.000 C 
BRANCH  16  17
ATOM     17  N   UNL     1       0.180  10.529  18.981  0.00  0.00    +0.000 N 
ATOM     18  H   UNL     1      -0.138  11.446  18.675  0.00  0.00    +0.000 HD
BRANCH  17  24
ATOM     19 CL   UNL     1      -3.738  13.419  23.839  0.00  0.00    +0.000 Cl
ATOM     20  C   UNL     1      -2.664  12.556  22.808  0.00  0.00    +0.000 A 
ATOM     21  C   UNL     1      -2.708  12.755  21.435  0.00  0.00    +0.000 A 
ATOM     22  C   UNL     1      -1.821  12.055  20.611  0.00  0.00    +0.000 A 
ATOM     23  C   UNL     1      -0.877  11.146  21.153  0.00  0.00    +0.000 A 
ATOM     24  C   UNL     1       0.088  10.414  20.400  0.00  0.00    +0.000 A 
ATOM     25  C   UNL     1       0.874   9.478  21.086  0.00  0.00    +0.000 A 
ATOM     26  C   UNL     1       0.784   9.379  22.456  0.00  0.00    +0.000 A 
ATOM     27  N   UNL     1      -0.063  10.105  23.197  0.00  0.00    +0.000 NA
ATOM     28  C   UNL     1      -0.877  10.953  22.560  0.00  0.00    +0.000 A 
ATOM     29  C   UNL     1      -1.758  11.658  23.356  0.00  0.00    +0.000 A 
ENDBRANCH  17  24
ENDBRANCH  16  17
ENDBRANCH   1  16
TORSDOF 7
ENDMDL
MODEL 6
REMARK VINA RESULT:      -7.8      5.668      7.357
REMARK  Name = 
REMARK  7 active torsions:
REMARK  status: ('A' for Active; 'I' for Inactive)
REMARK    1  A    between atoms: C_6  and  N_7
REMARK    2  A    between atoms: N_7  and  C_8
REMARK    3  A    between atoms: C_8  and  C_9
REMARK    4  A    between atoms: C_9  and  N_10
REMARK    5  A    between atoms: N_10  and  C_11
REMARK    6  A    between atoms: C_11  and  C_12
REMARK    7  A    between atoms: C_12  and  C_13
REMARK                            x       y       z     vdW  Elec       q    Type
REMARK                         _______ _______ _______ _____ _____    ______ ____
ROOT
ATOM      1  C   UNL     1       8.028   7.546  18.159  0.00  0.00    +0.000 C 
ENDROOT
BRANCH   1   2
ATOM      2  N   UNL     1       7.405   7.168  16.882  0.00  0.00    +0.000 NA
ATOM      3  H   UNL     1       7.824   6.295  16.555  0.00  0.00    +0.000 HD
BRANCH   2   4
ATOM      4  C   UNL     1       5.968   6.957  16.989  0.00  0.00    +0.000 C 
BRANCH   4   5
ATOM      5  C   UNL     1       5.533   5.565  16.521  0.00  0.00    +0.000 C 
BRANCH   5   6
ATOM      6  C   UNL     1       4.477   4.901  17.426  0.00  0.00    +0.000 C 
ATOM      7  C   UNL     1       3.370   5.911  17.819  0.00  0.00    +0.000 C 
ATOM      8  C   UNL     1       2.307   5.235  18.694  0.00  0.00    +0.000 C 
ATOM      9  C   UNL     1       1.668   4.082  17.907  0.00  0.00    +0.000 C 
ATOM     10  C   UNL     1       2.741   3.051  17.520  0.00  0.00    +0.000 C 
ATOM     11  C   UNL     1       3.403   2.504  18.794  0.00  0.00    +0.000 C 
ATOM     12  C   UNL     1       4.052   3.649  19.586  0.00  0.00    +0.000 C 
ATOM     13  C   UNL     1       2.980   4.687  19.961  0.00  0.00    +0.000 C 
ATOM     14  C   UNL     1       5.118   4.325  18.713  0.00  0.00    +0.000 C 
ATOM     15  C   UNL     1       3.808   3.735  16.651  0.00  0.00    +0.000 C 
ENDBRANCH   5   6
ENDBRANCH   4   5
ENDBRANCH   2   4
ENDBRANCH   1   2
BRANCH   1  16
ATOM     16  C   UNL     1       8.282   9.052  18.122  0.00  0.00    +0.000 C 
BRANCH  16  17
ATOM     17  N   UNL     1       9.170   9.520  19.195  0.00  0.00    +0.000 N 
ATOM     18  H   UNL     1       8.742   9.398  20.109  0.00  0.00    +0.000 HD
BRANCH  17  24
ATOM     19 CL   UNL     1       9.383  15.105  23.204  0.00  0.00    +0.000 Cl
ATOM     20  C   UNL     1       9.450  13.847  22.031  0.00  0.00    +0.000 A 
ATOM     21  C   UNL     1       9.005  12.572  22.353  0.00  0.00    +0.000 A 
ATOM     22  C   UNL     1       9.055  11.563  21.387  0.00  0.00    +0.000 A 
ATOM     23  C   UNL     1       9.553  11.817  20.083  0.00  0.00    +0.000 A 
ATOM     24  C   UNL     1       9.612  10.866  19.023  0.00  0.00    +0.000 A 
ATOM     25  C   UNL     1      10.233  11.260  17.830  0.00  0.00    +0.000 A 
ATOM     26  C   UNL     1      10.649  12.562  17.670  0.00  0.00    +0.000 A 
ATOM     27  N   UNL     1      10.540  13.497  18.623  0.00  0.00    +0.000 NA
ATOM     28  C   UNL     1      10.019  13.129  19.799  0.00  0.00    +0.000 A 
ATOM     29  C   UNL     1       9.956  14.112  20.766  0.00  0.00    +0.000 A 
ENDBRANCH  17  24
ENDBRANCH  16  17
ENDBRANCH   1  16
TORSDOF 7
ENDMDL
MODEL 7
REMARK VINA RESULT:      -7.8      5.516      8.199
REMARK  Name = 
REMARK  7 active torsions:
REMARK  status: ('A' for Active; 'I' for Inactive)
REMARK    1  A    between atoms: C_6  and  N_7
REMARK    2  A    between atoms: N_7  and  C_8
REMARK    3  A    between atoms: C_8  and  C_9
REMARK    4  A    between atoms: C_9  and  N_10
REMARK    5  A    between atoms: N_10  and  C_11
REMARK    6  A    between atoms: C_11  and  C_12
REMARK    7  A    between atoms: C_12  and  C_13
REMARK                            x       y       z     vdW  Elec       q    Type
REMARK                         _______ _______ _______ _____ _____    ______ ____
ROOT
ATOM      1  C   UNL     1       7.170   7.221  17.893  0.00  0.00    +0.000 C 
ENDROOT
BRANCH   1   2
ATOM      2  N   UNL     1       8.194   8.125  17.351  0.00  0.00    +0.000 NA
ATOM      3  H   UNL     1       8.094   8.166  16.334  0.00  0.00    +0.000 HD
BRANCH   2   4
ATOM      4  C   UNL     1       8.083   9.485  17.861  0.00  0.00    +0.000 C 
BRANCH   4   5
ATOM      5  C   UNL     1       9.069   9.780  18.994  0.00  0.00    +0.000 C 
BRANCH   5   6
ATOM      6  C   UNL     1       9.751  11.158  18.890  0.00  0.00    +0.000 C 
ATOM      7  C   UNL     1      10.213  11.655  20.284  0.00  0.00    +0.000 C 
ATOM      8  C   UNL     1      10.918  13.012  20.168  0.00  0.00    +0.000 C 
ATOM      9  C   UNL     1      12.148  12.863  19.262  0.00  0.00    +0.000 C 
ATOM     10  C   UNL     1      11.719  12.391  17.863  0.00  0.00    +0.000 C 
ATOM     11  C   UNL     1      10.750  13.417  17.255  0.00  0.00    +0.000 C 
ATOM     12  C   UNL     1       9.511  13.568  18.150  0.00  0.00    +0.000 C 
ATOM     13  C   UNL     1       9.942  14.028  19.553  0.00  0.00    +0.000 C 
ATOM     14  C   UNL     1       8.803  12.211  18.265  0.00  0.00    +0.000 C 
ATOM     15  C   UNL     1      11.006  11.035  17.986  0.00  0.00    +0.000 C 
ENDBRANCH   5   6
ENDBRANCH   4   5
ENDBRANCH   2   4
ENDBRANCH   1   2
BRANCH   1  16
ATOM     16  C   UNL     1       7.861   6.276  18.875  0.00  0.00    +0.000 C 
BRANCH  16  17
ATOM     17  N   UNL     1       7.876   4.877  18.426  0.00  0.00    +0.000 N 
ATOM     18  H   UNL     1       8.796   4.611  18.082  0.00  0.00    +0.000 HD
BRANCH  17  24
ATOM     19 CL   UNL     1       1.181   3.330  18.703  0.00  0.00    +0.000 Cl
ATOM     20  C   UNL     1       2.827   3.715  18.385  0.00  0.00    +0.000 A 
ATOM     21  C   UNL     1       3.687   4.013  19.434  0.00  0.00    +0.000 A 
ATOM     22  C   UNL     1       5.025   4.313  19.161  0.00  0.00    +0.000 A 
ATOM     23  C   UNL     1       5.521   4.318  17.832  0.00  0.00    +0.000 A 
ATOM     24  C   UNL     1       6.872   4.577  17.458  0.00  0.00    +0.000 A 
ATOM     25  C   UNL     1       7.165   4.646  16.089  0.00  0.00    +0.000 A 
ATOM     26  C   UNL     1       6.192   4.347  15.163  0.00  0.00    +0.000 A 
ATOM     27  N   UNL     1       4.933   4.030  15.488  0.00  0.00    +0.000 NA
ATOM     28  C   UNL     1       4.606   4.030  16.785  0.00  0.00    +0.000 A 
ATOM     29  C   UNL     1       3.290   3.731  17.077  0.00  0.00    +0.000 A 
ENDBRANCH  17  24
ENDBRANCH  16  17
ENDBRANCH   1  16
TORSDOF 7
ENDMDL
MODEL 8
REMARK VINA RESULT:      -7.7      2.368      4.500
REMARK  Name = 
REMARK  7 active torsions:
REMARK  status: ('A' for Active; 'I' for Inactive)
REMARK    1  A    between atoms: C_6  and  N_7
REMARK    2  A    between atoms: N_7  and  C_8
REMARK    3  A    between atoms: C_8  and  C_9
REMARK    4  A    between atoms: C_9  and  N_10
REMARK    5  A    between atoms: N_10  and  C_11
REMARK    6  A    between atoms: C_11  and  C_12
REMARK    7  A    between atoms: C_12  and  C_13
REMARK                            x       y       z     vdW  Elec       q    Type
REMARK                         _______ _______ _______ _____ _____    ______ ____
ROOT
ATOM      1  C   UNL     1       1.639   9.162  17.627  0.00  0.00    +0.000 C 
ENDROOT
BRANCH   1   2
ATOM      2  N   UNL     1       2.804   8.295  17.402  0.00  0.00    +0.000 NA
ATOM      3  H   UNL     1       3.655   8.859  17.470  0.00  0.00    +0.000 HD
BRANCH   2   4
ATOM      4  C   UNL     1       2.910   7.216  18.375  0.00  0.00    +0.000 C 
BRANCH   4   5
ATOM      5  C   UNL     1       3.580   5.962  17.807  0.00  0.00    +0.000 C 
BRANCH   5   6
ATOM      6  C   UNL     1       3.104   4.648  18.456  0.00  0.00    +0.000 C 
ATOM      7  C   UNL     1       1.882   4.896  19.378  0.00  0.00    +0.000 C 
ATOM      8  C   UNL     1       1.395   3.580  19.996  0.00  0.00    +0.000 C 
ATOM      9  C   UNL     1       0.981   2.620  18.871  0.00  0.00    +0.000 C 
ATOM     10  C   UNL     1       2.180   2.338  17.951  0.00  0.00    +0.000 C 
ATOM     11  C   UNL     1       3.316   1.711  18.774  0.00  0.00    +0.000 C 
ATOM     12  C   UNL     1       3.744   2.666  19.897  0.00  0.00    +0.000 C 
ATOM     13  C   UNL     1       2.541   2.959  20.810  0.00  0.00    +0.000 C 
ATOM     14  C   UNL     1       4.234   3.984  19.280  0.00  0.00    +0.000 C 
ATOM     15  C   UNL     1       2.669   3.661  17.341  0.00  0.00    +0.000 C 
ENDBRANCH   5   6
ENDBRANCH   4   5
ENDBRANCH   2   4
ENDBRANCH   1   2
BRANCH   1  16
ATOM     16  C   UNL     1       1.345   9.162  19.126  0.00  0.00    +0.000 C 
BRANCH  16  17
ATOM     17  N   UNL     1       0.985  10.486  19.650  0.00  0.00    +0.000 N 
ATOM     18  H   UNL     1       1.782  11.118  19.634  0.00  0.00    +0.000 HD
BRANCH  17  24
ATOM     19 CL   UNL     1      -4.088  13.896  22.802  0.00  0.00    +0.000 Cl
ATOM     20  C   UNL     1      -2.807  12.905  22.222  0.00  0.00    +0.000 A 
ATOM     21  C   UNL     1      -2.360  13.041  20.915  0.00  0.00    +0.000 A 
ATOM     22  C   UNL     1      -1.310  12.237  20.461  0.00  0.00    +0.000 A 
ATOM     23  C   UNL     1      -0.693  11.284  21.312  0.00  0.00    +0.000 A 
ATOM     24  C   UNL     1       0.402  10.446  20.952  0.00  0.00    +0.000 A 
ATOM     25  C   UNL     1       0.820   9.486  21.885  0.00  0.00    +0.000 A 
ATOM     26  C   UNL     1       0.258   9.460  23.140  0.00  0.00    +0.000 A 
ATOM     27  N   UNL     1      -0.724  10.283  23.530  0.00  0.00    +0.000 NA
ATOM     28  C   UNL     1      -1.192  11.160  22.635  0.00  0.00    +0.000 A 
ATOM     29  C   UNL     1      -2.226  11.968  23.065  0.00  0.00    +0.000 A 
ENDBRANCH  17  24
ENDBRANCH  16  17
ENDBRANCH   1  16
TORSDOF 7
ENDMDL
MODEL 9
REMARK VINA RESULT:      -7.7      0.943      1.037
REMARK  Name = 
REMARK  7 active torsions:
REMARK  status: ('A' for Active; 'I' for Inactive)
REMARK    1  A    between atoms: C_6  and  N_7
REMARK    2  A    between atoms: N_7  and  C_8
REMARK    3  A    between atoms: C_8  and  C_9
REMARK    4  A    between atoms: C_9  and  N_10
REMARK    5  A    between atoms: N_10  and  C_11
REMARK    6  A    between atoms: C_11  and  C_12
REMARK    7  A    between atoms: C_12  and  C_13
REMARK                            x       y       z     vdW  Elec       q    Type
REMARK                         _______ _______ _______ _____ _____    ______ ____
ROOT
ATOM      1  C   UNL     1       1.231   4.299  19.987  0.00  0.00    +0.000 C 
ENDROOT
BRANCH   1   2
ATOM      2  N   UNL     1       1.509   3.813  18.628  0.00  0.00    +0.000 NA
ATOM      3  H   UNL     1       1.488   4.606  17.982  0.00  0.00    +0.000 HD
BRANCH   2   4
ATOM      4  C   UNL     1       2.814   3.177  18.505  0.00  0.00    +0.000 C 
BRANCH   4   5
ATOM      5  C   UNL     1       3.435   3.351  17.116  0.00  0.00    +0.000 C 
BRANCH   5   6
ATOM      6  C   UNL     1       4.702   4.227  17.101  0.00  0.00    +0.000 C 
ATOM      7  C   UNL     1       5.382   4.243  18.494  0.00  0.00    +0.000 C 
ATOM      8  C   UNL     1       6.659   5.091  18.463  0.00  0.00    +0.000 C 
ATOM      9  C   UNL     1       7.637   4.491  17.442  0.00  0.00    +0.000 C 
ATOM     10  C   UNL     1       6.997   4.481  16.044  0.00  0.00    +0.000 C 
ATOM     11  C   UNL     1       6.643   5.920  15.637  0.00  0.00    +0.000 C 
ATOM     12  C   UNL     1       5.660   6.528  16.648  0.00  0.00    +0.000 C 
ATOM     13  C   UNL     1       6.295   6.524  18.049  0.00  0.00    +0.000 C 
ATOM     14  C   UNL     1       4.380   5.681  16.678  0.00  0.00    +0.000 C 
ATOM     15  C   UNL     1       5.714   3.637  16.082  0.00  0.00    +0.000 C 
ENDBRANCH   5   6
ENDBRANCH   4   5
ENDBRANCH   2   4
ENDBRANCH   1   2
BRANCH   1  16
ATOM     16  C   UNL     1       2.403   5.184  20.409  0.00  0.00    +0.000 C 
BRANCH  16  17
ATOM     17  N   UNL     1       1.985   6.431  21.065  0.00  0.00    +0.000 N 
ATOM     18  H   UNL     1       1.151   6.289  21.629  0.00  0.00    +0.000 HD
BRANCH  17  24
ATOM     19 CL   UNL     1      -1.219  12.509  21.373  0.00  0.00    +0.000 Cl
ATOM     20  C   UNL     1      -0.338  11.062  21.071  0.00  0.00    +0.000 A 
ATOM     21  C   UNL     1      -0.222  10.098  22.063  0.00  0.00    +0.000 A 
ATOM     22  C   UNL     1       0.487   8.922  21.799  0.00  0.00    +0.000 A 
ATOM     23  C   UNL     1       1.089   8.695  20.535  0.00  0.00    +0.000 A 
ATOM     24  C   UNL     1       1.801   7.518  20.160  0.00  0.00    +0.000 A 
ATOM     25  C   UNL     1       2.423   7.507  18.904  0.00  0.00    +0.000 A 
ATOM     26  C   UNL     1       2.233   8.556  18.035  0.00  0.00    +0.000 A 
ATOM     27  N   UNL     1       1.510   9.643  18.333  0.00  0.00    +0.000 NA
ATOM     28  C   UNL     1       0.966   9.714  19.553  0.00  0.00    +0.000 A 
ATOM     29  C   UNL     1       0.257  10.865  19.832  0.00  0.00    +0.000 A 
ENDBRANCH  17  24
ENDBRANCH  16  17
ENDBRANCH   1  16
TORSDOF 7
ENDMDL
