MODEL 1
REMARK VINA RESULT:      -7.1      0.000      0.000
REMARK  Name = 
REMARK  7 active torsions:
REMARK  status: ('A' for Active; 'I' for Inactive)
REMARK    1  A    between atoms: C_1  and  C_2
REMARK    2  A    between atoms: C_2  and  O_3
REMARK    3  A    between atoms: O_3  and  C_4
REMARK    4  A    between atoms: C_4  and  C_6
REMARK    5  A    between atoms: C_6  and  N_7
REMARK    6  A    between atoms: C_8  and  C_9
REMARK    7  A    between atoms: C_9  and  C_10
REMARK                            x       y       z     vdW  Elec       q    Type
REMARK                         _______ _______ _______ _____ _____    ______ ____
ROOT
ATOM      1  N   UNL     1       5.035   4.621  17.526  0.00  0.00    +0.000 N 
ATOM      2  C   UNL     1       5.896   5.081  18.504  0.00  0.00    +0.000 A 
ATOM      3  N   UNL     1       5.239   5.274  19.634  0.00  0.00    +0.000 NA
ATOM      4  C   UNL     1       3.943   4.899  19.393  0.00  0.00    +0.000 A 
ATOM      5  C   UNL     1       2.839   4.888  20.258  0.00  0.00    +0.000 A 
ATOM      6  C   UNL     1       1.603   4.450  19.766  0.00  0.00    +0.000 A 
ATOM      7  C   UNL     1       1.467   4.031  18.443  0.00  0.00    +0.000 A 
ATOM      8  C   UNL     1       2.557   4.032  17.567  0.00  0.00    +0.000 A 
ATOM      9  C   UNL     1       3.782   4.482  18.076  0.00  0.00    +0.000 A 
ENDROOT
BRANCH   2  10
ATOM     10  C   UNL     1       7.327   5.330  18.355  0.00  0.00    +0.000 C 
ATOM     11  C   UNL     1       7.788   6.764  18.267  0.00  0.00    +0.000 C 
ATOM     12  O   UNL     1       8.158   4.420  18.283  0.00  0.00    +0.000 OA
ENDBRANCH   2  10
BRANCH   1  13
ATOM     13  C   UNL     1       5.371   4.330  16.145  0.00  0.00    +0.000 C 
BRANCH  13  14
ATOM     14  C   UNL     1       5.603   5.585  15.347  0.00  0.00    +0.000 C 
ATOM     15  O   UNL     1       5.152   6.693  15.598  0.00  0.00    +0.000 OA
BRANCH  14  16
ATOM     16  O   UNL     1       6.367   5.278  14.257  0.00  0.00    +0.000 OA
BRANCH  16  18
ATOM     17  C   UNL     1       6.342   3.679  12.488  0.00  0.00    +0.000 C 
ATOM     18  C   UNL     1       6.488   3.875  13.986  0.00  0.00    +0.000 C 
ENDBRANCH  16  18
ENDBRANCH  14  16
ENDBRANCH  13  14
ENDBRANCH   1  13
TORSDOF 5
ENDMDL
MODEL 2
REMARK VINA RESULT:      -7.1      1.220      1.255
REMARK  Name = 
REMARK  7 active torsions:
REMARK  status: ('A' for Active; 'I' for Inactive)
REMARK    1  A    between atoms: C_1  and  C_2
REMARK    2  A    between atoms: C_2  and  O_3
REMARK    3  A    between atoms: O_3  and  C_4
REMARK    4  A    between atoms: C_4  and  C_6
REMARK    5  A    between atoms: C_6  and  N_7
REMARK    6  A    between atoms: C_8  and  C_9
REMARK    7  A    between atoms: C_9  and  C_10
REMARK                            x       y       z     vdW  Elec       q    Type
REMARK                         _______ _______ _______ _____ _____    ______ ____
ROOT
ATOM      1  N   UNL     1       5.090   4.878  17.385  0.00  0.00    +0.000 N 
ATOM      2  C   UNL     1       6.088   4.536  18.278  0.00  0.00    +0.000 A 
ATOM      3  N   UNL     1       5.597   3.768  19.235  0.00  0.00    +0.000 NA
ATOM      4  C   UNL     1       4.273   3.582  18.936  0.00  0.00    +0.000 A 
ATOM      5  C   UNL     1       3.299   2.835  19.615  0.00  0.00    +0.000 A 
ATOM      6  C   UNL     1       1.998   2.797  19.098  0.00  0.00    +0.000 A 
ATOM      7  C   UNL     1       1.672   3.487  17.930  0.00  0.00    +0.000 A 
ATOM      8  C   UNL     1       2.630   4.235  17.238  0.00  0.00    +0.000 A 
ATOM      9  C   UNL     1       3.923   4.266  17.777  0.00  0.00    +0.000 A 
ENDROOT
BRANCH   2  10
ATOM     10  C   UNL     1       7.490   4.940  18.212  0.00  0.00    +0.000 C 
ATOM     11  C   UNL     1       7.841   6.340  18.649  0.00  0.00    +0.000 C 
ATOM     12  O   UNL     1       8.380   4.190  17.802  0.00  0.00    +0.000 OA
ENDBRANCH   2  10
BRANCH   1  13
ATOM     13  C   UNL     1       5.226   5.738  16.224  0.00  0.00    +0.000 C 
BRANCH  13  14
ATOM     14  C   UNL     1       6.134   5.140  15.184  0.00  0.00    +0.000 C 
ATOM     15  O   UNL     1       7.294   5.459  14.971  0.00  0.00    +0.000 OA
BRANCH  14  16
ATOM     16  O   UNL     1       5.434   4.207  14.473  0.00  0.00    +0.000 OA
BRANCH  16  18
ATOM     17  C   UNL     1       5.102   3.448  12.237  0.00  0.00    +0.000 C 
ATOM     18  C   UNL     1       6.126   3.678  13.333  0.00  0.00    +0.000 C 
ENDBRANCH  16  18
ENDBRANCH  14  16
ENDBRANCH  13  14
ENDBRANCH   1  13
TORSDOF 5
ENDMDL
MODEL 3
REMARK VINA RESULT:      -7.0      1.671      1.801
REMARK  Name = 
REMARK  7 active torsions:
REMARK  status: ('A' for Active; 'I' for Inactive)
REMARK    1  A    between atoms: C_1  and  C_2
REMARK    2  A    between atoms: C_2  and  O_3
REMARK    3  A    between atoms: O_3  and  C_4
REMARK    4  A    between atoms: C_4  and  C_6
REMARK    5  A    between atoms: C_6  and  N_7
REMARK    6  A    between atoms: C_8  and  C_9
REMARK    7  A    between atoms: C_9  and  C_10
REMARK                            x       y       z     vdW  Elec       q    Type
REMARK                         _______ _______ _______ _____ _____    ______ ____
ROOT
ATOM      1  N   UNL     1       5.598   4.915  16.995  0.00  0.00    +0.000 N 
ATOM      2  C   UNL     1       5.788   6.141  17.604  0.00  0.00    +0.000 A 
ATOM      3  N   UNL     1       4.659   6.552  18.156  0.00  0.00    +0.000 NA
ATOM      4  C   UNL     1       3.738   5.563  17.931  0.00  0.00    +0.000 A 
ATOM      5  C   UNL     1       2.393   5.486  18.321  0.00  0.00    +0.000 A 
ATOM      6  C   UNL     1       1.653   4.351  17.967  0.00  0.00    +0.000 A 
ATOM      7  C   UNL     1       2.238   3.313  17.242  0.00  0.00    +0.000 A 
ATOM      8  C   UNL     1       3.579   3.370  16.847  0.00  0.00    +0.000 A 
ATOM      9  C   UNL     1       4.299   4.517  17.203  0.00  0.00    +0.000 A 
ENDROOT
BRANCH   2  10
ATOM     10  C   UNL     1       7.032   6.903  17.657  0.00  0.00    +0.000 C 
ATOM     11  C   UNL     1       8.022   6.563  18.742  0.00  0.00    +0.000 C 
ATOM     12  O   UNL     1       7.288   7.813  16.864  0.00  0.00    +0.000 OA
ENDBRANCH   2  10
BRANCH   1  13
ATOM     13  C   UNL     1       6.587   4.158  16.250  0.00  0.00    +0.000 C 
BRANCH  13  14
ATOM     14  C   UNL     1       6.729   4.655  14.837  0.00  0.00    +0.000 C 
ATOM     15  O   UNL     1       7.560   5.456  14.435  0.00  0.00    +0.000 OA
BRANCH  14  16
ATOM     16  O   UNL     1       5.740   4.102  14.075  0.00  0.00    +0.000 OA
BRANCH  16  18
ATOM     17  C   UNL     1       4.970   3.314  11.960  0.00  0.00    +0.000 C 
ATOM     18  C   UNL     1       6.187   3.519  12.843  0.00  0.00    +0.000 C 
ENDBRANCH  16  18
ENDBRANCH  14  16
ENDBRANCH  13  14
ENDBRANCH   1  13
TORSDOF 5
ENDMDL
MODEL 4
REMARK VINA RESULT:      -6.7      1.682      2.744
REMARK  Name = 
REMARK  7 active torsions:
REMARK  status: ('A' for Active; 'I' for Inactive)
REMARK    1  A    between atoms: C_1  and  C_2
REMARK    2  A    between atoms: C_2  and  O_3
REMARK    3  A    between atoms: O_3  and  C_4
REMARK    4  A    between atoms: C_4  and  C_6
REMARK    5  A    between atoms: C_6  and  N_7
REMARK    6  A    between atoms: C_8  and  C_9
REMARK    7  A    between atoms: C_9  and  C_10
REMARK                            x       y       z     vdW  Elec       q    Type
REMARK                         _______ _______ _______ _____ _____    ______ ____
ROOT
ATOM      1  N   UNL     1       4.996   4.328  17.388  0.00  0.00    +0.000 N 
ATOM      2  C   UNL     1       6.009   4.278  18.327  0.00  0.00    +0.000 A 
ATOM      3  N   UNL     1       5.570   3.715  19.439  0.00  0.00    +0.000 NA
ATOM      4  C   UNL     1       4.266   3.364  19.202  0.00  0.00    +0.000 A 
ATOM      5  C   UNL     1       3.347   2.719  20.043  0.00  0.00    +0.000 A 
ATOM      6  C   UNL     1       2.057   2.464  19.559  0.00  0.00    +0.000 A 
ATOM      7  C   UNL     1       1.689   2.841  18.268  0.00  0.00    +0.000 A 
ATOM      8  C   UNL     1       2.594   3.482  17.414  0.00  0.00    +0.000 A 
ATOM      9  C   UNL     1       3.875   3.735  17.920  0.00  0.00    +0.000 A 
ENDROOT
BRANCH   2  10
ATOM     10  C   UNL     1       7.375   4.763  18.158  0.00  0.00    +0.000 C 
ATOM     11  C   UNL     1       7.777   6.013  18.900  0.00  0.00    +0.000 C 
ATOM     12  O   UNL     1       8.196   4.201  17.426  0.00  0.00    +0.000 OA
ENDBRANCH   2  10
BRANCH   1  13
ATOM     13  C   UNL     1       5.075   4.908  16.060  0.00  0.00    +0.000 C 
BRANCH  13  14
ATOM     14  C   UNL     1       4.926   6.405  16.091  0.00  0.00    +0.000 C 
ATOM     15  O   UNL     1       5.082   7.165  15.146  0.00  0.00    +0.000 OA
BRANCH  14  16
ATOM     16  O   UNL     1       4.633   6.792  17.368  0.00  0.00    +0.000 OA
BRANCH  16  18
ATOM     17  C   UNL     1       2.650   7.025  18.671  0.00  0.00    +0.000 C 
ATOM     18  C   UNL     1       3.438   7.576  17.498  0.00  0.00    +0.000 C 
ENDBRANCH  16  18
ENDBRANCH  14  16
ENDBRANCH  13  14
ENDBRANCH   1  13
TORSDOF 5
ENDMDL
MODEL 5
REMARK VINA RESULT:      -6.7      2.632      4.562
REMARK  Name = 
REMARK  7 active torsions:
REMARK  status: ('A' for Active; 'I' for Inactive)
REMARK    1  A    between atoms: C_1  and  C_2
REMARK    2  A    between atoms: C_2  and  O_3
REMARK    3  A    between atoms: O_3  and  C_4
REMARK    4  A    between atoms: C_4  and  C_6
REMARK    5  A    between atoms: C_6  and  N_7
REMARK    6  A    between atoms: C_8  and  C_9
REMARK    7  A    between atoms: C_9  and  C_10
REMARK                            x       y       z     vdW  Elec       q    Type
REMARK                         _______ _______ _______ _____ _____    ______ ____
ROOT
ATOM      1  N   UNL     1       4.719   4.955  18.333  0.00  0.00    +0.000 N 
ATOM      2  C   UNL     1       5.348   5.332  17.161  0.00  0.00    +0.000 A 
ATOM      3  N   UNL     1       4.836   6.466  16.716  0.00  0.00    +0.000 NA
ATOM      4  C   UNL     1       3.889   6.846  17.631  0.00  0.00    +0.000 A 
ATOM      5  C   UNL     1       3.066   7.981  17.648  0.00  0.00    +0.000 A 
ATOM      6  C   UNL     1       2.170   8.147  18.712  0.00  0.00    +0.000 A 
ATOM      7  C   UNL     1       2.094   7.204  19.737  0.00  0.00    +0.000 A 
ATOM      8  C   UNL     1       2.909   6.067  19.738  0.00  0.00    +0.000 A 
ATOM      9  C   UNL     1       3.792   5.916  18.661  0.00  0.00    +0.000 A 
ENDROOT
BRANCH   2  10
ATOM     10  C   UNL     1       6.422   4.614  16.482  0.00  0.00    +0.000 C 
ATOM     11  C   UNL     1       6.067   3.804  15.260  0.00  0.00    +0.000 C 
ATOM     12  O   UNL     1       7.591   4.636  16.877  0.00  0.00    +0.000 OA
ENDBRANCH   2  10
BRANCH   1  13
ATOM     13  C   UNL     1       4.972   3.751  19.102  0.00  0.00    +0.000 C 
BRANCH  13  14
ATOM     14  C   UNL     1       3.958   2.677  18.815  0.00  0.00    +0.000 C 
ATOM     15  O   UNL     1       3.671   2.232  17.714  0.00  0.00    +0.000 OA
BRANCH  14  16
ATOM     16  O   UNL     1       3.364   2.309  19.989  0.00  0.00    +0.000 OA
BRANCH  16  18
ATOM     17  C   UNL     1       1.558   2.959  21.403  0.00  0.00    +0.000 C 
ATOM     18  C   UNL     1       1.939   2.473  20.018  0.00  0.00    +0.000 C 
ENDBRANCH  16  18
ENDBRANCH  14  16
ENDBRANCH  13  14
ENDBRANCH   1  13
TORSDOF 5
ENDMDL
MODEL 6
REMARK VINA RESULT:      -6.6      1.532      1.871
REMARK  Name = 
REMARK  7 active torsions:
REMARK  status: ('A' for Active; 'I' for Inactive)
REMARK    1  A    between atoms: C_1  and  C_2
REMARK    2  A    between atoms: C_2  and  O_3
REMARK    3  A    between atoms: O_3  and  C_4
REMARK    4  A    between atoms: C_4  and  C_6
REMARK    5  A    between atoms: C_6  and  N_7
REMARK    6  A    between atoms: C_8  and  C_9
REMARK    7  A    between atoms: C_9  and  C_10
REMARK                            x       y       z     vdW  Elec       q    Type
REMARK                         _______ _______ _______ _____ _____    ______ ____
ROOT
ATOM      1  N   UNL     1       4.534   5.258  18.337  0.00  0.00    +0.000 N 
ATOM      2  C   UNL     1       5.558   4.540  18.924  0.00  0.00    +0.000 A 
ATOM      3  N   UNL     1       5.113   3.362  19.328  0.00  0.00    +0.000 NA
ATOM      4  C   UNL     1       3.794   3.305  18.963  0.00  0.00    +0.000 A 
ATOM      5  C   UNL     1       2.862   2.271  19.136  0.00  0.00    +0.000 A 
ATOM      6  C   UNL     1       1.556   2.456  18.664  0.00  0.00    +0.000 A 
ATOM      7  C   UNL     1       1.184   3.643  18.033  0.00  0.00    +0.000 A 
ATOM      8  C   UNL     1       2.101   4.684  17.849  0.00  0.00    +0.000 A 
ATOM      9  C   UNL     1       3.398   4.482  18.336  0.00  0.00    +0.000 A 
ENDROOT
BRANCH   2  10
ATOM     10  C   UNL     1       6.940   4.978  19.095  0.00  0.00    +0.000 C 
ATOM     11  C   UNL     1       7.937   4.599  18.028  0.00  0.00    +0.000 C 
ATOM     12  O   UNL     1       7.317   5.624  20.077  0.00  0.00    +0.000 OA
ENDBRANCH   2  10
BRANCH   1  13
ATOM     13  C   UNL     1       4.616   6.606  17.807  0.00  0.00    +0.000 C 
BRANCH  13  14
ATOM     14  C   UNL     1       5.533   6.687  16.616  0.00  0.00    +0.000 C 
ATOM     15  O   UNL     1       6.538   7.376  16.525  0.00  0.00    +0.000 OA
BRANCH  14  16
ATOM     16  O   UNL     1       5.032   5.896  15.621  0.00  0.00    +0.000 OA
BRANCH  16  18
ATOM     17  C   UNL     1       5.837   3.687  15.223  0.00  0.00    +0.000 C 
ATOM     18  C   UNL     1       6.018   5.155  14.889  0.00  0.00    +0.000 C 
ENDBRANCH  16  18
ENDBRANCH  14  16
ENDBRANCH  13  14
ENDBRANCH   1  13
TORSDOF 5
ENDMDL
MODEL 7
REMARK VINA RESULT:      -6.6      1.652      3.592
REMARK  Name = 
REMARK  7 active torsions:
REMARK  status: ('A' for Active; 'I' for Inactive)
REMARK    1  A    between atoms: C_1  and  C_2
REMARK    2  A    between atoms: C_2  and  O_3
REMARK    3  A    between atoms: O_3  and  C_4
REMARK    4  A    between atoms: C_4  and  C_6
REMARK    5  A    between atoms: C_6  and  N_7
REMARK    6  A    between atoms: C_8  and  C_9
REMARK    7  A    between atoms: C_9  and  C_10
REMARK                            x       y       z     vdW  Elec       q    Type
REMARK                         _______ _______ _______ _____ _____    ______ ____
ROOT
ATOM      1  N   UNL     1       4.279   5.106  18.068  0.00  0.00    +0.000 N 
ATOM      2  C   UNL     1       4.298   4.262  16.974  0.00  0.00    +0.000 A 
ATOM      3  N   UNL     1       3.300   3.398  17.049  0.00  0.00    +0.000 NA
ATOM      4  C   UNL     1       2.606   3.712  18.188  0.00  0.00    +0.000 A 
ATOM      5  C   UNL     1       1.452   3.122  18.724  0.00  0.00    +0.000 A 
ATOM      6  C   UNL     1       0.925   3.635  19.916  0.00  0.00    +0.000 A 
ATOM      7  C   UNL     1       1.530   4.714  20.560  0.00  0.00    +0.000 A 
ATOM      8  C   UNL     1       2.679   5.318  20.038  0.00  0.00    +0.000 A 
ATOM      9  C   UNL     1       3.195   4.784  18.851  0.00  0.00    +0.000 A 
ENDROOT
BRANCH   2  10
ATOM     10  C   UNL     1       5.258   4.285  15.875  0.00  0.00    +0.000 C 
ATOM     11  C   UNL     1       5.287   5.505  14.988  0.00  0.00    +0.000 C 
ATOM     12  O   UNL     1       6.025   3.347  15.641  0.00  0.00    +0.000 OA
ENDBRANCH   2  10
BRANCH   1  13
ATOM     13  C   UNL     1       5.231   6.159  18.364  0.00  0.00    +0.000 C 
BRANCH  13  14
ATOM     14  C   UNL     1       6.530   5.610  18.891  0.00  0.00    +0.000 C 
ATOM     15  O   UNL     1       6.661   4.860  19.846  0.00  0.00    +0.000 OA
BRANCH  14  16
ATOM     16  O   UNL     1       7.557   6.129  18.155  0.00  0.00    +0.000 OA
BRANCH  16  18
ATOM     17  C   UNL     1       8.115   8.434  17.903  0.00  0.00    +0.000 C 
ATOM     18  C   UNL     1       7.225   7.308  17.409  0.00  0.00    +0.000 C 
ENDBRANCH  16  18
ENDBRANCH  14  16
ENDBRANCH  13  14
ENDBRANCH   1  13
TORSDOF 5
ENDMDL
MODEL 8
REMARK VINA RESULT:      -6.6      1.430      3.993
REMARK  Name = 
REMARK  7 active torsions:
REMARK  status: ('A' for Active; 'I' for Inactive)
REMARK    1  A    between atoms: C_1  and  C_2
REMARK    2  A    between atoms: C_2  and  O_3
REMARK    3  A    between atoms: O_3  and  C_4
REMARK    4  A    between atoms: C_4  and  C_6
REMARK    5  A    between atoms: C_6  and  N_7
REMARK    6  A    between atoms: C_8  and  C_9
REMARK    7  A    between atoms: C_9  and  C_10
REMARK                            x       y       z     vdW  Elec       q    Type
REMARK                         _______ _______ _______ _____ _____    ______ ____
ROOT
ATOM      1  N   UNL     1       5.498   5.565  17.124  0.00  0.00    +0.000 N 
ATOM      2  C   UNL     1       5.530   4.679  16.064  0.00  0.00    +0.000 A 
ATOM      3  N   UNL     1       4.534   3.815  16.164  0.00  0.00    +0.000 NA
ATOM      4  C   UNL     1       3.829   4.171  17.284  0.00  0.00    +0.000 A 
ATOM      5  C   UNL     1       2.673   3.598  17.833  0.00  0.00    +0.000 A 
ATOM      6  C   UNL     1       2.133   4.156  18.999  0.00  0.00    +0.000 A 
ATOM      7  C   UNL     1       2.730   5.261  19.606  0.00  0.00    +0.000 A 
ATOM      8  C   UNL     1       3.881   5.848  19.071  0.00  0.00    +0.000 A 
ATOM      9  C   UNL     1       4.409   5.270  17.910  0.00  0.00    +0.000 A 
ENDROOT
BRANCH   2  10
ATOM     10  C   UNL     1       6.500   4.663  14.973  0.00  0.00    +0.000 C 
ATOM     11  C   UNL     1       6.128   3.927  13.710  0.00  0.00    +0.000 C 
ATOM     12  O   UNL     1       7.603   5.209  15.055  0.00  0.00    +0.000 OA
ENDBRANCH   2  10
BRANCH   1  13
ATOM     13  C   UNL     1       6.445   6.633  17.387  0.00  0.00    +0.000 C 
BRANCH  13  14
ATOM     14  C   UNL     1       7.557   6.186  18.297  0.00  0.00    +0.000 C 
ATOM     15  O   UNL     1       7.749   5.047  18.695  0.00  0.00    +0.000 OA
BRANCH  14  16
ATOM     16  O   UNL     1       8.298   7.277  18.654  0.00  0.00    +0.000 OA
BRANCH  16  18
ATOM     17  C   UNL     1       8.779   9.608  18.526  0.00  0.00    +0.000 C 
ATOM     18  C   UNL     1       8.059   8.449  17.863  0.00  0.00    +0.000 C 
ENDBRANCH  16  18
ENDBRANCH  14  16
ENDBRANCH  13  14
ENDBRANCH   1  13
TORSDOF 5
ENDMDL
MODEL 9
REMARK VINA RESULT:      -6.5      1.278      1.441
REMARK  Name = 
REMARK  7 active torsions:
REMARK  status: ('A' for Active; 'I' for Inactive)
REMARK    1  A    between atoms: C_1  and  C_2
REMARK    2  A    between atoms: C_2  and  O_3
REMARK    3  A    between atoms: O_3  and  C_4
REMARK    4  A    between atoms: C_4  and  C_6
REMARK    5  A    between atoms: C_6  and  N_7
REMARK    6  A    between atoms: C_8  and  C_9
REMARK    7  A    between atoms: C_9  and  C_10
REMARK                            x       y       z     vdW  Elec       q    Type
REMARK                         _______ _______ _______ _____ _____    ______ ____
ROOT
ATOM      1  N   UNL     1       5.055   4.725  17.459  0.00  0.00    +0.000 N 
ATOM      2  C   UNL     1       6.043   4.479  18.394  0.00  0.00    +0.000 A 
ATOM      3  N   UNL     1       5.540   3.822  19.424  0.00  0.00    +0.000 NA
ATOM      4  C   UNL     1       4.218   3.609  19.135  0.00  0.00    +0.000 A 
ATOM      5  C   UNL     1       3.235   2.943  19.882  0.00  0.00    +0.000 A 
ATOM      6  C   UNL     1       1.938   2.854  19.360  0.00  0.00    +0.000 A 
ATOM      7  C   UNL     1       1.625   3.414  18.121  0.00  0.00    +0.000 A 
ATOM      8  C   UNL     1       2.594   4.078  17.361  0.00  0.00    +0.000 A 
ATOM      9  C   UNL     1       3.881   4.164  17.905  0.00  0.00    +0.000 A 
ENDROOT
BRANCH   2  10
ATOM     10  C   UNL     1       7.447   4.868  18.298  0.00  0.00    +0.000 C 
ATOM     11  C   UNL     1       7.858   6.184  18.911  0.00  0.00    +0.000 C 
ATOM     12  O   UNL     1       8.293   4.174  17.726  0.00  0.00    +0.000 OA
ENDBRANCH   2  10
BRANCH   1  13
ATOM     13  C   UNL     1       5.205   5.453  16.214  0.00  0.00    +0.000 C 
BRANCH  13  14
ATOM     14  C   UNL     1       5.878   4.623  15.154  0.00  0.00    +0.000 C 
ATOM     15  O   UNL     1       5.958   3.403  15.137  0.00  0.00    +0.000 OA
BRANCH  14  16
ATOM     16  O   UNL     1       6.436   5.458  14.229  0.00  0.00    +0.000 OA
BRANCH  16  18
ATOM     17  C   UNL     1       8.322   5.663  12.785  0.00  0.00    +0.000 C 
ATOM     18  C   UNL     1       7.138   4.795  13.168  0.00  0.00    +0.000 C 
ENDBRANCH  16  18
ENDBRANCH  14  16
ENDBRANCH  13  14
ENDBRANCH   1  13
TORSDOF 5
ENDMDL
