MODEL 1
REMARK VINA RESULT:      -7.5      0.000      0.000
REMARK  Name = 
REMARK  4 active torsions:
REMARK  status: ('A' for Active; 'I' for Inactive)
REMARK    1  A    between atoms: C_1  and  C_2
REMARK    2  A    between atoms: C_2  and  C_3
REMARK    3  A    between atoms: N_14  and  C_15
REMARK    4  A    between atoms: C_15  and  C_16
REMARK                            x       y       z     vdW  Elec       q    Type
REMARK                         _______ _______ _______ _____ _____    ______ ____
ROOT
ATOM      1  C   UNL     1       3.021   3.139  19.777  0.00  0.00    +0.000 C 
ATOM      2  C   UNL     1       3.852   4.149  18.993  0.00  0.00    +0.000 C 
ATOM      3  N   UNL     1       5.233   4.220  19.427  0.00  0.00    +0.000 N 
ATOM      4  C   UNL     1       6.103   4.229  18.357  0.00  0.00    +0.000 C 
ATOM      5  O   UNL     1       7.261   4.602  18.426  0.00  0.00    +0.000 OA
ATOM      6  N   UNL     1       5.430   3.806  17.256  0.00  0.00    +0.000 N 
ATOM      7  C   UNL     1       4.106   3.641  17.557  0.00  0.00    +0.000 C 
ATOM      8  O   UNL     1       3.243   3.240  16.781  0.00  0.00    +0.000 OA
ATOM      9  H   UNL     1       5.523   4.657  20.295  0.00  0.00    +0.000 HD
ENDROOT
BRANCH   2  10
ATOM     10  C   UNL     1       3.201   5.529  19.055  0.00  0.00    +0.000 A 
ATOM     11  C   UNL     1       3.223   6.428  17.974  0.00  0.00    +0.000 A 
ATOM     12  C   UNL     1       2.595   7.668  18.079  0.00  0.00    +0.000 A 
ATOM     13  F   UNL     1       2.636   8.508  17.039  0.00  0.00    +0.000 F 
ATOM     14  C   UNL     1       1.929   8.048  19.238  0.00  0.00    +0.000 A 
ATOM     15  C   UNL     1       1.882   7.169  20.314  0.00  0.00    +0.000 A 
ATOM     16  C   UNL     1       2.510   5.927  20.213  0.00  0.00    +0.000 A 
ATOM     17  F   UNL     1       2.433   5.096  21.264  0.00  0.00    +0.000 F 
ENDBRANCH   2  10
BRANCH   6  18
ATOM     18  C   UNL     1       5.991   3.674  15.925  0.00  0.00    +0.000 C 
BRANCH  18  19
ATOM     19  C   UNL     1       5.562   4.785  14.943  0.00  0.00    +0.000 C 
ATOM     20  C   UNL     1       4.980   4.212  13.648  0.00  0.00    +0.000 C 
ATOM     21  C   UNL     1       6.056   3.556  12.792  0.00  0.00    +0.000 C 
ATOM     22  C   UNL     1       7.216   4.513  12.558  0.00  0.00    +0.000 C 
ATOM     23  C   UNL     1       7.663   5.246  13.818  0.00  0.00    +0.000 C 
ATOM     24  O   UNL     1       6.595   5.724  14.629  0.00  0.00    +0.000 OA
ENDBRANCH  18  19
ENDBRANCH   6  18
TORSDOF 3
ENDMDL
MODEL 2
REMARK VINA RESULT:      -7.4      1.545      1.992
REMARK  Name = 
REMARK  4 active torsions:
REMARK  status: ('A' for Active; 'I' for Inactive)
REMARK    1  A    between atoms: C_1  and  C_2
REMARK    2  A    between atoms: C_2  and  C_3
REMARK    3  A    between atoms: N_14  and  C_15
REMARK    4  A    between atoms: C_15  and  C_16
REMARK                            x       y       z     vdW  Elec       q    Type
REMARK                         _______ _______ _______ _____ _____    ______ ____
ROOT
ATOM      1  C   UNL     1       0.935   3.691  19.588  0.00  0.00    +0.000 C 
ATOM      2  C   UNL     1       2.231   4.379  19.174  0.00  0.00    +0.000 C 
ATOM      3  N   UNL     1       3.387   3.935  19.928  0.00  0.00    +0.000 N 
ATOM      4  C   UNL     1       4.467   3.688  19.107  0.00  0.00    +0.000 C 
ATOM      5  O   UNL     1       5.619   3.623  19.500  0.00  0.00    +0.000 OA
ATOM      6  N   UNL     1       4.018   3.585  17.830  0.00  0.00    +0.000 N 
ATOM      7  C   UNL     1       2.684   3.886  17.782  0.00  0.00    +0.000 C 
ATOM      8  O   UNL     1       1.981   3.855  16.775  0.00  0.00    +0.000 OA
ATOM      9  H   UNL     1       3.557   4.198  20.892  0.00  0.00    +0.000 HD
ENDROOT
BRANCH   2  10
ATOM     10  C   UNL     1       2.080   5.895  19.273  0.00  0.00    +0.000 A 
ATOM     11  C   UNL     1       2.191   6.744  18.158  0.00  0.00    +0.000 A 
ATOM     12  C   UNL     1       2.022   8.121  18.304  0.00  0.00    +0.000 A 
ATOM     13  F   UNL     1       2.140   8.908  17.229  0.00  0.00    +0.000 F 
ATOM     14  C   UNL     1       1.737   8.689  19.539  0.00  0.00    +0.000 A 
ATOM     15  C   UNL     1       1.608   7.867  20.652  0.00  0.00    +0.000 A 
ATOM     16  C   UNL     1       1.775   6.490  20.511  0.00  0.00    +0.000 A 
ATOM     17  F   UNL     1       1.629   5.723  21.603  0.00  0.00    +0.000 F 
ENDBRANCH   2  10
BRANCH   6  18
ATOM     18  C   UNL     1       4.843   3.330  16.664  0.00  0.00    +0.000 C 
BRANCH  18  19
ATOM     19  C   UNL     1       4.961   4.526  15.696  0.00  0.00    +0.000 C 
ATOM     20  C   UNL     1       6.265   4.489  14.896  0.00  0.00    +0.000 C 
ATOM     21  C   UNL     1       7.471   4.790  15.775  0.00  0.00    +0.000 C 
ATOM     22  C   UNL     1       7.272   6.092  16.538  0.00  0.00    +0.000 C 
ATOM     23  C   UNL     1       5.888   6.222  17.165  0.00  0.00    +0.000 C 
ATOM     24  O   UNL     1       4.819   5.806  16.321  0.00  0.00    +0.000 OA
ENDBRANCH  18  19
ENDBRANCH   6  18
TORSDOF 3
ENDMDL
MODEL 3
REMARK VINA RESULT:      -7.3      1.071      1.811
REMARK  Name = 
REMARK  4 active torsions:
REMARK  status: ('A' for Active; 'I' for Inactive)
REMARK    1  A    between atoms: C_1  and  C_2
REMARK    2  A    between atoms: C_2  and  C_3
REMARK    3  A    between atoms: N_14  and  C_15
REMARK    4  A    between atoms: C_15  and  C_16
REMARK                            x       y       z     vdW  Elec       q    Type
REMARK                         _______ _______ _______ _____ _____    ______ ____
ROOT
ATOM      1  C   UNL     1       3.937   3.471  19.886  0.00  0.00    +0.000 C 
ATOM      2  C   UNL     1       4.498   4.407  18.821  0.00  0.00    +0.000 C 
ATOM      3  N   UNL     1       5.912   4.686  18.984  0.00  0.00    +0.000 N 
ATOM      4  C   UNL     1       6.590   4.595  17.788  0.00  0.00    +0.000 C 
ATOM      5  O   UNL     1       7.689   5.085  17.590  0.00  0.00    +0.000 OA
ATOM      6  N   UNL     1       5.809   3.924  16.903  0.00  0.00    +0.000 N 
ATOM      7  C   UNL     1       4.581   3.686  17.457  0.00  0.00    +0.000 C 
ATOM      8  O   UNL     1       3.662   3.074  16.918  0.00  0.00    +0.000 OA
ATOM      9  H   UNL     1       6.279   5.292  19.709  0.00  0.00    +0.000 HD
ENDROOT
BRANCH   2  10
ATOM     10  C   UNL     1       3.698   5.706  18.785  0.00  0.00    +0.000 A 
ATOM     11  C   UNL     1       2.829   6.092  19.820  0.00  0.00    +0.000 A 
ATOM     12  C   UNL     1       2.138   7.301  19.744  0.00  0.00    +0.000 A 
ATOM     13  F   UNL     1       1.311   7.642  20.738  0.00  0.00    +0.000 F 
ATOM     14  C   UNL     1       2.289   8.155  18.659  0.00  0.00    +0.000 A 
ATOM     15  C   UNL     1       3.155   7.801  17.631  0.00  0.00    +0.000 A 
ATOM     16  C   UNL     1       3.848   6.593  17.703  0.00  0.00    +0.000 A 
ATOM     17  F   UNL     1       4.687   6.288  16.701  0.00  0.00    +0.000 F 
ENDBRANCH   2  10
BRANCH   6  18
ATOM     18  C   UNL     1       6.161   3.620  15.529  0.00  0.00    +0.000 C 
BRANCH  18  19
ATOM     19  C   UNL     1       5.693   4.676  14.505  0.00  0.00    +0.000 C 
ATOM     20  C   UNL     1       5.085   4.032  13.256  0.00  0.00    +0.000 C 
ATOM     21  C   UNL     1       6.147   3.348  12.405  0.00  0.00    +0.000 C 
ATOM     22  C   UNL     1       7.289   4.305  12.094  0.00  0.00    +0.000 C 
ATOM     23  C   UNL     1       7.758   5.105  13.304  0.00  0.00    +0.000 C 
ATOM     24  O   UNL     1       6.706   5.610  14.118  0.00  0.00    +0.000 OA
ENDBRANCH  18  19
ENDBRANCH   6  18
TORSDOF 3
ENDMDL
MODEL 4
REMARK VINA RESULT:      -7.3      1.496      1.850
REMARK  Name = 
REMARK  4 active torsions:
REMARK  status: ('A' for Active; 'I' for Inactive)
REMARK    1  A    between atoms: C_1  and  C_2
REMARK    2  A    between atoms: C_2  and  C_3
REMARK    3  A    between atoms: N_14  and  C_15
REMARK    4  A    between atoms: C_15  and  C_16
REMARK                            x       y       z     vdW  Elec       q    Type
REMARK                         _______ _______ _______ _____ _____    ______ ____
ROOT
ATOM      1  C   UNL     1       1.243   4.585  20.459  0.00  0.00    +0.000 C 
ATOM      2  C   UNL     1       2.358   5.266  19.672  0.00  0.00    +0.000 C 
ATOM      3  N   UNL     1       3.673   5.072  20.250  0.00  0.00    +0.000 N 
ATOM      4  C   UNL     1       4.607   4.741  19.292  0.00  0.00    +0.000 C 
ATOM      5  O   UNL     1       5.811   4.842  19.452  0.00  0.00    +0.000 OA
ATOM      6  N   UNL     1       3.948   4.344  18.172  0.00  0.00    +0.000 N 
ATOM      7  C   UNL     1       2.603   4.530  18.336  0.00  0.00    +0.000 C 
ATOM      8  O   UNL     1       1.737   4.241  17.513  0.00  0.00    +0.000 OA
ATOM      9  H   UNL     1       3.985   5.539  21.094  0.00  0.00    +0.000 HD
ENDROOT
BRANCH   2  10
ATOM     10  C   UNL     1       2.058   6.753  19.513  0.00  0.00    +0.000 A 
ATOM     11  C   UNL     1       2.239   7.439  18.299  0.00  0.00    +0.000 A 
ATOM     12  C   UNL     1       1.930   8.795  18.205  0.00  0.00    +0.000 A 
ATOM     13  F   UNL     1       2.117   9.426  17.041  0.00  0.00    +0.000 F 
ATOM     14  C   UNL     1       1.434   9.503  19.292  0.00  0.00    +0.000 A 
ATOM     15  C   UNL     1       1.233   8.842  20.499  0.00  0.00    +0.000 A 
ATOM     16  C   UNL     1       1.541   7.485  20.597  0.00  0.00    +0.000 A 
ATOM     17  F   UNL     1       1.322   6.873  21.772  0.00  0.00    +0.000 F 
ENDBRANCH   2  10
BRANCH   6  18
ATOM     18  C   UNL     1       4.572   3.916  16.935  0.00  0.00    +0.000 C 
BRANCH  18  19
ATOM     19  C   UNL     1       4.736   5.035  15.886  0.00  0.00    +0.000 C 
ATOM     20  C   UNL     1       5.141   4.482  14.516  0.00  0.00    +0.000 C 
ATOM     21  C   UNL     1       6.574   3.966  14.522  0.00  0.00    +0.000 C 
ATOM     22  C   UNL     1       7.529   5.028  15.048  0.00  0.00    +0.000 C 
ATOM     23  C   UNL     1       7.024   5.730  16.303  0.00  0.00    +0.000 C 
ATOM     24  O   UNL     1       5.643   6.074  16.270  0.00  0.00    +0.000 OA
ENDBRANCH  18  19
ENDBRANCH   6  18
TORSDOF 3
ENDMDL
MODEL 5
REMARK VINA RESULT:      -7.2      3.739      7.284
REMARK  Name = 
REMARK  4 active torsions:
REMARK  status: ('A' for Active; 'I' for Inactive)
REMARK    1  A    between atoms: C_1  and  C_2
REMARK    2  A    between atoms: C_2  and  C_3
REMARK    3  A    between atoms: N_14  and  C_15
REMARK    4  A    between atoms: C_15  and  C_16
REMARK                            x       y       z     vdW  Elec       q    Type
REMARK                         _______ _______ _______ _____ _____    ______ ____
ROOT
ATOM      1  C   UNL     1       2.353   4.713  17.810  0.00  0.00    +0.000 C 
ATOM      2  C   UNL     1       2.922   6.043  18.294  0.00  0.00    +0.000 C 
ATOM      3  N   UNL     1       2.470   7.180  17.517  0.00  0.00    +0.000 N 
ATOM      4  C   UNL     1       2.089   8.230  18.325  0.00  0.00    +0.000 C 
ATOM      5  O   UNL     1       1.984   9.382  17.940  0.00  0.00    +0.000 OA
ATOM      6  N   UNL     1       1.909   7.756  19.585  0.00  0.00    +0.000 N 
ATOM      7  C   UNL     1       2.287   6.443  19.644  0.00  0.00    +0.000 C 
ATOM      8  O   UNL     1       2.217   5.724  20.638  0.00  0.00    +0.000 OA
ATOM      9  H   UNL     1       2.801   7.381  16.580  0.00  0.00    +0.000 HD
ENDROOT
BRANCH   2  10
ATOM     10  C   UNL     1       4.447   5.986  18.320  0.00  0.00    +0.000 A 
ATOM     11  C   UNL     1       5.254   6.899  17.618  0.00  0.00    +0.000 A 
ATOM     12  C   UNL     1       6.643   6.813  17.695  0.00  0.00    +0.000 A 
ATOM     13  F   UNL     1       7.388   7.688  17.012  0.00  0.00    +0.000 F 
ATOM     14  C   UNL     1       7.268   5.838  18.463  0.00  0.00    +0.000 A 
ATOM     15  C   UNL     1       6.490   4.934  19.177  0.00  0.00    +0.000 A 
ATOM     16  C   UNL     1       5.100   5.017  19.104  0.00  0.00    +0.000 A 
ATOM     17  F   UNL     1       4.378   4.139  19.817  0.00  0.00    +0.000 F 
ENDBRANCH   2  10
BRANCH   6  18
ATOM     18  C   UNL     1       1.507   8.545  20.734  0.00  0.00    +0.000 C 
BRANCH  18  19
ATOM     19  C   UNL     1      -0.019   8.719  20.882  0.00  0.00    +0.000 C 
ATOM     20  C   UNL     1      -0.501  10.057  20.315  0.00  0.00    +0.000 C 
ATOM     21  C   UNL     1      -0.055  11.226  21.183  0.00  0.00    +0.000 C 
ATOM     22  C   UNL     1      -0.460  11.007  22.634  0.00  0.00    +0.000 C 
ATOM     23  C   UNL     1      -0.168   9.599  23.140  0.00  0.00    +0.000 C 
ATOM     24  O   UNL     1      -0.502   8.564  22.221  0.00  0.00    +0.000 OA
ENDBRANCH  18  19
ENDBRANCH   6  18
TORSDOF 3
ENDMDL
MODEL 6
REMARK VINA RESULT:      -7.2      3.687      7.435
REMARK  Name = 
REMARK  4 active torsions:
REMARK  status: ('A' for Active; 'I' for Inactive)
REMARK    1  A    between atoms: C_1  and  C_2
REMARK    2  A    between atoms: C_2  and  C_3
REMARK    3  A    between atoms: N_14  and  C_15
REMARK    4  A    between atoms: C_15  and  C_16
REMARK                            x       y       z     vdW  Elec       q    Type
REMARK                         _______ _______ _______ _____ _____    ______ ____
ROOT
ATOM      1  C   UNL     1       2.598   4.715  17.674  0.00  0.00    +0.000 C 
ATOM      2  C   UNL     1       3.108   6.059  18.182  0.00  0.00    +0.000 C 
ATOM      3  N   UNL     1       2.592   7.191  17.438  0.00  0.00    +0.000 N 
ATOM      4  C   UNL     1       2.171   8.202  18.275  0.00  0.00    +0.000 C 
ATOM      5  O   UNL     1       2.006   9.356  17.919  0.00  0.00    +0.000 OA
ATOM      6  N   UNL     1       2.030   7.690  19.525  0.00  0.00    +0.000 N 
ATOM      7  C   UNL     1       2.472   6.397  19.549  0.00  0.00    +0.000 C 
ATOM      8  O   UNL     1       2.448   5.652  20.526  0.00  0.00    +0.000 OA
ATOM      9  H   UNL     1       2.901   7.429  16.502  0.00  0.00    +0.000 HD
ENDROOT
BRANCH   2  10
ATOM     10  C   UNL     1       4.634   6.076  18.191  0.00  0.00    +0.000 A 
ATOM     11  C   UNL     1       5.393   5.632  19.288  0.00  0.00    +0.000 A 
ATOM     12  C   UNL     1       6.786   5.651  19.232  0.00  0.00    +0.000 A 
ATOM     13  F   UNL     1       7.485   5.230  20.292  0.00  0.00    +0.000 F 
ATOM     14  C   UNL     1       7.461   6.097  18.103  0.00  0.00    +0.000 A 
ATOM     15  C   UNL     1       6.731   6.527  17.001  0.00  0.00    +0.000 A 
ATOM     16  C   UNL     1       5.337   6.510  17.052  0.00  0.00    +0.000 A 
ATOM     17  F   UNL     1       4.662   6.917  15.966  0.00  0.00    +0.000 F 
ENDBRANCH   2  10
BRANCH   6  18
ATOM     18  C   UNL     1       1.604   8.433  20.696  0.00  0.00    +0.000 C 
BRANCH  18  19
ATOM     19  C   UNL     1       0.077   8.617  20.811  0.00  0.00    +0.000 C 
ATOM     20  C   UNL     1      -0.382   9.964  20.243  0.00  0.00    +0.000 C 
ATOM     21  C   UNL     1       0.053  11.123  21.130  0.00  0.00    +0.000 C 
ATOM     22  C   UNL     1      -0.387  10.897  22.569  0.00  0.00    +0.000 C 
ATOM     23  C   UNL     1      -0.118   9.482  23.071  0.00  0.00    +0.000 C 
ATOM     24  O   UNL     1      -0.438   8.457  22.137  0.00  0.00    +0.000 OA
ENDBRANCH  18  19
ENDBRANCH   6  18
TORSDOF 3
ENDMDL
MODEL 7
REMARK VINA RESULT:      -7.1      2.677      6.130
REMARK  Name = 
REMARK  4 active torsions:
REMARK  status: ('A' for Active; 'I' for Inactive)
REMARK    1  A    between atoms: C_1  and  C_2
REMARK    2  A    between atoms: C_2  and  C_3
REMARK    3  A    between atoms: N_14  and  C_15
REMARK    4  A    between atoms: C_15  and  C_16
REMARK                            x       y       z     vdW  Elec       q    Type
REMARK                         _______ _______ _______ _____ _____    ______ ____
ROOT
ATOM      1  C   UNL     1       7.301   7.255  17.143  0.00  0.00    +0.000 C 
ATOM      2  C   UNL     1       6.464   5.981  17.190  0.00  0.00    +0.000 C 
ATOM      3  N   UNL     1       6.911   5.034  18.194  0.00  0.00    +0.000 N 
ATOM      4  C   UNL     1       5.855   4.523  18.917  0.00  0.00    +0.000 C 
ATOM      5  O   UNL     1       5.915   3.499  19.576  0.00  0.00    +0.000 OA
ATOM      6  N   UNL     1       4.775   5.322  18.720  0.00  0.00    +0.000 N 
ATOM      7  C   UNL     1       5.068   6.273  17.782  0.00  0.00    +0.000 C 
ATOM      8  O   UNL     1       4.308   7.163  17.407  0.00  0.00    +0.000 OA
ATOM      9  H   UNL     1       7.752   4.477  18.097  0.00  0.00    +0.000 HD
ENDROOT
BRANCH   2  10
ATOM     10  C   UNL     1       6.426   5.322  15.814  0.00  0.00    +0.000 A 
ATOM     11  C   UNL     1       7.397   5.568  14.827  0.00  0.00    +0.000 A 
ATOM     12  C   UNL     1       7.324   4.922  13.593  0.00  0.00    +0.000 A 
ATOM     13  F   UNL     1       8.255   5.179  12.669  0.00  0.00    +0.000 F 
ATOM     14  C   UNL     1       6.307   4.022  13.306  0.00  0.00    +0.000 A 
ATOM     15  C   UNL     1       5.344   3.752  14.272  0.00  0.00    +0.000 A 
ATOM     16  C   UNL     1       5.413   4.395  15.508  0.00  0.00    +0.000 A 
ATOM     17  F   UNL     1       4.478   4.102  16.424  0.00  0.00    +0.000 F 
ENDBRANCH   2  10
BRANCH   6  18
ATOM     18  C   UNL     1       3.463   5.125  19.306  0.00  0.00    +0.000 C 
BRANCH  18  19
ATOM     19  C   UNL     1       2.793   3.787  18.929  0.00  0.00    +0.000 C 
ATOM     20  C   UNL     1       1.265   3.885  18.952  0.00  0.00    +0.000 C 
ATOM     21  C   UNL     1       0.733   4.011  20.374  0.00  0.00    +0.000 C 
ATOM     22  C   UNL     1       1.278   2.896  21.255  0.00  0.00    +0.000 C 
ATOM     23  C   UNL     1       2.773   2.657  21.077  0.00  0.00    +0.000 C 
ATOM     24  O   UNL     1       3.214   2.674  19.724  0.00  0.00    +0.000 OA
ENDBRANCH  18  19
ENDBRANCH   6  18
TORSDOF 3
ENDMDL
MODEL 8
REMARK VINA RESULT:      -7.0      1.604      2.286
REMARK  Name = 
REMARK  4 active torsions:
REMARK  status: ('A' for Active; 'I' for Inactive)
REMARK    1  A    between atoms: C_1  and  C_2
REMARK    2  A    between atoms: C_2  and  C_3
REMARK    3  A    between atoms: N_14  and  C_15
REMARK    4  A    between atoms: C_15  and  C_16
REMARK                            x       y       z     vdW  Elec       q    Type
REMARK                         _______ _______ _______ _____ _____    ______ ____
ROOT
ATOM      1  C   UNL     1       1.338   3.739  20.400  0.00  0.00    +0.000 C 
ATOM      2  C   UNL     1       2.425   4.546  19.697  0.00  0.00    +0.000 C 
ATOM      3  N   UNL     1       3.755   4.300  20.219  0.00  0.00    +0.000 N 
ATOM      4  C   UNL     1       4.675   4.125  19.208  0.00  0.00    +0.000 C 
ATOM      5  O   UNL     1       5.880   4.228  19.359  0.00  0.00    +0.000 OA
ATOM      6  N   UNL     1       4.001   3.876  18.056  0.00  0.00    +0.000 N 
ATOM      7  C   UNL     1       2.656   4.010  18.267  0.00  0.00    +0.000 C 
ATOM      8  O   UNL     1       1.780   3.821  17.427  0.00  0.00    +0.000 OA
ATOM      9  H   UNL     1       4.075   4.651  21.115  0.00  0.00    +0.000 HD
ENDROOT
BRANCH   2  10
ATOM     10  C   UNL     1       2.096   6.035  19.753  0.00  0.00    +0.000 A 
ATOM     11  C   UNL     1       1.543   6.649  20.891  0.00  0.00    +0.000 A 
ATOM     12  C   UNL     1       1.281   8.018  20.893  0.00  0.00    +0.000 A 
ATOM     13  F   UNL     1       0.748   8.577  21.984  0.00  0.00    +0.000 F 
ATOM     14  C   UNL     1       1.562   8.812  19.788  0.00  0.00    +0.000 A 
ATOM     15  C   UNL     1       2.123   8.229  18.657  0.00  0.00    +0.000 A 
ATOM     16  C   UNL     1       2.386   6.859  18.651  0.00  0.00    +0.000 A 
ATOM     17  F   UNL     1       2.942   6.331  17.550  0.00  0.00    +0.000 F 
ENDBRANCH   2  10
BRANCH   6  18
ATOM     18  C   UNL     1       4.607   3.637  16.759  0.00  0.00    +0.000 C 
BRANCH  18  19
ATOM     19  C   UNL     1       4.780   4.905  15.896  0.00  0.00    +0.000 C 
ATOM     20  C   UNL     1       5.030   4.565  14.424  0.00  0.00    +0.000 C 
ATOM     21  C   UNL     1       6.411   3.959  14.215  0.00  0.00    +0.000 C 
ATOM     22  C   UNL     1       7.489   4.849  14.818  0.00  0.00    +0.000 C 
ATOM     23  C   UNL     1       7.144   5.361  16.212  0.00  0.00    +0.000 C 
ATOM     24  O   UNL     1       5.797   5.799  16.361  0.00  0.00    +0.000 OA
ENDBRANCH  18  19
ENDBRANCH   6  18
TORSDOF 3
ENDMDL
MODEL 9
REMARK VINA RESULT:      -7.0      1.407      1.851
REMARK  Name = 
REMARK  4 active torsions:
REMARK  status: ('A' for Active; 'I' for Inactive)
REMARK    1  A    between atoms: C_1  and  C_2
REMARK    2  A    between atoms: C_2  and  C_3
REMARK    3  A    between atoms: N_14  and  C_15
REMARK    4  A    between atoms: C_15  and  C_16
REMARK                            x       y       z     vdW  Elec       q    Type
REMARK                         _______ _______ _______ _____ _____    ______ ____
ROOT
ATOM      1  C   UNL     1       0.929   3.414  19.294  0.00  0.00    +0.000 C 
ATOM      2  C   UNL     1       2.273   4.103  19.077  0.00  0.00    +0.000 C 
ATOM      3  N   UNL     1       3.323   3.603  19.942  0.00  0.00    +0.000 N 
ATOM      4  C   UNL     1       4.493   3.381  19.248  0.00  0.00    +0.000 C 
ATOM      5  O   UNL     1       5.588   3.279  19.774  0.00  0.00    +0.000 OA
ATOM      6  N   UNL     1       4.203   3.350  17.921  0.00  0.00    +0.000 N 
ATOM      7  C   UNL     1       2.888   3.673  17.727  0.00  0.00    +0.000 C 
ATOM      8  O   UNL     1       2.314   3.704  16.641  0.00  0.00    +0.000 OA
ATOM      9  H   UNL     1       3.376   3.814  20.933  0.00  0.00    +0.000 HD
ENDROOT
BRANCH   2  10
ATOM     10  C   UNL     1       2.124   5.613  19.236  0.00  0.00    +0.000 A 
ATOM     11  C   UNL     1       2.300   6.510  18.168  0.00  0.00    +0.000 A 
ATOM     12  C   UNL     1       2.131   7.880  18.366  0.00  0.00    +0.000 A 
ATOM     13  F   UNL     1       2.311   8.714  17.336  0.00  0.00    +0.000 F 
ATOM     14  C   UNL     1       1.781   8.395  19.608  0.00  0.00    +0.000 A 
ATOM     15  C   UNL     1       1.588   7.525  20.675  0.00  0.00    +0.000 A 
ATOM     16  C   UNL     1       1.755   6.155  20.481  0.00  0.00    +0.000 A 
ATOM     17  F   UNL     1       1.546   5.341  21.528  0.00  0.00    +0.000 F 
ENDBRANCH   2  10
BRANCH   6  18
ATOM     18  C   UNL     1       5.162   3.142  16.853  0.00  0.00    +0.000 C 
BRANCH  18  19
ATOM     19  C   UNL     1       6.305   4.178  16.815  0.00  0.00    +0.000 C 
ATOM     20  C   UNL     1       5.779   5.615  16.885  0.00  0.00    +0.000 C 
ATOM     21  C   UNL     1       5.068   6.014  15.599  0.00  0.00    +0.000 C 
ATOM     22  C   UNL     1       5.956   5.758  14.389  0.00  0.00    +0.000 C 
ATOM     23  C   UNL     1       6.651   4.401  14.423  0.00  0.00    +0.000 C 
ATOM     24  O   UNL     1       7.184   4.045  15.694  0.00  0.00    +0.000 OA
ENDBRANCH  18  19
ENDBRANCH   6  18
TORSDOF 3
ENDMDL
