MODEL 1
REMARK VINA RESULT:      -7.6      0.000      0.000
REMARK  Name = 
REMARK  10 active torsions:
REMARK  status: ('A' for Active; 'I' for Inactive)
REMARK    1  A    between atoms: C_2  and  C_3
REMARK    2  A    between atoms: C_2  and  C_22
REMARK    3  A    between atoms: C_3  and  C_4
REMARK    4  A    between atoms: C_4  and  C_5
REMARK    5  A    between atoms: C_5  and  C_6
REMARK    6  A    between atoms: C_6  and  C_7
REMARK    7  A    between atoms: C_7  and  C_8
REMARK    8  A    between atoms: C_8  and  O_9
REMARK    9  A    between atoms: O_9  and  C_10
REMARK   10  A    between atoms: C_14  and  C_15
REMARK                            x       y       z     vdW  Elec       q    Type
REMARK                         _______ _______ _______ _____ _____    ______ ____
ROOT
ATOM      1  O   UNL     1       4.130   7.353  17.863  0.00  0.00    +0.000 OA
ENDROOT
BRANCH   1   2
ATOM      2  C   UNL     1       5.068   6.440  17.470  0.00  0.00    +0.000 A 
ATOM      3  C   UNL     1       5.917   6.006  18.485  0.00  0.00    +0.000 A 
ATOM      4  C   UNL     1       6.935   5.101  18.208  0.00  0.00    +0.000 A 
ATOM      5  C   UNL     1       7.124   4.646  16.902  0.00  0.00    +0.000 A 
ATOM      6  C   UNL     1       6.294   5.069  15.848  0.00  0.00    +0.000 A 
ATOM      7  C   UNL     1       5.241   5.951  16.171  0.00  0.00    +0.000 A 
BRANCH   6   8
ATOM      8  C   UNL     1       6.563   4.663  14.446  0.00  0.00    +0.000 A 
ATOM      9  C   UNL     1       7.553   5.285  13.666  0.00  0.00    +0.000 A 
ATOM     10  C   UNL     1       7.726   4.970  12.314  0.00  0.00    +0.000 A 
ATOM     11  C   UNL     1       6.927   4.003  11.715  0.00  0.00    +0.000 A 
ATOM     12  C   UNL     1       5.963   3.342  12.469  0.00  0.00    +0.000 A 
ATOM     13  C   UNL     1       5.782   3.673  13.813  0.00  0.00    +0.000 A 
ENDBRANCH   6   8
ENDBRANCH   1   2
BRANCH   1  14
ATOM     14  C   UNL     1       2.763   7.012  17.646  0.00  0.00    +0.000 C 
BRANCH  14  15
ATOM     15  C   UNL     1       2.451   5.782  18.491  0.00  0.00    +0.000 C 
BRANCH  15  16
ATOM     16  C   UNL     1       1.960   4.630  17.623  0.00  0.00    +0.000 C 
BRANCH  16  17
ATOM     17  C   UNL     1       3.032   3.553  17.459  0.00  0.00    +0.000 C 
BRANCH  17  18
ATOM     18  C   UNL     1       2.438   2.171  17.719  0.00  0.00    +0.000 C 
BRANCH  18  19
ATOM     19  C   UNL     1       1.582   2.141  18.982  0.00  0.00    +0.000 C 
BRANCH  19  21
ATOM     20  O   UNL     1       3.564   2.186  20.351  0.00  0.00    +0.000 OA
ATOM     21  C   UNL     1       2.380   2.518  20.217  0.00  0.00    +0.000 C 
BRANCH  21  22
ATOM     22  C   UNL     1       1.632   3.322  21.268  0.00  0.00    +0.000 C 
ATOM     23  F   UNL     1       1.058   2.531  22.221  0.00  0.00    +0.000 F 
ATOM     24  F   UNL     1       2.442   4.187  21.933  0.00  0.00    +0.000 F 
ATOM     25  F   UNL     1       0.621   4.061  20.734  0.00  0.00    +0.000 F 
ENDBRANCH  21  22
ENDBRANCH  19  21
ENDBRANCH  18  19
ENDBRANCH  17  18
ENDBRANCH  16  17
ENDBRANCH  15  16
ENDBRANCH  14  15
ENDBRANCH   1  14
TORSDOF 10
ENDMDL
MODEL 2
REMARK VINA RESULT:      -7.3      1.900      2.645
REMARK  Name = 
REMARK  10 active torsions:
REMARK  status: ('A' for Active; 'I' for Inactive)
REMARK    1  A    between atoms: C_2  and  C_3
REMARK    2  A    between atoms: C_2  and  C_22
REMARK    3  A    between atoms: C_3  and  C_4
REMARK    4  A    between atoms: C_4  and  C_5
REMARK    5  A    between atoms: C_5  and  C_6
REMARK    6  A    between atoms: C_6  and  C_7
REMARK    7  A    between atoms: C_7  and  C_8
REMARK    8  A    between atoms: C_8  and  O_9
REMARK    9  A    between atoms: O_9  and  C_10
REMARK   10  A    between atoms: C_14  and  C_15
REMARK                            x       y       z     vdW  Elec       q    Type
REMARK                         _______ _______ _______ _____ _____    ______ ____
ROOT
ATOM      1  O   UNL     1       3.796   6.630  17.907  0.00  0.00    +0.000 OA
ENDROOT
BRANCH   1   2
ATOM      2  C   UNL     1       4.835   5.897  17.408  0.00  0.00    +0.000 A 
ATOM      3  C   UNL     1       5.815   5.567  18.342  0.00  0.00    +0.000 A 
ATOM      4  C   UNL     1       6.940   4.849  17.955  0.00  0.00    +0.000 A 
ATOM      5  C   UNL     1       7.104   4.481  16.618  0.00  0.00    +0.000 A 
ATOM      6  C   UNL     1       6.142   4.804  15.643  0.00  0.00    +0.000 A 
ATOM      7  C   UNL     1       4.989   5.491  16.078  0.00  0.00    +0.000 A 
BRANCH   6   8
ATOM      8  C   UNL     1       6.368   4.500  14.208  0.00  0.00    +0.000 A 
ATOM      9  C   UNL     1       5.573   3.575  13.508  0.00  0.00    +0.000 A 
ATOM     10  C   UNL     1       5.861   3.215  12.187  0.00  0.00    +0.000 A 
ATOM     11  C   UNL     1       6.938   3.792  11.525  0.00  0.00    +0.000 A 
ATOM     12  C   UNL     1       7.720   4.739  12.176  0.00  0.00    +0.000 A 
ATOM     13  C   UNL     1       7.440   5.082  13.501  0.00  0.00    +0.000 A 
ENDBRANCH   6   8
ENDBRANCH   1   2
BRANCH   1  14
ATOM     14  C   UNL     1       3.579   6.570  19.314  0.00  0.00    +0.000 C 
BRANCH  14  15
ATOM     15  C   UNL     1       2.190   7.133  19.596  0.00  0.00    +0.000 C 
BRANCH  15  16
ATOM     16  C   UNL     1       1.661   6.643  20.937  0.00  0.00    +0.000 C 
BRANCH  16  17
ATOM     17  C   UNL     1       1.893   5.144  21.120  0.00  0.00    +0.000 C 
BRANCH  17  18
ATOM     18  C   UNL     1       0.810   4.348  20.395  0.00  0.00    +0.000 C 
BRANCH  18  19
ATOM     19  C   UNL     1       1.196   2.883  20.214  0.00  0.00    +0.000 C 
BRANCH  19  21
ATOM     20  O   UNL     1       0.216   1.897  18.246  0.00  0.00    +0.000 OA
ATOM     21  C   UNL     1       1.188   2.470  18.753  0.00  0.00    +0.000 C 
BRANCH  21  22
ATOM     22  C   UNL     1       2.444   2.803  17.964  0.00  0.00    +0.000 C 
ATOM     23  F   UNL     1       3.489   3.156  18.768  0.00  0.00    +0.000 F 
ATOM     24  F   UNL     1       2.881   1.755  17.217  0.00  0.00    +0.000 F 
ATOM     25  F   UNL     1       2.259   3.845  17.109  0.00  0.00    +0.000 F 
ENDBRANCH  21  22
ENDBRANCH  19  21
ENDBRANCH  18  19
ENDBRANCH  17  18
ENDBRANCH  16  17
ENDBRANCH  15  16
ENDBRANCH  14  15
ENDBRANCH   1  14
TORSDOF 10
ENDMDL
MODEL 3
REMARK VINA RESULT:      -7.2      4.313      8.144
REMARK  Name = 
REMARK  10 active torsions:
REMARK  status: ('A' for Active; 'I' for Inactive)
REMARK    1  A    between atoms: C_2  and  C_3
REMARK    2  A    between atoms: C_2  and  C_22
REMARK    3  A    between atoms: C_3  and  C_4
REMARK    4  A    between atoms: C_4  and  C_5
REMARK    5  A    between atoms: C_5  and  C_6
REMARK    6  A    between atoms: C_6  and  C_7
REMARK    7  A    between atoms: C_7  and  C_8
REMARK    8  A    between atoms: C_8  and  O_9
REMARK    9  A    between atoms: O_9  and  C_10
REMARK   10  A    between atoms: C_14  and  C_15
REMARK                            x       y       z     vdW  Elec       q    Type
REMARK                         _______ _______ _______ _____ _____    ______ ____
ROOT
ATOM      1  O   UNL     1       3.155   5.901  19.746  0.00  0.00    +0.000 OA
ENDROOT
BRANCH   1   2
ATOM      2  C   UNL     1       2.469   7.054  19.484  0.00  0.00    +0.000 A 
ATOM      3  C   UNL     1       2.614   7.534  18.184  0.00  0.00    +0.000 A 
ATOM      4  C   UNL     1       1.992   8.716  17.800  0.00  0.00    +0.000 A 
ATOM      5  C   UNL     1       1.241   9.440  18.728  0.00  0.00    +0.000 A 
ATOM      6  C   UNL     1       1.080   8.994  20.052  0.00  0.00    +0.000 A 
ATOM      7  C   UNL     1       1.685   7.767  20.397  0.00  0.00    +0.000 A 
BRANCH   6   8
ATOM      8  C   UNL     1       0.368   9.817  21.061  0.00  0.00    +0.000 A 
ATOM      9  C   UNL     1       0.083   9.335  22.351  0.00  0.00    +0.000 A 
ATOM     10  C   UNL     1      -0.682  10.076  23.257  0.00  0.00    +0.000 A 
ATOM     11  C   UNL     1      -1.161  11.333  22.903  0.00  0.00    +0.000 A 
ATOM     12  C   UNL     1      -0.865  11.854  21.649  0.00  0.00    +0.000 A 
ATOM     13  C   UNL     1      -0.116  11.103  20.741  0.00  0.00    +0.000 A 
ENDBRANCH   6   8
ENDBRANCH   1   2
BRANCH   1  14
ATOM     14  C   UNL     1       2.633   4.698  19.189  0.00  0.00    +0.000 C 
BRANCH  14  15
ATOM     15  C   UNL     1       3.601   3.570  19.529  0.00  0.00    +0.000 C 
BRANCH  15  16
ATOM     16  C   UNL     1       4.435   3.179  18.316  0.00  0.00    +0.000 C 
BRANCH  16  17
ATOM     17  C   UNL     1       3.751   3.581  17.010  0.00  0.00    +0.000 C 
BRANCH  17  18
ATOM     18  C   UNL     1       4.638   4.542  16.221  0.00  0.00    +0.000 C 
BRANCH  18  19
ATOM     19  C   UNL     1       6.123   4.265  16.441  0.00  0.00    +0.000 C 
BRANCH  19  21
ATOM     20  O   UNL     1       7.698   5.783  15.431  0.00  0.00    +0.000 OA
ATOM     21  C   UNL     1       6.952   5.536  16.386  0.00  0.00    +0.000 C 
BRANCH  21  22
ATOM     22  C   UNL     1       6.805   6.473  17.574  0.00  0.00    +0.000 C 
ATOM     23  F   UNL     1       6.466   5.816  18.720  0.00  0.00    +0.000 F 
ATOM     24  F   UNL     1       7.954   7.144  17.850  0.00  0.00    +0.000 F 
ATOM     25  F   UNL     1       5.839   7.412  17.378  0.00  0.00    +0.000 F 
ENDBRANCH  21  22
ENDBRANCH  19  21
ENDBRANCH  18  19
ENDBRANCH  17  18
ENDBRANCH  16  17
ENDBRANCH  15  16
ENDBRANCH  14  15
ENDBRANCH   1  14
TORSDOF 10
ENDMDL
MODEL 4
REMARK VINA RESULT:      -7.2      4.359      7.981
REMARK  Name = 
REMARK  10 active torsions:
REMARK  status: ('A' for Active; 'I' for Inactive)
REMARK    1  A    between atoms: C_2  and  C_3
REMARK    2  A    between atoms: C_2  and  C_22
REMARK    3  A    between atoms: C_3  and  C_4
REMARK    4  A    between atoms: C_4  and  C_5
REMARK    5  A    between atoms: C_5  and  C_6
REMARK    6  A    between atoms: C_6  and  C_7
REMARK    7  A    between atoms: C_7  and  C_8
REMARK    8  A    between atoms: C_8  and  O_9
REMARK    9  A    between atoms: O_9  and  C_10
REMARK   10  A    between atoms: C_14  and  C_15
REMARK                            x       y       z     vdW  Elec       q    Type
REMARK                         _______ _______ _______ _____ _____    ______ ____
ROOT
ATOM      1  O   UNL     1       2.999   5.786  19.932  0.00  0.00    +0.000 OA
ENDROOT
BRANCH   1   2
ATOM      2  C   UNL     1       2.378   6.966  19.635  0.00  0.00    +0.000 A 
ATOM      3  C   UNL     1       2.608   7.434  18.342  0.00  0.00    +0.000 A 
ATOM      4  C   UNL     1       2.059   8.640  17.925  0.00  0.00    +0.000 A 
ATOM      5  C   UNL     1       1.296   9.400  18.813  0.00  0.00    +0.000 A 
ATOM      6  C   UNL     1       1.049   8.968  20.129  0.00  0.00    +0.000 A 
ATOM      7  C   UNL     1       1.582   7.716  20.506  0.00  0.00    +0.000 A 
BRANCH   6   8
ATOM      8  C   UNL     1       0.324   9.826  21.099  0.00  0.00    +0.000 A 
ATOM      9  C   UNL     1      -0.009   9.375  22.388  0.00  0.00    +0.000 A 
ATOM     10  C   UNL     1      -0.786  10.150  23.256  0.00  0.00    +0.000 A 
ATOM     11  C   UNL     1      -1.226  11.409  22.864  0.00  0.00    +0.000 A 
ATOM     12  C   UNL     1      -0.881  11.899  21.609  0.00  0.00    +0.000 A 
ATOM     13  C   UNL     1      -0.121  11.114  20.739  0.00  0.00    +0.000 A 
ENDBRANCH   6   8
ENDBRANCH   1   2
BRANCH   1  14
ATOM     14  C   UNL     1       2.175   4.721  20.400  0.00  0.00    +0.000 C 
BRANCH  14  15
ATOM     15  C   UNL     1       1.520   4.072  19.186  0.00  0.00    +0.000 C 
BRANCH  15  16
ATOM     16  C   UNL     1       2.113   2.696  18.913  0.00  0.00    +0.000 C 
BRANCH  16  17
ATOM     17  C   UNL     1       2.728   2.615  17.517  0.00  0.00    +0.000 C 
BRANCH  17  18
ATOM     18  C   UNL     1       3.364   3.952  17.140  0.00  0.00    +0.000 C 
BRANCH  18  19
ATOM     19  C   UNL     1       4.832   3.800  16.750  0.00  0.00    +0.000 C 
BRANCH  19  21
ATOM     20  O   UNL     1       5.509   3.863  19.061  0.00  0.00    +0.000 OA
ATOM     21  C   UNL     1       5.763   4.171  17.891  0.00  0.00    +0.000 C 
BRANCH  21  22
ATOM     22  C   UNL     1       7.014   4.940  17.500  0.00  0.00    +0.000 C 
ATOM     23  F   UNL     1       7.050   6.191  18.043  0.00  0.00    +0.000 F 
ATOM     24  F   UNL     1       8.153   4.319  17.908  0.00  0.00    +0.000 F 
ATOM     25  F   UNL     1       7.120   5.111  16.154  0.00  0.00    +0.000 F 
ENDBRANCH  21  22
ENDBRANCH  19  21
ENDBRANCH  18  19
ENDBRANCH  17  18
ENDBRANCH  16  17
ENDBRANCH  15  16
ENDBRANCH  14  15
ENDBRANCH   1  14
TORSDOF 10
ENDMDL
MODEL 5
REMARK VINA RESULT:      -7.2      1.752      2.063
REMARK  Name = 
REMARK  10 active torsions:
REMARK  status: ('A' for Active; 'I' for Inactive)
REMARK    1  A    between atoms: C_2  and  C_3
REMARK    2  A    between atoms: C_2  and  C_22
REMARK    3  A    between atoms: C_3  and  C_4
REMARK    4  A    between atoms: C_4  and  C_5
REMARK    5  A    between atoms: C_5  and  C_6
REMARK    6  A    between atoms: C_6  and  C_7
REMARK    7  A    between atoms: C_7  and  C_8
REMARK    8  A    between atoms: C_8  and  O_9
REMARK    9  A    between atoms: O_9  and  C_10
REMARK   10  A    between atoms: C_14  and  C_15
REMARK                            x       y       z     vdW  Elec       q    Type
REMARK                         _______ _______ _______ _____ _____    ______ ____
ROOT
ATOM      1  O   UNL     1       4.569   6.932  18.416  0.00  0.00    +0.000 OA
ENDROOT
BRANCH   1   2
ATOM      2  C   UNL     1       5.520   6.125  17.857  0.00  0.00    +0.000 A 
ATOM      3  C   UNL     1       6.539   5.741  18.726  0.00  0.00    +0.000 A 
ATOM      4  C   UNL     1       7.584   4.945  18.273  0.00  0.00    +0.000 A 
ATOM      5  C   UNL     1       7.629   4.553  16.934  0.00  0.00    +0.000 A 
ATOM      6  C   UNL     1       6.625   4.929  16.023  0.00  0.00    +0.000 A 
ATOM      7  C   UNL     1       5.553   5.697  16.526  0.00  0.00    +0.000 A 
BRANCH   6   8
ATOM      8  C   UNL     1       6.730   4.596  14.581  0.00  0.00    +0.000 A 
ATOM      9  C   UNL     1       7.674   5.212  13.739  0.00  0.00    +0.000 A 
ATOM     10  C   UNL     1       7.693   4.971  12.362  0.00  0.00    +0.000 A 
ATOM     11  C   UNL     1       6.784   4.086  11.794  0.00  0.00    +0.000 A 
ATOM     12  C   UNL     1       5.862   3.432  12.604  0.00  0.00    +0.000 A 
ATOM     13  C   UNL     1       5.834   3.690  13.977  0.00  0.00    +0.000 A 
ENDBRANCH   6   8
ENDBRANCH   1   2
BRANCH   1  14
ATOM     14  C   UNL     1       3.468   7.302  17.589  0.00  0.00    +0.000 C 
BRANCH  14  15
ATOM     15  C   UNL     1       2.196   6.780  18.247  0.00  0.00    +0.000 C 
BRANCH  15  16
ATOM     16  C   UNL     1       2.270   6.907  19.763  0.00  0.00    +0.000 C 
BRANCH  16  17
ATOM     17  C   UNL     1       2.028   5.565  20.452  0.00  0.00    +0.000 C 
BRANCH  17  18
ATOM     18  C   UNL     1       1.694   4.491  19.419  0.00  0.00    +0.000 C 
BRANCH  18  19
ATOM     19  C   UNL     1       1.508   3.117  20.057  0.00  0.00    +0.000 C 
BRANCH  19  21
ATOM     20  O   UNL     1       2.784   2.582  22.029  0.00  0.00    +0.000 OA
ATOM     21  C   UNL     1       2.754   2.661  20.795  0.00  0.00    +0.000 C 
BRANCH  21  22
ATOM     22  C   UNL     1       3.949   2.313  19.923  0.00  0.00    +0.000 C 
ATOM     23  F   UNL     1       3.592   1.648  18.786  0.00  0.00    +0.000 F 
ATOM     24  F   UNL     1       4.632   3.415  19.517  0.00  0.00    +0.000 F 
ATOM     25  F   UNL     1       4.843   1.511  20.563  0.00  0.00    +0.000 F 
ENDBRANCH  21  22
ENDBRANCH  19  21
ENDBRANCH  18  19
ENDBRANCH  17  18
ENDBRANCH  16  17
ENDBRANCH  15  16
ENDBRANCH  14  15
ENDBRANCH   1  14
TORSDOF 10
ENDMDL
MODEL 6
REMARK VINA RESULT:      -7.2      3.556      7.215
REMARK  Name = 
REMARK  10 active torsions:
REMARK  status: ('A' for Active; 'I' for Inactive)
REMARK    1  A    between atoms: C_2  and  C_3
REMARK    2  A    between atoms: C_2  and  C_22
REMARK    3  A    between atoms: C_3  and  C_4
REMARK    4  A    between atoms: C_4  and  C_5
REMARK    5  A    between atoms: C_5  and  C_6
REMARK    6  A    between atoms: C_6  and  C_7
REMARK    7  A    between atoms: C_7  and  C_8
REMARK    8  A    between atoms: C_8  and  O_9
REMARK    9  A    between atoms: O_9  and  C_10
REMARK   10  A    between atoms: C_14  and  C_15
REMARK                            x       y       z     vdW  Elec       q    Type
REMARK                         _______ _______ _______ _____ _____    ______ ____
ROOT
ATOM      1  O   UNL     1       3.152   6.084  18.961  0.00  0.00    +0.000 OA
ENDROOT
BRANCH   1   2
ATOM      2  C   UNL     1       2.502   7.286  18.935  0.00  0.00    +0.000 A 
ATOM      3  C   UNL     1       2.755   8.058  17.803  0.00  0.00    +0.000 A 
ATOM      4  C   UNL     1       2.178   9.316  17.669  0.00  0.00    +0.000 A 
ATOM      5  C   UNL     1       1.364   9.819  18.685  0.00  0.00    +0.000 A 
ATOM      6  C   UNL     1       1.093   9.074  19.847  0.00  0.00    +0.000 A 
ATOM      7  C   UNL     1       1.655   7.782  19.931  0.00  0.00    +0.000 A 
BRANCH   6   8
ATOM      8  C   UNL     1       0.311   9.652  20.968  0.00  0.00    +0.000 A 
ATOM      9  C   UNL     1      -0.402  10.858  20.836  0.00  0.00    +0.000 A 
ATOM     10  C   UNL     1      -1.047  11.450  21.927  0.00  0.00    +0.000 A 
ATOM     11  C   UNL     1      -1.016  10.837  23.174  0.00  0.00    +0.000 A 
ATOM     12  C   UNL     1      -0.351   9.625  23.329  0.00  0.00    +0.000 A 
ATOM     13  C   UNL     1       0.306   9.047  22.241  0.00  0.00    +0.000 A 
ENDBRANCH   6   8
ENDBRANCH   1   2
BRANCH   1  14
ATOM     14  C   UNL     1       4.495   6.086  19.440  0.00  0.00    +0.000 C 
BRANCH  14  15
ATOM     15  C   UNL     1       5.253   4.987  18.704  0.00  0.00    +0.000 C 
BRANCH  15  16
ATOM     16  C   UNL     1       4.746   4.831  17.276  0.00  0.00    +0.000 C 
BRANCH  16  17
ATOM     17  C   UNL     1       4.262   3.408  17.003  0.00  0.00    +0.000 C 
BRANCH  17  18
ATOM     18  C   UNL     1       2.772   3.285  17.313  0.00  0.00    +0.000 C 
BRANCH  18  19
ATOM     19  C   UNL     1       2.490   2.219  18.369  0.00  0.00    +0.000 C 
BRANCH  19  21
ATOM     20  O   UNL     1       0.113   2.142  18.751  0.00  0.00    +0.000 OA
ATOM     21  C   UNL     1       1.222   2.516  19.150  0.00  0.00    +0.000 C 
BRANCH  21  22
ATOM     22  C   UNL     1       1.407   3.296  20.440  0.00  0.00    +0.000 C 
ATOM     23  F   UNL     1       0.871   2.658  21.521  0.00  0.00    +0.000 F 
ATOM     24  F   UNL     1       2.718   3.504  20.737  0.00  0.00    +0.000 F 
ATOM     25  F   UNL     1       0.816   4.521  20.395  0.00  0.00    +0.000 F 
ENDBRANCH  21  22
ENDBRANCH  19  21
ENDBRANCH  18  19
ENDBRANCH  17  18
ENDBRANCH  16  17
ENDBRANCH  15  16
ENDBRANCH  14  15
ENDBRANCH   1  14
TORSDOF 10
ENDMDL
MODEL 7
REMARK VINA RESULT:      -7.1      4.127      7.372
REMARK  Name = 
REMARK  10 active torsions:
REMARK  status: ('A' for Active; 'I' for Inactive)
REMARK    1  A    between atoms: C_2  and  C_3
REMARK    2  A    between atoms: C_2  and  C_22
REMARK    3  A    between atoms: C_3  and  C_4
REMARK    4  A    between atoms: C_4  and  C_5
REMARK    5  A    between atoms: C_5  and  C_6
REMARK    6  A    between atoms: C_6  and  C_7
REMARK    7  A    between atoms: C_7  and  C_8
REMARK    8  A    between atoms: C_8  and  O_9
REMARK    9  A    between atoms: O_9  and  C_10
REMARK   10  A    between atoms: C_14  and  C_15
REMARK                            x       y       z     vdW  Elec       q    Type
REMARK                         _______ _______ _______ _____ _____    ______ ____
ROOT
ATOM      1  O   UNL     1       6.259   4.291  19.273  0.00  0.00    +0.000 OA
ENDROOT
BRANCH   1   2
ATOM      2  C   UNL     1       4.982   4.573  18.876  0.00  0.00    +0.000 A 
ATOM      3  C   UNL     1       4.391   3.593  18.082  0.00  0.00    +0.000 A 
ATOM      4  C   UNL     1       3.105   3.774  17.587  0.00  0.00    +0.000 A 
ATOM      5  C   UNL     1       2.413   4.955  17.863  0.00  0.00    +0.000 A 
ATOM      6  C   UNL     1       2.980   5.972  18.652  0.00  0.00    +0.000 A 
ATOM      7  C   UNL     1       4.268   5.737  19.178  0.00  0.00    +0.000 A 
BRANCH   6   8
ATOM      8  C   UNL     1       2.283   7.266  18.858  0.00  0.00    +0.000 A 
ATOM      9  C   UNL     1       2.157   8.217  17.830  0.00  0.00    +0.000 A 
ATOM     10  C   UNL     1       1.594   9.476  18.063  0.00  0.00    +0.000 A 
ATOM     11  C   UNL     1       1.118   9.806  19.326  0.00  0.00    +0.000 A 
ATOM     12  C   UNL     1       1.193   8.873  20.355  0.00  0.00    +0.000 A 
ATOM     13  C   UNL     1       1.773   7.624  20.123  0.00  0.00    +0.000 A 
ENDBRANCH   6   8
ENDBRANCH   1   2
BRANCH   1  14
ATOM     14  C   UNL     1       7.298   4.527  18.326  0.00  0.00    +0.000 C 
BRANCH  14  15
ATOM     15  C   UNL     1       7.529   6.032  18.255  0.00  0.00    +0.000 C 
BRANCH  15  16
ATOM     16  C   UNL     1       7.093   6.592  16.907  0.00  0.00    +0.000 C 
BRANCH  16  17
ATOM     17  C   UNL     1       7.132   5.523  15.816  0.00  0.00    +0.000 C 
BRANCH  17  18
ATOM     18  C   UNL     1       5.752   5.364  15.181  0.00  0.00    +0.000 C 
BRANCH  18  19
ATOM     19  C   UNL     1       5.566   3.988  14.546  0.00  0.00    +0.000 C 
BRANCH  19  21
ATOM     20  O   UNL     1       7.249   4.385  12.869  0.00  0.00    +0.000 OA
ATOM     21  C   UNL     1       6.130   3.933  13.138  0.00  0.00    +0.000 C 
BRANCH  21  22
ATOM     22  C   UNL     1       5.234   3.292  12.091  0.00  0.00    +0.000 C 
ATOM     23  F   UNL     1       5.238   3.975  10.909  0.00  0.00    +0.000 F 
ATOM     24  F   UNL     1       5.610   2.021  11.793  0.00  0.00    +0.000 F 
ATOM     25  F   UNL     1       3.933   3.234  12.487  0.00  0.00    +0.000 F 
ENDBRANCH  21  22
ENDBRANCH  19  21
ENDBRANCH  18  19
ENDBRANCH  17  18
ENDBRANCH  16  17
ENDBRANCH  15  16
ENDBRANCH  14  15
ENDBRANCH   1  14
TORSDOF 10
ENDMDL
MODEL 8
REMARK VINA RESULT:      -7.1      2.011      3.473
REMARK  Name = 
REMARK  10 active torsions:
REMARK  status: ('A' for Active; 'I' for Inactive)
REMARK    1  A    between atoms: C_2  and  C_3
REMARK    2  A    between atoms: C_2  and  C_22
REMARK    3  A    between atoms: C_3  and  C_4
REMARK    4  A    between atoms: C_4  and  C_5
REMARK    5  A    between atoms: C_5  and  C_6
REMARK    6  A    between atoms: C_6  and  C_7
REMARK    7  A    between atoms: C_7  and  C_8
REMARK    8  A    between atoms: C_8  and  O_9
REMARK    9  A    between atoms: O_9  and  C_10
REMARK   10  A    between atoms: C_14  and  C_15
REMARK                            x       y       z     vdW  Elec       q    Type
REMARK                         _______ _______ _______ _____ _____    ______ ____
ROOT
ATOM      1  O   UNL     1       4.013   3.159  18.621  0.00  0.00    +0.000 OA
ENDROOT
BRANCH   1   2
ATOM      2  C   UNL     1       5.009   3.830  17.968  0.00  0.00    +0.000 A 
ATOM      3  C   UNL     1       5.732   4.714  18.766  0.00  0.00    +0.000 A 
ATOM      4  C   UNL     1       6.752   5.481  18.215  0.00  0.00    +0.000 A 
ATOM      5  C   UNL     1       7.036   5.385  16.852  0.00  0.00    +0.000 A 
ATOM      6  C   UNL     1       6.322   4.511  16.012  0.00  0.00    +0.000 A 
ATOM      7  C   UNL     1       5.325   3.712  16.611  0.00  0.00    +0.000 A 
BRANCH   6   8
ATOM      8  C   UNL     1       6.558   4.487  14.547  0.00  0.00    +0.000 A 
ATOM      9  C   UNL     1       5.832   3.641  13.689  0.00  0.00    +0.000 A 
ATOM     10  C   UNL     1       6.135   3.547  12.326  0.00  0.00    +0.000 A 
ATOM     11  C   UNL     1       7.157   4.317  11.783  0.00  0.00    +0.000 A 
ATOM     12  C   UNL     1       7.868   5.192  12.597  0.00  0.00    +0.000 A 
ATOM     13  C   UNL     1       7.574   5.269  13.961  0.00  0.00    +0.000 A 
ENDBRANCH   6   8
ENDBRANCH   1   2
BRANCH   1  14
ATOM     14  C   UNL     1       3.109   2.404  17.818  0.00  0.00    +0.000 C 
BRANCH  14  15
ATOM     15  C   UNL     1       2.043   1.822  18.740  0.00  0.00    +0.000 C 
BRANCH  15  16
ATOM     16  C   UNL     1       1.373   2.915  19.563  0.00  0.00    +0.000 C 
BRANCH  16  17
ATOM     17  C   UNL     1       2.083   3.129  20.899  0.00  0.00    +0.000 C 
BRANCH  17  18
ATOM     18  C   UNL     1       2.170   4.619  21.220  0.00  0.00    +0.000 C 
BRANCH  18  19
ATOM     19  C   UNL     1       1.296   5.459  20.292  0.00  0.00    +0.000 C 
BRANCH  19  21
ATOM     20  O   UNL     1       2.190   7.668  20.648  0.00  0.00    +0.000 OA
ATOM     21  C   UNL     1       1.992   6.736  19.858  0.00  0.00    +0.000 C 
BRANCH  21  22
ATOM     22  C   UNL     1       2.423   6.793  18.402  0.00  0.00    +0.000 C 
ATOM     23  F   UNL     1       1.749   7.743  17.692  0.00  0.00    +0.000 F 
ATOM     24  F   UNL     1       3.744   7.085  18.263  0.00  0.00    +0.000 F 
ATOM     25  F   UNL     1       2.211   5.616  17.752  0.00  0.00    +0.000 F 
ENDBRANCH  21  22
ENDBRANCH  19  21
ENDBRANCH  18  19
ENDBRANCH  17  18
ENDBRANCH  16  17
ENDBRANCH  15  16
ENDBRANCH  14  15
ENDBRANCH   1  14
TORSDOF 10
ENDMDL
MODEL 9
REMARK VINA RESULT:      -7.0      3.337      6.993
REMARK  Name = 
REMARK  10 active torsions:
REMARK  status: ('A' for Active; 'I' for Inactive)
REMARK    1  A    between atoms: C_2  and  C_3
REMARK    2  A    between atoms: C_2  and  C_22
REMARK    3  A    between atoms: C_3  and  C_4
REMARK    4  A    between atoms: C_4  and  C_5
REMARK    5  A    between atoms: C_5  and  C_6
REMARK    6  A    between atoms: C_6  and  C_7
REMARK    7  A    between atoms: C_7  and  C_8
REMARK    8  A    between atoms: C_8  and  O_9
REMARK    9  A    between atoms: O_9  and  C_10
REMARK   10  A    between atoms: C_14  and  C_15
REMARK                            x       y       z     vdW  Elec       q    Type
REMARK                         _______ _______ _______ _____ _____    ______ ____
ROOT
ATOM      1  O   UNL     1       3.767   5.753  19.315  0.00  0.00    +0.000 OA
ENDROOT
BRANCH   1   2
ATOM      2  C   UNL     1       2.980   6.856  19.138  0.00  0.00    +0.000 A 
ATOM      3  C   UNL     1       3.042   7.415  17.863  0.00  0.00    +0.000 A 
ATOM      4  C   UNL     1       2.313   8.559  17.563  0.00  0.00    +0.000 A 
ATOM      5  C   UNL     1       1.537   9.168  18.551  0.00  0.00    +0.000 A 
ATOM      6  C   UNL     1       1.457   8.640  19.852  0.00  0.00    +0.000 A 
ATOM      7  C   UNL     1       2.171   7.451  20.111  0.00  0.00    +0.000 A 
BRANCH   6   8
ATOM      8  C   UNL     1       0.713   9.346  20.925  0.00  0.00    +0.000 A 
ATOM      9  C   UNL     1       0.754   8.921  22.265  0.00  0.00    +0.000 A 
ATOM     10  C   UNL     1      -0.035   9.526  23.249  0.00  0.00    +0.000 A 
ATOM     11  C   UNL     1      -0.866  10.591  22.921  0.00  0.00    +0.000 A 
ATOM     12  C   UNL     1      -0.900  11.061  21.613  0.00  0.00    +0.000 A 
ATOM     13  C   UNL     1      -0.125  10.441  20.630  0.00  0.00    +0.000 A 
ENDBRANCH   6   8
ENDBRANCH   1   2
BRANCH   1  14
ATOM     14  C   UNL     1       5.164   5.910  19.079  0.00  0.00    +0.000 C 
BRANCH  14  15
ATOM     15  C   UNL     1       5.688   4.601  18.498  0.00  0.00    +0.000 C 
BRANCH  15  16
ATOM     16  C   UNL     1       4.561   3.787  17.877  0.00  0.00    +0.000 C 
BRANCH  16  17
ATOM     17  C   UNL     1       4.228   2.555  18.718  0.00  0.00    +0.000 C 
BRANCH  17  18
ATOM     18  C   UNL     1       3.072   1.780  18.089  0.00  0.00    +0.000 C 
BRANCH  18  19
ATOM     19  C   UNL     1       1.809   1.835  18.945  0.00  0.00    +0.000 C 
BRANCH  19  21
ATOM     20  O   UNL     1       1.078   4.012  18.216  0.00  0.00    +0.000 OA
ATOM     21  C   UNL     1       1.334   3.261  19.164  0.00  0.00    +0.000 C 
BRANCH  21  22
ATOM     22  C   UNL     1       1.199   3.697  20.613  0.00  0.00    +0.000 C 
ATOM     23  F   UNL     1       0.624   2.739  21.397  0.00  0.00    +0.000 F 
ATOM     24  F   UNL     1       2.400   3.980  21.184  0.00  0.00    +0.000 F 
ATOM     25  F   UNL     1       0.426   4.809  20.751  0.00  0.00    +0.000 F 
ENDBRANCH  21  22
ENDBRANCH  19  21
ENDBRANCH  18  19
ENDBRANCH  17  18
ENDBRANCH  16  17
ENDBRANCH  15  16
ENDBRANCH  14  15
ENDBRANCH   1  14
TORSDOF 10
ENDMDL
