MODEL 1
REMARK VINA RESULT:      -7.7      0.000      0.000
REMARK  Name = 
REMARK  12 active torsions:
REMARK  status: ('A' for Active; 'I' for Inactive)
REMARK    1  A    between atoms: C_1  and  N_2
REMARK    2  A    between atoms: C_4  and  N_5
REMARK    3  A    between atoms: C_6  and  C_8
REMARK    4  A    between atoms: C_8  and  N_9
REMARK    5  A    between atoms: C_8  and  C_10
REMARK    6  A    between atoms: C_10  and  C_11
REMARK    7  A    between atoms: C_11  and  S_12
REMARK    8  A    between atoms: S_12  and  C_13
REMARK    9  A    between atoms: C_13  and  C_14
REMARK   10  A    between atoms: C_16  and  N_17
REMARK   11  A    between atoms: C_27  and  O_28
REMARK   12  A    between atoms: C_29  and  O_30
REMARK                            x       y       z     vdW  Elec       q    Type
REMARK                         _______ _______ _______ _____ _____    ______ ____
ROOT
ATOM      1  C   UNL     1       1.402   3.712  19.396  0.00  0.00    +0.000 C 
ATOM      2  O   UNL     1       2.202   4.304  18.351  0.00  0.00    +0.000 OA
ATOM      3  C   UNL     1       3.371   3.492  18.132  0.00  0.00    +0.000 C 
ATOM      4  C   UNL     1       3.448   2.425  19.219  0.00  0.00    +0.000 C 
ATOM      5  C   UNL     1       2.014   2.337  19.707  0.00  0.00    +0.000 C 
ENDROOT
BRANCH   3   6
ATOM      6  N   UNL     1       4.542   4.345  18.079  0.00  0.00    +0.000 N 
ATOM      7  C   UNL     1       5.056   5.047  19.141  0.00  0.00    +0.000 A 
ATOM      8  N   UNL     1       6.064   5.812  18.783  0.00  0.00    +0.000 NA
ATOM      9  C   UNL     1       6.215   5.587  17.429  0.00  0.00    +0.000 A 
ATOM     10  C   UNL     1       7.085   6.130  16.470  0.00  0.00    +0.000 A 
ATOM     11  N   UNL     1       8.044   7.090  16.771  0.00  0.00    +0.000 N 
ATOM     12  N   UNL     1       6.963   5.731  15.181  0.00  0.00    +0.000 NA
ATOM     13  C   UNL     1       6.014   4.820  14.884  0.00  0.00    +0.000 A 
ATOM     14  N   UNL     1       5.117   4.247  15.710  0.00  0.00    +0.000 NA
ATOM     15  C   UNL     1       5.280   4.672  16.975  0.00  0.00    +0.000 A 
ATOM     16  H   UNL     1       7.834   7.591  17.629  0.00  0.00    +0.000 HD
ATOM     17  H   UNL     1       8.281   7.643  15.960  0.00  0.00    +0.000 HD
ENDBRANCH   3   6
BRANCH   4  18
ATOM     18  O   UNL     1       3.900   1.171  18.692  0.00  0.00    +0.000 OA
ATOM     19  H   UNL     1       3.200   0.882  18.064  0.00  0.00    +0.000 HD
ENDBRANCH   4  18
BRANCH   5  20
ATOM     20  O   UNL     1       1.382   1.281  18.950  0.00  0.00    +0.000 OA
ATOM     21  H   UNL     1       1.664   1.341  18.019  0.00  0.00    +0.000 HD
ENDBRANCH   5  20
BRANCH   1  22
ATOM     22  C   UNL     1       1.280   4.707  20.563  0.00  0.00    +0.000 C 
BRANCH  22  23
ATOM     23  S   UNL     1       1.938   6.327  20.072  0.00  0.00    +0.000 S 
BRANCH  23  24
ATOM     24  C   UNL     1       1.078   7.433  21.249  0.00  0.00    +0.000 C 
BRANCH  24  25
ATOM     25  C   UNL     1       1.500   8.846  20.833  0.00  0.00    +0.000 C 
BRANCH  25  26
ATOM     26  C   UNL     1       0.609   9.983  21.341  0.00  0.00    +0.000 C 
BRANCH  26  28
ATOM     27  N   UNL     1      -0.961   9.908  19.438  0.00  0.00    +0.000 N 
ATOM     28  C   UNL     1      -0.062  10.704  20.134  0.00  0.00    +0.000 C 
ATOM     29  O   UNL     1       0.220  11.872  19.864  0.00  0.00    +0.000 OA
ATOM     30  H   UNL     1      -1.087   8.945  19.719  0.00  0.00    +0.000 HD
BRANCH  27  34
ATOM     31  C   UNL     1      -3.066  10.551  15.043  0.00  0.00    +0.000 C 
ATOM     32  N   UNL     1      -2.712  10.637  16.438  0.00  0.00    +0.000 N 
ATOM     33  C   UNL     1      -1.759   9.907  17.085  0.00  0.00    +0.000 A 
ATOM     34  C   UNL     1      -1.755  10.337  18.389  0.00  0.00    +0.000 A 
ATOM     35  C   UNL     1      -2.753  11.338  18.421  0.00  0.00    +0.000 A 
ATOM     36  N   UNL     1      -3.339  11.521  17.237  0.00  0.00    +0.000 NA
ENDBRANCH  27  34
ENDBRANCH  26  28
BRANCH  26  37
ATOM     37  N   UNL     1      -0.438   9.458  22.242  0.00  0.00    +0.000 NA
ATOM     38  H   UNL     1      -0.232   9.802  23.187  0.00  0.00    +0.000 HD
ATOM     39  H   UNL     1      -0.274   8.451  22.342  0.00  0.00    +0.000 HD
ENDBRANCH  26  37
ENDBRANCH  25  26
ENDBRANCH  24  25
ENDBRANCH  23  24
ENDBRANCH  22  23
ENDBRANCH   1  22
TORSDOF 11
ENDMDL
MODEL 2
REMARK VINA RESULT:      -7.5      3.914      8.120
REMARK  Name = 
REMARK  12 active torsions:
REMARK  status: ('A' for Active; 'I' for Inactive)
REMARK    1  A    between atoms: C_1  and  N_2
REMARK    2  A    between atoms: C_4  and  N_5
REMARK    3  A    between atoms: C_6  and  C_8
REMARK    4  A    between atoms: C_8  and  N_9
REMARK    5  A    between atoms: C_8  and  C_10
REMARK    6  A    between atoms: C_10  and  C_11
REMARK    7  A    between atoms: C_11  and  S_12
REMARK    8  A    between atoms: S_12  and  C_13
REMARK    9  A    between atoms: C_13  and  C_14
REMARK   10  A    between atoms: C_16  and  N_17
REMARK   11  A    between atoms: C_27  and  O_28
REMARK   12  A    between atoms: C_29  and  O_30
REMARK                            x       y       z     vdW  Elec       q    Type
REMARK                         _______ _______ _______ _____ _____    ______ ____
ROOT
ATOM      1  C   UNL     1       4.324   4.263  18.480  0.00  0.00    +0.000 C 
ATOM      2  O   UNL     1       4.289   5.625  18.955  0.00  0.00    +0.000 OA
ATOM      3  C   UNL     1       2.989   5.900  19.510  0.00  0.00    +0.000 C 
ATOM      4  C   UNL     1       2.059   4.731  19.205  0.00  0.00    +0.000 C 
ATOM      5  C   UNL     1       3.025   3.588  18.950  0.00  0.00    +0.000 C 
ENDROOT
BRANCH   3   6
ATOM      6  N   UNL     1       2.509   7.167  18.994  0.00  0.00    +0.000 N 
ATOM      7  C   UNL     1       2.813   7.684  17.759  0.00  0.00    +0.000 A 
ATOM      8  N   UNL     1       2.318   8.892  17.595  0.00  0.00    +0.000 NA
ATOM      9  C   UNL     1       1.653   9.164  18.775  0.00  0.00    +0.000 A 
ATOM     10  C   UNL     1       0.959  10.295  19.231  0.00  0.00    +0.000 A 
ATOM     11  N   UNL     1       0.813  11.453  18.476  0.00  0.00    +0.000 N 
ATOM     12  N   UNL     1       0.437  10.278  20.481  0.00  0.00    +0.000 NA
ATOM     13  C   UNL     1       0.603   9.165  21.224  0.00  0.00    +0.000 A 
ATOM     14  N   UNL     1       1.260   8.034  20.903  0.00  0.00    +0.000 NA
ATOM     15  C   UNL     1       1.757   8.100  19.655  0.00  0.00    +0.000 A 
ATOM     16  H   UNL     1       1.515  11.530  17.746  0.00  0.00    +0.000 HD
ATOM     17  H   UNL     1       0.667  12.262  19.062  0.00  0.00    +0.000 HD
ENDBRANCH   3   6
BRANCH   4  18
ATOM     18  O   UNL     1       1.192   4.447  20.310  0.00  0.00    +0.000 OA
ATOM     19  H   UNL     1       1.384   3.515  20.561  0.00  0.00    +0.000 HD
ENDBRANCH   4  18
BRANCH   5  20
ATOM     20  O   UNL     1       3.199   2.904  20.211  0.00  0.00    +0.000 OA
ATOM     21  H   UNL     1       3.020   3.525  20.940  0.00  0.00    +0.000 HD
ENDBRANCH   5  20
BRANCH   1  22
ATOM     22  C   UNL     1       4.606   4.264  16.967  0.00  0.00    +0.000 C 
BRANCH  22  23
ATOM     23  S   UNL     1       6.392   4.136  16.666  0.00  0.00    +0.000 S 
BRANCH  23  24
ATOM     24  C   UNL     1       6.767   5.808  16.021  0.00  0.00    +0.000 C 
BRANCH  24  25
ATOM     25  C   UNL     1       6.672   6.726  17.244  0.00  0.00    +0.000 C 
BRANCH  25  26
ATOM     26  C   UNL     1       8.005   7.104  17.896  0.00  0.00    +0.000 C 
BRANCH  26  28
ATOM     27  N   UNL     1       9.025   9.052  19.017  0.00  0.00    +0.000 N 
ATOM     28  C   UNL     1       8.074   8.649  18.091  0.00  0.00    +0.000 C 
ATOM     29  O   UNL     1       7.326   9.396  17.459  0.00  0.00    +0.000 OA
ATOM     30  H   UNL     1       9.558   8.351  19.514  0.00  0.00    +0.000 HD
BRANCH  27  34
ATOM     31  C   UNL     1       9.875  13.346  21.254  0.00  0.00    +0.000 C 
ATOM     32  N   UNL     1       9.738  12.292  20.280  0.00  0.00    +0.000 N 
ATOM     33  C   UNL     1       9.360  11.004  20.519  0.00  0.00    +0.000 A 
ATOM     34  C   UNL     1       9.350  10.367  19.303  0.00  0.00    +0.000 A 
ATOM     35  C   UNL     1       9.739  11.373  18.388  0.00  0.00    +0.000 A 
ATOM     36  N   UNL     1       9.980  12.543  18.980  0.00  0.00    +0.000 NA
ENDBRANCH  27  34
ENDBRANCH  26  28
BRANCH  26  37
ATOM     37  N   UNL     1       8.148   6.439  19.208  0.00  0.00    +0.000 NA
ATOM     38  H   UNL     1       8.615   7.099  19.839  0.00  0.00    +0.000 HD
ATOM     39  H   UNL     1       8.860   5.709  19.100  0.00  0.00    +0.000 HD
ENDBRANCH  26  37
ENDBRANCH  25  26
ENDBRANCH  24  25
ENDBRANCH  23  24
ENDBRANCH  22  23
ENDBRANCH   1  22
TORSDOF 11
ENDMDL
MODEL 3
REMARK VINA RESULT:      -7.4      2.417      3.254
REMARK  Name = 
REMARK  12 active torsions:
REMARK  status: ('A' for Active; 'I' for Inactive)
REMARK    1  A    between atoms: C_1  and  N_2
REMARK    2  A    between atoms: C_4  and  N_5
REMARK    3  A    between atoms: C_6  and  C_8
REMARK    4  A    between atoms: C_8  and  N_9
REMARK    5  A    between atoms: C_8  and  C_10
REMARK    6  A    between atoms: C_10  and  C_11
REMARK    7  A    between atoms: C_11  and  S_12
REMARK    8  A    between atoms: S_12  and  C_13
REMARK    9  A    between atoms: C_13  and  C_14
REMARK   10  A    between atoms: C_16  and  N_17
REMARK   11  A    between atoms: C_27  and  O_28
REMARK   12  A    between atoms: C_29  and  O_30
REMARK                            x       y       z     vdW  Elec       q    Type
REMARK                         _______ _______ _______ _____ _____    ______ ____
ROOT
ATOM      1  C   UNL     1       2.188   3.056  17.926  0.00  0.00    +0.000 C 
ATOM      2  O   UNL     1       3.144   3.600  16.992  0.00  0.00    +0.000 OA
ATOM      3  C   UNL     1       4.452   3.591  17.595  0.00  0.00    +0.000 C 
ATOM      4  C   UNL     1       4.321   3.212  19.067  0.00  0.00    +0.000 C 
ATOM      5  C   UNL     1       2.987   2.489  19.111  0.00  0.00    +0.000 C 
ENDROOT
BRANCH   3   6
ATOM      6  N   UNL     1       5.081   4.881  17.388  0.00  0.00    +0.000 N 
ATOM      7  C   UNL     1       4.734   5.781  16.411  0.00  0.00    +0.000 A 
ATOM      8  N   UNL     1       5.536   6.824  16.396  0.00  0.00    +0.000 NA
ATOM      9  C   UNL     1       6.436   6.592  17.417  0.00  0.00    +0.000 A 
ATOM     10  C   UNL     1       7.552   7.310  17.877  0.00  0.00    +0.000 A 
ATOM     11  N   UNL     1       7.970   8.509  17.311  0.00  0.00    +0.000 N 
ATOM     12  N   UNL     1       8.281   6.796  18.896  0.00  0.00    +0.000 NA
ATOM     13  C   UNL     1       7.890   5.619  19.427  0.00  0.00    +0.000 A 
ATOM     14  N   UNL     1       6.857   4.837  19.060  0.00  0.00    +0.000 NA
ATOM     15  C   UNL     1       6.165   5.391  18.049  0.00  0.00    +0.000 A 
ATOM     16  H   UNL     1       7.625   8.630  16.363  0.00  0.00    +0.000 HD
ATOM     17  H   UNL     1       8.955   8.667  17.466  0.00  0.00    +0.000 HD
ENDBRANCH   3   6
BRANCH   4  18
ATOM     18  O   UNL     1       5.393   2.358  19.486  0.00  0.00    +0.000 OA
ATOM     19  H   UNL     1       6.110   2.962  19.783  0.00  0.00    +0.000 HD
ENDBRANCH   4  18
BRANCH   5  20
ATOM     20  O   UNL     1       3.272   1.082  18.946  0.00  0.00    +0.000 OA
ATOM     21  H   UNL     1       2.625   0.695  18.328  0.00  0.00    +0.000 HD
ENDBRANCH   5  20
BRANCH   1  22
ATOM     22  C   UNL     1       1.127   4.125  18.242  0.00  0.00    +0.000 C 
BRANCH  22  23
ATOM     23  S   UNL     1       1.407   4.811  19.899  0.00  0.00    +0.000 S 
BRANCH  23  24
ATOM     24  C   UNL     1       2.630   6.124  19.541  0.00  0.00    +0.000 C 
BRANCH  24  25
ATOM     25  C   UNL     1       1.904   7.432  19.873  0.00  0.00    +0.000 C 
BRANCH  25  26
ATOM     26  C   UNL     1       1.668   8.379  18.695  0.00  0.00    +0.000 C 
BRANCH  26  28
ATOM     27  N   UNL     1       1.457  10.803  18.279  0.00  0.00    +0.000 N 
ATOM     28  C   UNL     1       1.310   9.800  19.226  0.00  0.00    +0.000 C 
ATOM     29  O   UNL     1       0.943   9.961  20.390  0.00  0.00    +0.000 OA
ATOM     30  H   UNL     1       1.809  10.568  17.361  0.00  0.00    +0.000 HD
BRANCH  27  34
ATOM     31  C   UNL     1       1.554  15.664  19.003  0.00  0.00    +0.000 C 
ATOM     32  N   UNL     1       1.136  14.302  18.787  0.00  0.00    +0.000 N 
ATOM     33  C   UNL     1       1.945  13.216  18.623  0.00  0.00    +0.000 A 
ATOM     34  C   UNL     1       1.116  12.132  18.468  0.00  0.00    +0.000 A 
ATOM     35  C   UNL     1      -0.184  12.680  18.558  0.00  0.00    +0.000 A 
ATOM     36  N   UNL     1      -0.176  14.000  18.748  0.00  0.00    +0.000 NA
ENDBRANCH  27  34
ENDBRANCH  26  28
BRANCH  26  37
ATOM     37  N   UNL     1       2.875   8.464  17.847  0.00  0.00    +0.000 NA
ATOM     38  H   UNL     1       2.666   9.108  17.076  0.00  0.00    +0.000 HD
ATOM     39  H   UNL     1       2.963   7.567  17.356  0.00  0.00    +0.000 HD
ENDBRANCH  26  37
ENDBRANCH  25  26
ENDBRANCH  24  25
ENDBRANCH  23  24
ENDBRANCH  22  23
ENDBRANCH   1  22
TORSDOF 11
ENDMDL
MODEL 4
REMARK VINA RESULT:      -7.4      2.303      3.348
REMARK  Name = 
REMARK  12 active torsions:
REMARK  status: ('A' for Active; 'I' for Inactive)
REMARK    1  A    between atoms: C_1  and  N_2
REMARK    2  A    between atoms: C_4  and  N_5
REMARK    3  A    between atoms: C_6  and  C_8
REMARK    4  A    between atoms: C_8  and  N_9
REMARK    5  A    between atoms: C_8  and  C_10
REMARK    6  A    between atoms: C_10  and  C_11
REMARK    7  A    between atoms: C_11  and  S_12
REMARK    8  A    between atoms: S_12  and  C_13
REMARK    9  A    between atoms: C_13  and  C_14
REMARK   10  A    between atoms: C_16  and  N_17
REMARK   11  A    between atoms: C_27  and  O_28
REMARK   12  A    between atoms: C_29  and  O_30
REMARK                            x       y       z     vdW  Elec       q    Type
REMARK                         _______ _______ _______ _____ _____    ______ ____
ROOT
ATOM      1  C   UNL     1       1.355   3.637  19.383  0.00  0.00    +0.000 C 
ATOM      2  O   UNL     1       2.168   4.279  18.379  0.00  0.00    +0.000 OA
ATOM      3  C   UNL     1       3.336   3.476  18.130  0.00  0.00    +0.000 C 
ATOM      4  C   UNL     1       3.399   2.353  19.160  0.00  0.00    +0.000 C 
ATOM      5  C   UNL     1       1.959   2.245  19.629  0.00  0.00    +0.000 C 
ENDROOT
BRANCH   3   6
ATOM      6  N   UNL     1       4.510   4.326  18.134  0.00  0.00    +0.000 N 
ATOM      7  C   UNL     1       5.000   4.992  19.230  0.00  0.00    +0.000 A 
ATOM      8  N   UNL     1       6.019   5.764  18.922  0.00  0.00    +0.000 NA
ATOM      9  C   UNL     1       6.203   5.582  17.566  0.00  0.00    +0.000 A 
ATOM     10  C   UNL     1       7.098   6.152  16.647  0.00  0.00    +0.000 A 
ATOM     11  N   UNL     1       8.052   7.098  17.002  0.00  0.00    +0.000 N 
ATOM     12  N   UNL     1       7.007   5.795  15.343  0.00  0.00    +0.000 NA
ATOM     13  C   UNL     1       6.064   4.897  14.994  0.00  0.00    +0.000 A 
ATOM     14  N   UNL     1       5.145   4.301  15.778  0.00  0.00    +0.000 NA
ATOM     15  C   UNL     1       5.277   4.685  17.059  0.00  0.00    +0.000 A 
ATOM     16  H   UNL     1       7.822   7.573  17.870  0.00  0.00    +0.000 HD
ATOM     17  H   UNL     1       8.311   7.677  16.216  0.00  0.00    +0.000 HD
ENDBRANCH   3   6
BRANCH   4  18
ATOM     18  O   UNL     1       3.851   1.126  18.574  0.00  0.00    +0.000 OA
ATOM     19  H   UNL     1       3.330   1.023  17.746  0.00  0.00    +0.000 HD
ENDBRANCH   4  18
BRANCH   5  20
ATOM     20  O   UNL     1       1.331   1.232  18.810  0.00  0.00    +0.000 OA
ATOM     21  H   UNL     1       1.661   0.355  19.077  0.00  0.00    +0.000 HD
ENDBRANCH   5  20
BRANCH   1  22
ATOM     22  C   UNL     1       1.224   4.570  20.599  0.00  0.00    +0.000 C 
BRANCH  22  23
ATOM     23  S   UNL     1       1.895   6.210  20.202  0.00  0.00    +0.000 S 
BRANCH  23  24
ATOM     24  C   UNL     1       0.938   7.274  21.342  0.00  0.00    +0.000 C 
BRANCH  24  25
ATOM     25  C   UNL     1       1.231   8.704  20.877  0.00  0.00    +0.000 C 
BRANCH  25  26
ATOM     26  C   UNL     1       0.005   9.586  20.626  0.00  0.00    +0.000 C 
BRANCH  26  28
ATOM     27  N   UNL     1      -0.964  11.681  21.501  0.00  0.00    +0.000 N 
ATOM     28  C   UNL     1      -0.178  10.581  21.812  0.00  0.00    +0.000 C 
ATOM     29  O   UNL     1       0.355  10.365  22.901  0.00  0.00    +0.000 OA
ATOM     30  H   UNL     1      -1.318  11.784  20.559  0.00  0.00    +0.000 HD
BRANCH  27  34
ATOM     31  C   UNL     1      -3.445  14.423  24.740  0.00  0.00    +0.000 C 
ATOM     32  N   UNL     1      -2.442  13.895  23.849  0.00  0.00    +0.000 N 
ATOM     33  C   UNL     1      -2.527  12.753  23.109  0.00  0.00    +0.000 A 
ATOM     34  C   UNL     1      -1.355  12.659  22.400  0.00  0.00    +0.000 A 
ATOM     35  C   UNL     1      -0.627  13.807  22.788  0.00  0.00    +0.000 A 
ATOM     36  N   UNL     1      -1.284  14.560  23.672  0.00  0.00    +0.000 NA
ENDBRANCH  27  34
ENDBRANCH  26  28
BRANCH  26  37
ATOM     37  N   UNL     1       0.161  10.346  19.369  0.00  0.00    +0.000 NA
ATOM     38  H   UNL     1       1.150  10.299  19.101  0.00  0.00    +0.000 HD
ATOM     39  H   UNL     1       0.051  11.339  19.600  0.00  0.00    +0.000 HD
ENDBRANCH  26  37
ENDBRANCH  25  26
ENDBRANCH  24  25
ENDBRANCH  23  24
ENDBRANCH  22  23
ENDBRANCH   1  22
TORSDOF 11
ENDMDL
MODEL 5
REMARK VINA RESULT:      -7.3      2.595      3.059
REMARK  Name = 
REMARK  12 active torsions:
REMARK  status: ('A' for Active; 'I' for Inactive)
REMARK    1  A    between atoms: C_1  and  N_2
REMARK    2  A    between atoms: C_4  and  N_5
REMARK    3  A    between atoms: C_6  and  C_8
REMARK    4  A    between atoms: C_8  and  N_9
REMARK    5  A    between atoms: C_8  and  C_10
REMARK    6  A    between atoms: C_10  and  C_11
REMARK    7  A    between atoms: C_11  and  S_12
REMARK    8  A    between atoms: S_12  and  C_13
REMARK    9  A    between atoms: C_13  and  C_14
REMARK   10  A    between atoms: C_16  and  N_17
REMARK   11  A    between atoms: C_27  and  O_28
REMARK   12  A    between atoms: C_29  and  O_30
REMARK                            x       y       z     vdW  Elec       q    Type
REMARK                         _______ _______ _______ _____ _____    ______ ____
ROOT
ATOM      1  C   UNL     1       1.410   3.830  19.247  0.00  0.00    +0.000 C 
ATOM      2  O   UNL     1       2.404   4.446  18.402  0.00  0.00    +0.000 OA
ATOM      3  C   UNL     1       3.530   3.558  18.272  0.00  0.00    +0.000 C 
ATOM      4  C   UNL     1       3.359   2.389  19.236  0.00  0.00    +0.000 C 
ATOM      5  C   UNL     1       1.863   2.382  19.495  0.00  0.00    +0.000 C 
ENDROOT
BRANCH   3   6
ATOM      6  N   UNL     1       4.754   4.305  18.485  0.00  0.00    +0.000 N 
ATOM      7  C   UNL     1       5.541   4.227  19.607  0.00  0.00    +0.000 A 
ATOM      8  N   UNL     1       6.537   5.086  19.570  0.00  0.00    +0.000 NA
ATOM      9  C   UNL     1       6.393   5.742  18.364  0.00  0.00    +0.000 A 
ATOM     10  C   UNL     1       7.111   6.788  17.763  0.00  0.00    +0.000 A 
ATOM     11  N   UNL     1       8.211   7.395  18.359  0.00  0.00    +0.000 N 
ATOM     12  N   UNL     1       6.695   7.258  16.563  0.00  0.00    +0.000 NA
ATOM     13  C   UNL     1       5.612   6.687  15.997  0.00  0.00    +0.000 A 
ATOM     14  N   UNL     1       4.837   5.698  16.483  0.00  0.00    +0.000 NA
ATOM     15  C   UNL     1       5.292   5.265  17.672  0.00  0.00    +0.000 A 
ATOM     16  H   UNL     1       8.230   7.259  19.365  0.00  0.00    +0.000 HD
ATOM     17  H   UNL     1       8.343   8.337  18.019  0.00  0.00    +0.000 HD
ENDBRANCH   3   6
BRANCH   4  18
ATOM     18  O   UNL     1       3.794   1.156  18.649  0.00  0.00    +0.000 OA
ATOM     19  H   UNL     1       3.088   0.503  18.857  0.00  0.00    +0.000 HD
ENDBRANCH   4  18
BRANCH   5  20
ATOM     20  O   UNL     1       1.282   1.464  18.542  0.00  0.00    +0.000 OA
ATOM     21  H   UNL     1       0.617   1.936  18.007  0.00  0.00    +0.000 HD
ENDBRANCH   5  20
BRANCH   1  22
ATOM     22  C   UNL     1       1.181   4.716  20.485  0.00  0.00    +0.000 C 
BRANCH  22  23
ATOM     23  S   UNL     1       2.024   6.310  20.276  0.00  0.00    +0.000 S 
BRANCH  23  24
ATOM     24  C   UNL     1       0.938   7.419  21.245  0.00  0.00    +0.000 C 
BRANCH  24  25
ATOM     25  C   UNL     1       1.117   8.797  20.601  0.00  0.00    +0.000 C 
BRANCH  25  26
ATOM     26  C   UNL     1       1.090   9.989  21.562  0.00  0.00    +0.000 C 
BRANCH  26  28
ATOM     27  N   UNL     1      -0.614  11.471  22.557  0.00  0.00    +0.000 N 
ATOM     28  C   UNL     1      -0.268  10.741  21.430  0.00  0.00    +0.000 C 
ATOM     29  O   UNL     1      -0.935  10.655  20.398  0.00  0.00    +0.000 OA
ATOM     30  H   UNL     1      -0.013  11.439  23.370  0.00  0.00    +0.000 HD
BRANCH  27  34
ATOM     31  C   UNL     1      -5.016  13.393  23.604  0.00  0.00    +0.000 C 
ATOM     32  N   UNL     1      -3.675  13.178  23.119  0.00  0.00    +0.000 N 
ATOM     33  C   UNL     1      -2.903  12.071  23.316  0.00  0.00    +0.000 A 
ATOM     34  C   UNL     1      -1.718  12.300  22.661  0.00  0.00    +0.000 A 
ATOM     35  C   UNL     1      -1.883  13.585  22.095  0.00  0.00    +0.000 A 
ATOM     36  N   UNL     1      -3.071  14.124  22.375  0.00  0.00    +0.000 NA
ENDBRANCH  27  34
ENDBRANCH  26  28
BRANCH  26  37
ATOM     37  N   UNL     1       1.264   9.534  22.958  0.00  0.00    +0.000 NA
ATOM     38  H   UNL     1       1.513   8.539  22.929  0.00  0.00    +0.000 HD
ATOM     39  H   UNL     1       0.331   9.506  23.384  0.00  0.00    +0.000 HD
ENDBRANCH  26  37
ENDBRANCH  25  26
ENDBRANCH  24  25
ENDBRANCH  23  24
ENDBRANCH  22  23
ENDBRANCH   1  22
TORSDOF 11
ENDMDL
MODEL 6
REMARK VINA RESULT:      -7.3      1.648      2.362
REMARK  Name = 
REMARK  12 active torsions:
REMARK  status: ('A' for Active; 'I' for Inactive)
REMARK    1  A    between atoms: C_1  and  N_2
REMARK    2  A    between atoms: C_4  and  N_5
REMARK    3  A    between atoms: C_6  and  C_8
REMARK    4  A    between atoms: C_8  and  N_9
REMARK    5  A    between atoms: C_8  and  C_10
REMARK    6  A    between atoms: C_10  and  C_11
REMARK    7  A    between atoms: C_11  and  S_12
REMARK    8  A    between atoms: S_12  and  C_13
REMARK    9  A    between atoms: C_13  and  C_14
REMARK   10  A    between atoms: C_16  and  N_17
REMARK   11  A    between atoms: C_27  and  O_28
REMARK   12  A    between atoms: C_29  and  O_30
REMARK                            x       y       z     vdW  Elec       q    Type
REMARK                         _______ _______ _______ _____ _____    ______ ____
ROOT
ATOM      1  C   UNL     1       1.853   4.027  19.060  0.00  0.00    +0.000 C 
ATOM      2  O   UNL     1       2.528   4.502  17.876  0.00  0.00    +0.000 OA
ATOM      3  C   UNL     1       3.911   4.107  17.929  0.00  0.00    +0.000 C 
ATOM      4  C   UNL     1       4.211   3.519  19.304  0.00  0.00    +0.000 C 
ATOM      5  C   UNL     1       2.837   3.107  19.800  0.00  0.00    +0.000 C 
ENDROOT
BRANCH   3   6
ATOM      6  N   UNL     1       4.745   5.245  17.596  0.00  0.00    +0.000 N 
ATOM      7  C   UNL     1       4.546   6.085  16.528  0.00  0.00    +0.000 A 
ATOM      8  N   UNL     1       5.510   6.972  16.413  0.00  0.00    +0.000 NA
ATOM      9  C   UNL     1       6.367   6.700  17.461  0.00  0.00    +0.000 A 
ATOM     10  C   UNL     1       7.591   7.264  17.855  0.00  0.00    +0.000 A 
ATOM     11  N   UNL     1       8.199   8.312  17.172  0.00  0.00    +0.000 N 
ATOM     12  N   UNL     1       8.232   6.743  18.928  0.00  0.00    +0.000 NA
ATOM     13  C   UNL     1       7.655   5.710  19.574  0.00  0.00    +0.000 A 
ATOM     14  N   UNL     1       6.503   5.077  19.279  0.00  0.00    +0.000 NA
ATOM     15  C   UNL     1       5.904   5.632  18.211  0.00  0.00    +0.000 A 
ATOM     16  H   UNL     1       7.871   8.391  16.214  0.00  0.00    +0.000 HD
ATOM     17  H   UNL     1       9.198   8.319  17.320  0.00  0.00    +0.000 HD
ENDBRANCH   3   6
BRANCH   4  18
ATOM     18  O   UNL     1       5.093   2.394  19.213  0.00  0.00    +0.000 OA
ATOM     19  H   UNL     1       5.679   2.581  18.445  0.00  0.00    +0.000 HD
ENDBRANCH   4  18
BRANCH   5  20
ATOM     20  O   UNL     1       2.661   1.721  19.431  0.00  0.00    +0.000 OA
ATOM     21  H   UNL     1       1.715   1.551  19.265  0.00  0.00    +0.000 HD
ENDBRANCH   5  20
BRANCH   1  22
ATOM     22  C   UNL     1       1.295   5.231  19.839  0.00  0.00    +0.000 C 
BRANCH  22  23
ATOM     23  S   UNL     1       2.315   6.701  19.530  0.00  0.00    +0.000 S 
BRANCH  23  24
ATOM     24  C   UNL     1       1.471   7.947  20.570  0.00  0.00    +0.000 C 
BRANCH  24  25
ATOM     25  C   UNL     1       1.628   9.264  19.804  0.00  0.00    +0.000 C 
BRANCH  25  26
ATOM     26  C   UNL     1       1.076   9.273  18.376  0.00  0.00    +0.000 C 
BRANCH  26  28
ATOM     27  N   UNL     1      -1.077   9.783  17.283  0.00  0.00    +0.000 N 
ATOM     28  C   UNL     1      -0.224  10.131  18.321  0.00  0.00    +0.000 C 
ATOM     29  O   UNL     1      -0.421  11.025  19.143  0.00  0.00    +0.000 OA
ATOM     30  H   UNL     1      -0.797   9.059  16.635  0.00  0.00    +0.000 HD
BRANCH  27  34
ATOM     31  C   UNL     1      -5.740  11.265  17.755  0.00  0.00    +0.000 C 
ATOM     32  N   UNL     1      -4.412  10.999  17.261  0.00  0.00    +0.000 N 
ATOM     33  C   UNL     1      -3.401  10.377  17.933  0.00  0.00    +0.000 A 
ATOM     34  C   UNL     1      -2.333  10.325  17.072  0.00  0.00    +0.000 A 
ATOM     35  C   UNL     1      -2.812  10.949  15.897  0.00  0.00    +0.000 A 
ATOM     36  N   UNL     1      -4.075  11.363  16.010  0.00  0.00    +0.000 NA
ENDBRANCH  27  34
ENDBRANCH  26  28
BRANCH  26  37
ATOM     37  N   UNL     1       2.072   9.832  17.438  0.00  0.00    +0.000 NA
ATOM     38  H   UNL     1       1.686   9.747  16.491  0.00  0.00    +0.000 HD
ATOM     39  H   UNL     1       2.859   9.176  17.407  0.00  0.00    +0.000 HD
ENDBRANCH  26  37
ENDBRANCH  25  26
ENDBRANCH  24  25
ENDBRANCH  23  24
ENDBRANCH  22  23
ENDBRANCH   1  22
TORSDOF 11
ENDMDL
MODEL 7
REMARK VINA RESULT:      -7.3      2.626      3.243
REMARK  Name = 
REMARK  12 active torsions:
REMARK  status: ('A' for Active; 'I' for Inactive)
REMARK    1  A    between atoms: C_1  and  N_2
REMARK    2  A    between atoms: C_4  and  N_5
REMARK    3  A    between atoms: C_6  and  C_8
REMARK    4  A    between atoms: C_8  and  N_9
REMARK    5  A    between atoms: C_8  and  C_10
REMARK    6  A    between atoms: C_10  and  C_11
REMARK    7  A    between atoms: C_11  and  S_12
REMARK    8  A    between atoms: S_12  and  C_13
REMARK    9  A    between atoms: C_13  and  C_14
REMARK   10  A    between atoms: C_16  and  N_17
REMARK   11  A    between atoms: C_27  and  O_28
REMARK   12  A    between atoms: C_29  and  O_30
REMARK                            x       y       z     vdW  Elec       q    Type
REMARK                         _______ _______ _______ _____ _____    ______ ____
ROOT
ATOM      1  C   UNL     1       1.185   3.954  19.199  0.00  0.00    +0.000 C 
ATOM      2  O   UNL     1       2.203   4.505  18.338  0.00  0.00    +0.000 OA
ATOM      3  C   UNL     1       3.267   3.547  18.189  0.00  0.00    +0.000 C 
ATOM      4  C   UNL     1       3.037   2.391  19.156  0.00  0.00    +0.000 C 
ATOM      5  C   UNL     1       1.548   2.480  19.440  0.00  0.00    +0.000 C 
ENDROOT
BRANCH   3   6
ATOM      6  N   UNL     1       4.540   4.213  18.382  0.00  0.00    +0.000 N 
ATOM      7  C   UNL     1       5.375   4.026  19.455  0.00  0.00    +0.000 A 
ATOM      8  N   UNL     1       6.414   4.831  19.417  0.00  0.00    +0.000 NA
ATOM      9  C   UNL     1       6.250   5.565  18.259  0.00  0.00    +0.000 A 
ATOM     10  C   UNL     1       6.996   6.606  17.684  0.00  0.00    +0.000 A 
ATOM     11  N   UNL     1       8.155   7.116  18.256  0.00  0.00    +0.000 N 
ATOM     12  N   UNL     1       6.550   7.168  16.535  0.00  0.00    +0.000 NA
ATOM     13  C   UNL     1       5.410   6.691  15.994  0.00  0.00    +0.000 A 
ATOM     14  N   UNL     1       4.606   5.717  16.461  0.00  0.00    +0.000 NA
ATOM     15  C   UNL     1       5.092   5.190  17.599  0.00  0.00    +0.000 A 
ATOM     16  H   UNL     1       8.215   6.919  19.251  0.00  0.00    +0.000 HD
ATOM     17  H   UNL     1       8.324   8.069  17.964  0.00  0.00    +0.000 HD
ENDBRANCH   3   6
BRANCH   4  18
ATOM     18  O   UNL     1       3.382   1.133  18.562  0.00  0.00    +0.000 OA
ATOM     19  H   UNL     1       3.530   0.518  19.316  0.00  0.00    +0.000 HD
ENDBRANCH   4  18
BRANCH   5  20
ATOM     20  O   UNL     1       0.893   1.602  18.497  0.00  0.00    +0.000 OA
ATOM     21  H   UNL     1       0.414   2.139  17.839  0.00  0.00    +0.000 HD
ENDBRANCH   5  20
BRANCH   1  22
ATOM     22  C   UNL     1       1.034   4.851  20.440  0.00  0.00    +0.000 C 
BRANCH  22  23
ATOM     23  S   UNL     1       2.268   6.183  20.401  0.00  0.00    +0.000 S 
BRANCH  23  24
ATOM     24  C   UNL     1       1.219   7.652  20.703  0.00  0.00    +0.000 C 
BRANCH  24  25
ATOM     25  C   UNL     1       1.596   8.634  19.589  0.00  0.00    +0.000 C 
BRANCH  25  26
ATOM     26  C   UNL     1       0.537   9.683  19.240  0.00  0.00    +0.000 C 
BRANCH  26  28
ATOM     27  N   UNL     1       1.406  11.867  18.488  0.00  0.00    +0.000 N 
ATOM     28  C   UNL     1       1.068  11.104  19.596  0.00  0.00    +0.000 C 
ATOM     29  O   UNL     1       1.164  11.463  20.770  0.00  0.00    +0.000 OA
ATOM     30  H   UNL     1       1.330  11.458  17.566  0.00  0.00    +0.000 HD
BRANCH  27  34
ATOM     31  C   UNL     1       4.019  16.029  18.361  0.00  0.00    +0.000 C 
ATOM     32  N   UNL     1       2.957  15.060  18.471  0.00  0.00    +0.000 N 
ATOM     33  C   UNL     1       3.065  13.709  18.312  0.00  0.00    +0.000 A 
ATOM     34  C   UNL     1       1.812  13.190  18.526  0.00  0.00    +0.000 A 
ATOM     35  C   UNL     1       1.016  14.323  18.811  0.00  0.00    +0.000 A 
ATOM     36  N   UNL     1       1.708  15.462  18.775  0.00  0.00    +0.000 NA
ENDBRANCH  27  34
ENDBRANCH  26  28
BRANCH  26  37
ATOM     37  N   UNL     1       0.208   9.629  17.801  0.00  0.00    +0.000 NA
ATOM     38  H   UNL     1       0.379   8.669  17.481  0.00  0.00    +0.000 HD
ATOM     39  H   UNL     1       0.938  10.151  17.305  0.00  0.00    +0.000 HD
ENDBRANCH  26  37
ENDBRANCH  25  26
ENDBRANCH  24  25
ENDBRANCH  23  24
ENDBRANCH  22  23
ENDBRANCH   1  22
TORSDOF 11
ENDMDL
MODEL 8
REMARK VINA RESULT:      -7.3      1.132      1.384
REMARK  Name = 
REMARK  12 active torsions:
REMARK  status: ('A' for Active; 'I' for Inactive)
REMARK    1  A    between atoms: C_1  and  N_2
REMARK    2  A    between atoms: C_4  and  N_5
REMARK    3  A    between atoms: C_6  and  C_8
REMARK    4  A    between atoms: C_8  and  N_9
REMARK    5  A    between atoms: C_8  and  C_10
REMARK    6  A    between atoms: C_10  and  C_11
REMARK    7  A    between atoms: C_11  and  S_12
REMARK    8  A    between atoms: S_12  and  C_13
REMARK    9  A    between atoms: C_13  and  C_14
REMARK   10  A    between atoms: C_16  and  N_17
REMARK   11  A    between atoms: C_27  and  O_28
REMARK   12  A    between atoms: C_29  and  O_30
REMARK                            x       y       z     vdW  Elec       q    Type
REMARK                         _______ _______ _______ _____ _____    ______ ____
ROOT
ATOM      1  C   UNL     1       1.438   3.864  19.178  0.00  0.00    +0.000 C 
ATOM      2  O   UNL     1       2.448   4.440  18.324  0.00  0.00    +0.000 OA
ATOM      3  C   UNL     1       3.578   3.551  18.260  0.00  0.00    +0.000 C 
ATOM      4  C   UNL     1       3.390   2.430  19.278  0.00  0.00    +0.000 C 
ATOM      5  C   UNL     1       1.890   2.431  19.507  0.00  0.00    +0.000 C 
ENDROOT
BRANCH   3   6
ATOM      6  N   UNL     1       4.796   4.311  18.460  0.00  0.00    +0.000 N 
ATOM      7  C   UNL     1       5.605   4.230  19.567  0.00  0.00    +0.000 A 
ATOM      8  N   UNL     1       6.588   5.102  19.523  0.00  0.00    +0.000 NA
ATOM      9  C   UNL     1       6.414   5.770  18.328  0.00  0.00    +0.000 A 
ATOM     10  C   UNL     1       7.108   6.833  17.727  0.00  0.00    +0.000 A 
ATOM     11  N   UNL     1       8.210   7.448  18.310  0.00  0.00    +0.000 N 
ATOM     12  N   UNL     1       6.663   7.312  16.540  0.00  0.00    +0.000 NA
ATOM     13  C   UNL     1       5.578   6.734  15.987  0.00  0.00    +0.000 A 
ATOM     14  N   UNL     1       4.825   5.729  16.475  0.00  0.00    +0.000 NA
ATOM     15  C   UNL     1       5.307   5.288  17.650  0.00  0.00    +0.000 A 
ATOM     16  H   UNL     1       8.249   7.299  19.314  0.00  0.00    +0.000 HD
ATOM     17  H   UNL     1       8.323   8.395  17.980  0.00  0.00    +0.000 HD
ENDBRANCH   3   6
BRANCH   4  18
ATOM     18  O   UNL     1       3.839   1.171  18.761  0.00  0.00    +0.000 OA
ATOM     19  H   UNL     1       3.030   0.618  18.677  0.00  0.00    +0.000 HD
ENDBRANCH   4  18
BRANCH   5  20
ATOM     20  O   UNL     1       1.329   1.466  18.589  0.00  0.00    +0.000 OA
ATOM     21  H   UNL     1       0.423   1.737  18.352  0.00  0.00    +0.000 HD
ENDBRANCH   5  20
BRANCH   1  22
ATOM     22  C   UNL     1       1.182   4.809  20.365  0.00  0.00    +0.000 C 
BRANCH  22  23
ATOM     23  S   UNL     1       2.179   6.316  20.189  0.00  0.00    +0.000 S 
BRANCH  23  24
ATOM     24  C   UNL     1       1.092   7.559  20.978  0.00  0.00    +0.000 C 
BRANCH  24  25
ATOM     25  C   UNL     1       1.286   8.830  20.146  0.00  0.00    +0.000 C 
BRANCH  25  26
ATOM     26  C   UNL     1       0.892  10.141  20.831  0.00  0.00    +0.000 C 
BRANCH  26  28
ATOM     27  N   UNL     1      -0.778  10.468  19.044  0.00  0.00    +0.000 N 
ATOM     28  C   UNL     1      -0.555  10.540  20.411  0.00  0.00    +0.000 C 
ATOM     29  O   UNL     1      -1.381  10.884  21.256  0.00  0.00    +0.000 OA
ATOM     30  H   UNL     1      -0.015  10.213  18.431  0.00  0.00    +0.000 HD
BRANCH  27  34
ATOM     31  C   UNL     1      -5.135  12.262  17.645  0.00  0.00    +0.000 C 
ATOM     32  N   UNL     1      -3.944  11.463  17.783  0.00  0.00    +0.000 N 
ATOM     33  C   UNL     1      -2.890  11.706  18.615  0.00  0.00    +0.000 A 
ATOM     34  C   UNL     1      -1.999  10.678  18.426  0.00  0.00    +0.000 A 
ATOM     35  C   UNL     1      -2.619   9.863  17.452  0.00  0.00    +0.000 A 
ATOM     36  N   UNL     1      -3.800  10.339  17.056  0.00  0.00    +0.000 NA
ENDBRANCH  27  34
ENDBRANCH  26  28
BRANCH  26  37
ATOM     37  N   UNL     1       0.954   9.996  22.301  0.00  0.00    +0.000 NA
ATOM     38  H   UNL     1       1.924  10.169  22.587  0.00  0.00    +0.000 HD
ATOM     39  H   UNL     1       0.845   8.998  22.511  0.00  0.00    +0.000 HD
ENDBRANCH  26  37
ENDBRANCH  25  26
ENDBRANCH  24  25
ENDBRANCH  23  24
ENDBRANCH  22  23
ENDBRANCH   1  22
TORSDOF 11
ENDMDL
MODEL 9
REMARK VINA RESULT:      -7.3      0.824      1.070
REMARK  Name = 
REMARK  12 active torsions:
REMARK  status: ('A' for Active; 'I' for Inactive)
REMARK    1  A    between atoms: C_1  and  N_2
REMARK    2  A    between atoms: C_4  and  N_5
REMARK    3  A    between atoms: C_6  and  C_8
REMARK    4  A    between atoms: C_8  and  N_9
REMARK    5  A    between atoms: C_8  and  C_10
REMARK    6  A    between atoms: C_10  and  C_11
REMARK    7  A    between atoms: C_11  and  S_12
REMARK    8  A    between atoms: S_12  and  C_13
REMARK    9  A    between atoms: C_13  and  C_14
REMARK   10  A    between atoms: C_16  and  N_17
REMARK   11  A    between atoms: C_27  and  O_28
REMARK   12  A    between atoms: C_29  and  O_30
REMARK                            x       y       z     vdW  Elec       q    Type
REMARK                         _______ _______ _______ _____ _____    ______ ____
ROOT
ATOM      1  C   UNL     1       1.258   3.962  19.439  0.00  0.00    +0.000 C 
ATOM      2  O   UNL     1       2.076   4.478  18.368  0.00  0.00    +0.000 OA
ATOM      3  C   UNL     1       3.184   3.585  18.146  0.00  0.00    +0.000 C 
ATOM      4  C   UNL     1       3.211   2.537  19.254  0.00  0.00    +0.000 C 
ATOM      5  C   UNL     1       1.783   2.555  19.770  0.00  0.00    +0.000 C 
ENDROOT
BRANCH   3   6
ATOM      6  N   UNL     1       4.408   4.356  18.055  0.00  0.00    +0.000 N 
ATOM      7  C   UNL     1       5.035   4.971  19.110  0.00  0.00    +0.000 A 
ATOM      8  N   UNL     1       6.072   5.681  18.721  0.00  0.00    +0.000 NA
ATOM      9  C   UNL     1       6.124   5.508  17.352  0.00  0.00    +0.000 A 
ATOM     10  C   UNL     1       6.971   6.033  16.363  0.00  0.00    +0.000 A 
ATOM     11  N   UNL     1       8.013   6.909  16.642  0.00  0.00    +0.000 N 
ATOM     12  N   UNL     1       6.743   5.703  15.069  0.00  0.00    +0.000 NA
ATOM     13  C   UNL     1       5.715   4.874  14.796  0.00  0.00    +0.000 A 
ATOM     14  N   UNL     1       4.830   4.328  15.652  0.00  0.00    +0.000 NA
ATOM     15  C   UNL     1       5.100   4.682  16.920  0.00  0.00    +0.000 A 
ATOM     16  H   UNL     1       7.892   7.384  17.532  0.00  0.00    +0.000 HD
ATOM     17  H   UNL     1       8.240   7.482  15.841  0.00  0.00    +0.000 HD
ENDBRANCH   3   6
BRANCH   4  18
ATOM     18  O   UNL     1       3.567   1.245  18.747  0.00  0.00    +0.000 OA
ATOM     19  H   UNL     1       3.562   0.646  19.527  0.00  0.00    +0.000 HD
ENDBRANCH   4  18
BRANCH   5  20
ATOM     20  O   UNL     1       1.068   1.529  19.046  0.00  0.00    +0.000 OA
ATOM     21  H   UNL     1       0.318   1.219  19.587  0.00  0.00    +0.000 HD
ENDBRANCH   5  20
BRANCH   1  22
ATOM     22  C   UNL     1       1.225   4.987  20.587  0.00  0.00    +0.000 C 
BRANCH  22  23
ATOM     23  S   UNL     1       1.869   6.585  20.014  0.00  0.00    +0.000 S 
BRANCH  23  24
ATOM     24  C   UNL     1       1.258   7.707  21.324  0.00  0.00    +0.000 C 
BRANCH  24  25
ATOM     25  C   UNL     1       0.243   8.612  20.619  0.00  0.00    +0.000 C 
BRANCH  25  26
ATOM     26  C   UNL     1       0.696  10.054  20.374  0.00  0.00    +0.000 C 
BRANCH  26  28
ATOM     27  N   UNL     1      -1.008  10.134  18.591  0.00  0.00    +0.000 N 
ATOM     28  C   UNL     1      -0.429  10.840  19.635  0.00  0.00    +0.000 C 
ATOM     29  O   UNL     1      -0.731  11.981  19.984  0.00  0.00    +0.000 OA
ATOM     30  H   UNL     1      -0.654   9.215  18.359  0.00  0.00    +0.000 HD
BRANCH  27  34
ATOM     31  C   UNL     1      -5.300  12.017  17.107  0.00  0.00    +0.000 C 
ATOM     32  N   UNL     1      -3.995  11.406  17.155  0.00  0.00    +0.000 N 
ATOM     33  C   UNL     1      -3.236  11.187  18.267  0.00  0.00    +0.000 A 
ATOM     34  C   UNL     1      -2.088  10.567  17.840  0.00  0.00    +0.000 A 
ATOM     35  C   UNL     1      -2.258  10.458  16.440  0.00  0.00    +0.000 A 
ATOM     36  N   UNL     1      -3.415  10.970  16.020  0.00  0.00    +0.000 NA
ENDBRANCH  27  34
ENDBRANCH  26  28
BRANCH  26  37
ATOM     37  N   UNL     1       1.002  10.726  21.655  0.00  0.00    +0.000 NA
ATOM     38  H   UNL     1       1.023  10.004  22.384  0.00  0.00    +0.000 HD
ATOM     39  H   UNL     1       0.172  11.268  21.917  0.00  0.00    +0.000 HD
ENDBRANCH  26  37
ENDBRANCH  25  26
ENDBRANCH  24  25
ENDBRANCH  23  24
ENDBRANCH  22  23
ENDBRANCH   1  22
TORSDOF 11
ENDMDL
