MODEL 1
REMARK VINA RESULT:      -8.7      0.000      0.000
REMARK  Name = 
REMARK  7 active torsions:
REMARK  status: ('A' for Active; 'I' for Inactive)
REMARK    1  A    between atoms: C_1  and  S_2
REMARK    2  A    between atoms: S_2  and  N_5
REMARK    3  A    between atoms: N_5  and  C_6
REMARK    4  A    between atoms: C_10  and  C_11
REMARK    5  A    between atoms: C_11  and  C_12
REMARK    6  A    between atoms: N_14  and  C_15
REMARK    7  A    between atoms: C_18  and  C_19
REMARK                            x       y       z     vdW  Elec       q    Type
REMARK                         _______ _______ _______ _____ _____    ______ ____
ROOT
ATOM      1  C   UNL     1       8.102   7.979  18.189  0.00  0.00    +0.000 C 
ATOM      2  O   UNL     1       7.547   8.278  17.127  0.00  0.00    +0.000 OA
ATOM      3  N   UNL     1       8.830   8.868  18.969  0.00  0.00    +0.000 N 
ATOM      4  H   UNL     1       9.544   8.513  19.595  0.00  0.00    +0.000 HD
ENDROOT
BRANCH   3   5
ATOM      5  C   UNL     1       8.932  10.173  18.535  0.00  0.00    +0.000 A 
ATOM      6  C   UNL     1       8.071  10.948  17.803  0.00  0.00    +0.000 A 
ATOM      7  N   UNL     1       8.526  12.213  17.509  0.00  0.00    +0.000 NA
ATOM      8  C   UNL     1       9.774  12.345  17.914  0.00  0.00    +0.000 A 
ATOM      9  S   UNL     1      10.365  11.034  18.878  0.00  0.00    +0.000 S 
BRANCH   8  10
ATOM     10  C   UNL     1      10.574  13.546  17.512  0.00  0.00    +0.000 A 
ATOM     11  C   UNL     1      11.799  13.544  16.874  0.00  0.00    +0.000 A 
ATOM     12  N   UNL     1      12.145  14.852  16.631  0.00  0.00    +0.000 N 
ATOM     13  C   UNL     1      11.189  15.691  17.135  0.00  0.00    +0.000 A 
ATOM     14  N   UNL     1      11.250  17.034  17.081  0.00  0.00    +0.000 NA
ATOM     15  C   UNL     1      10.174  17.632  17.650  0.00  0.00    +0.000 A 
ATOM     16  C   UNL     1       9.090  16.980  18.221  0.00  0.00    +0.000 A 
ATOM     17  C   UNL     1       9.075  15.587  18.234  0.00  0.00    +0.000 A 
ATOM     18  C   UNL     1      10.179  14.909  17.682  0.00  0.00    +0.000 A 
ATOM     19  H   UNL     1      12.971  15.178  16.149  0.00  0.00    +0.000 HD
ENDBRANCH   8  10
ENDBRANCH   3   5
BRANCH   1  20
ATOM     20  C   UNL     1       8.063   6.546  18.707  0.00  0.00    +0.000 C 
BRANCH  20  25
ATOM     21  C   UNL     1       4.811   4.574  18.287  0.00  0.00    +0.000 A 
ATOM     22  C   UNL     1       4.995   3.981  17.039  0.00  0.00    +0.000 A 
ATOM     23  C   UNL     1       6.164   4.228  16.322  0.00  0.00    +0.000 A 
ATOM     24  C   UNL     1       7.153   5.069  16.847  0.00  0.00    +0.000 A 
ATOM     25  C   UNL     1       6.975   5.690  18.095  0.00  0.00    +0.000 A 
ATOM     26  C   UNL     1       5.792   5.429  18.807  0.00  0.00    +0.000 A 
BRANCH  21  27
ATOM     27  N   UNL     1       3.685   4.193  19.076  0.00  0.00    +0.000 N 
ATOM     28  H   UNL     1       2.769   4.434  18.689  0.00  0.00    +0.000 HD
BRANCH  27  30
ATOM     29  C   UNL     1       2.633   2.782  21.134  0.00  0.00    +0.000 C 
ATOM     30  S   UNL     1       3.666   2.615  19.693  0.00  0.00    +0.000 S 
ATOM     31  O   UNL     1       5.008   2.343  20.147  0.00  0.00    +0.000 OA
ATOM     32  O   UNL     1       2.995   1.735  18.745  0.00  0.00    +0.000 OA
ENDBRANCH  27  30
ENDBRANCH  21  27
ENDBRANCH  20  25
ENDBRANCH   1  20
TORSDOF 6
ENDMDL
MODEL 2
REMARK VINA RESULT:      -8.3      5.960      7.401
REMARK  Name = 
REMARK  7 active torsions:
REMARK  status: ('A' for Active; 'I' for Inactive)
REMARK    1  A    between atoms: C_1  and  S_2
REMARK    2  A    between atoms: S_2  and  N_5
REMARK    3  A    between atoms: N_5  and  C_6
REMARK    4  A    between atoms: C_10  and  C_11
REMARK    5  A    between atoms: C_11  and  C_12
REMARK    6  A    between atoms: N_14  and  C_15
REMARK    7  A    between atoms: C_18  and  C_19
REMARK                            x       y       z     vdW  Elec       q    Type
REMARK                         _______ _______ _______ _____ _____    ______ ____
ROOT
ATOM      1  C   UNL     1       1.821   7.886  19.676  0.00  0.00    +0.000 C 
ATOM      2  O   UNL     1       2.296   8.200  18.581  0.00  0.00    +0.000 OA
ATOM      3  N   UNL     1       0.927   8.668  20.396  0.00  0.00    +0.000 N 
ATOM      4  H   UNL     1       0.864   8.557  21.402  0.00  0.00    +0.000 HD
ENDROOT
BRANCH   3   5
ATOM      5  C   UNL     1       0.535   9.870  19.846  0.00  0.00    +0.000 A 
ATOM      6  C   UNL     1      -0.061  10.161  18.647  0.00  0.00    +0.000 A 
ATOM      7  N   UNL     1      -0.270  11.499  18.404  0.00  0.00    +0.000 NA
ATOM      8  C   UNL     1       0.277  12.219  19.364  0.00  0.00    +0.000 A 
ATOM      9  S   UNL     1       0.855  11.304  20.717  0.00  0.00    +0.000 S 
BRANCH   8  10
ATOM     10  C   UNL     1       0.390  13.706  19.221  0.00  0.00    +0.000 A 
ATOM     11  C   UNL     1      -0.559  14.643  19.580  0.00  0.00    +0.000 A 
ATOM     12  N   UNL     1      -0.028  15.887  19.343  0.00  0.00    +0.000 N 
ATOM     13  C   UNL     1       1.223  15.767  18.802  0.00  0.00    +0.000 A 
ATOM     14  N   UNL     1       1.996  16.805  18.432  0.00  0.00    +0.000 NA
ATOM     15  C   UNL     1       3.192  16.416  17.927  0.00  0.00    +0.000 A 
ATOM     16  C   UNL     1       3.633  15.106  17.802  0.00  0.00    +0.000 A 
ATOM     17  C   UNL     1       2.796  14.073  18.215  0.00  0.00    +0.000 A 
ATOM     18  C   UNL     1       1.528  14.414  18.724  0.00  0.00    +0.000 A 
ATOM     19  H   UNL     1      -0.467  16.777  19.534  0.00  0.00    +0.000 HD
ENDBRANCH   8  10
ENDBRANCH   3   5
BRANCH   1  20
ATOM     20  C   UNL     1       2.242   6.590  20.360  0.00  0.00    +0.000 C 
BRANCH  20  25
ATOM     21  C   UNL     1       4.649   4.205  18.582  0.00  0.00    +0.000 A 
ATOM     22  C   UNL     1       3.836   3.670  17.584  0.00  0.00    +0.000 A 
ATOM     23  C   UNL     1       2.504   4.065  17.492  0.00  0.00    +0.000 A 
ATOM     24  C   UNL     1       1.976   4.996  18.395  0.00  0.00    +0.000 A 
ATOM     25  C   UNL     1       2.777   5.532  19.418  0.00  0.00    +0.000 A 
ATOM     26  C   UNL     1       4.119   5.125  19.497  0.00  0.00    +0.000 A 
BRANCH  21  27
ATOM     27  N   UNL     1       6.045   3.911  18.571  0.00  0.00    +0.000 N 
ATOM     28  H   UNL     1       6.294   2.942  18.356  0.00  0.00    +0.000 HD
BRANCH  27  30
ATOM     29  C   UNL     1       7.816   5.903  19.052  0.00  0.00    +0.000 C 
ATOM     30  S   UNL     1       7.058   4.979  17.731  0.00  0.00    +0.000 S 
ATOM     31  O   UNL     1       6.191   5.878  17.011  0.00  0.00    +0.000 OA
ATOM     32  O   UNL     1       8.097   4.219  17.047  0.00  0.00    +0.000 OA
ENDBRANCH  27  30
ENDBRANCH  21  27
ENDBRANCH  20  25
ENDBRANCH   1  20
TORSDOF 6
ENDMDL
MODEL 3
REMARK VINA RESULT:      -8.3      6.821      9.606
REMARK  Name = 
REMARK  7 active torsions:
REMARK  status: ('A' for Active; 'I' for Inactive)
REMARK    1  A    between atoms: C_1  and  S_2
REMARK    2  A    between atoms: S_2  and  N_5
REMARK    3  A    between atoms: N_5  and  C_6
REMARK    4  A    between atoms: C_10  and  C_11
REMARK    5  A    between atoms: C_11  and  C_12
REMARK    6  A    between atoms: N_14  and  C_15
REMARK    7  A    between atoms: C_18  and  C_19
REMARK                            x       y       z     vdW  Elec       q    Type
REMARK                         _______ _______ _______ _____ _____    ______ ____
ROOT
ATOM      1  C   UNL     1       1.967   6.031  20.601  0.00  0.00    +0.000 C 
ATOM      2  O   UNL     1       0.794   5.667  20.731  0.00  0.00    +0.000 OA
ATOM      3  N   UNL     1       2.366   7.357  20.480  0.00  0.00    +0.000 N 
ATOM      4  H   UNL     1       3.243   7.573  20.020  0.00  0.00    +0.000 HD
ENDROOT
BRANCH   3   5
ATOM      5  C   UNL     1       1.390   8.329  20.519  0.00  0.00    +0.000 A 
ATOM      6  C   UNL     1       0.596   8.770  21.545  0.00  0.00    +0.000 A 
ATOM      7  N   UNL     1      -0.317   9.742  21.207  0.00  0.00    +0.000 NA
ATOM      8  C   UNL     1      -0.292   9.944  19.904  0.00  0.00    +0.000 A 
ATOM      9  S   UNL     1       0.998   9.144  19.070  0.00  0.00    +0.000 S 
BRANCH   8  10
ATOM     10  C   UNL     1      -1.347  10.785  19.251  0.00  0.00    +0.000 A 
ATOM     11  C   UNL     1      -1.869  11.970  19.731  0.00  0.00    +0.000 A 
ATOM     12  N   UNL     1      -2.757  12.444  18.795  0.00  0.00    +0.000 N 
ATOM     13  C   UNL     1      -2.844  11.568  17.747  0.00  0.00    +0.000 A 
ATOM     14  N   UNL     1      -3.650  11.734  16.681  0.00  0.00    +0.000 NA
ATOM     15  C   UNL     1      -3.545  10.725  15.782  0.00  0.00    +0.000 A 
ATOM     16  C   UNL     1      -2.701   9.628  15.886  0.00  0.00    +0.000 A 
ATOM     17  C   UNL     1      -1.879   9.517  17.005  0.00  0.00    +0.000 A 
ATOM     18  C   UNL     1      -1.962  10.522  17.989  0.00  0.00    +0.000 A 
ATOM     19  H   UNL     1      -3.278  13.308  18.840  0.00  0.00    +0.000 HD
ENDBRANCH   8  10
ENDBRANCH   3   5
BRANCH   1  20
ATOM     20  C   UNL     1       3.091   5.007  20.511  0.00  0.00    +0.000 C 
BRANCH  20  25
ATOM     21  C   UNL     1       4.884   4.005  17.281  0.00  0.00    +0.000 A 
ATOM     22  C   UNL     1       3.817   3.621  16.470  0.00  0.00    +0.000 A 
ATOM     23  C   UNL     1       2.517   3.669  16.968  0.00  0.00    +0.000 A 
ATOM     24  C   UNL     1       2.276   4.101  18.278  0.00  0.00    +0.000 A 
ATOM     25  C   UNL     1       3.341   4.474  19.116  0.00  0.00    +0.000 A 
ATOM     26  C   UNL     1       4.646   4.421  18.598  0.00  0.00    +0.000 A 
BRANCH  21  27
ATOM     27  N   UNL     1       6.189   4.096  16.713  0.00  0.00    +0.000 N 
ATOM     28  H   UNL     1       6.444   3.351  16.060  0.00  0.00    +0.000 HD
BRANCH  27  30
ATOM     29  C   UNL     1       7.349   6.401  17.540  0.00  0.00    +0.000 C 
ATOM     30  S   UNL     1       6.666   5.603  16.101  0.00  0.00    +0.000 S 
ATOM     31  O   UNL     1       5.453   6.300  15.750  0.00  0.00    +0.000 OA
ATOM     32  O   UNL     1       7.736   5.411  15.131  0.00  0.00    +0.000 OA
ENDBRANCH  27  30
ENDBRANCH  21  27
ENDBRANCH  20  25
ENDBRANCH   1  20
TORSDOF 6
ENDMDL
MODEL 4
REMARK VINA RESULT:      -8.2      3.039     11.440
REMARK  Name = 
REMARK  7 active torsions:
REMARK  status: ('A' for Active; 'I' for Inactive)
REMARK    1  A    between atoms: C_1  and  S_2
REMARK    2  A    between atoms: S_2  and  N_5
REMARK    3  A    between atoms: N_5  and  C_6
REMARK    4  A    between atoms: C_10  and  C_11
REMARK    5  A    between atoms: C_11  and  C_12
REMARK    6  A    between atoms: N_14  and  C_15
REMARK    7  A    between atoms: C_18  and  C_19
REMARK                            x       y       z     vdW  Elec       q    Type
REMARK                         _______ _______ _______ _____ _____    ______ ____
ROOT
ATOM      1  C   UNL     1       8.125   8.394  17.901  0.00  0.00    +0.000 C 
ATOM      2  O   UNL     1       8.570   7.953  18.965  0.00  0.00    +0.000 OA
ATOM      3  N   UNL     1       7.175   7.747  17.121  0.00  0.00    +0.000 N 
ATOM      4  H   UNL     1       7.124   7.947  16.129  0.00  0.00    +0.000 HD
ENDROOT
BRANCH   3   5
ATOM      5  C   UNL     1       6.689   6.537  17.569  0.00  0.00    +0.000 A 
ATOM      6  C   UNL     1       7.331   5.362  17.864  0.00  0.00    +0.000 A 
ATOM      7  N   UNL     1       6.511   4.325  18.248  0.00  0.00    +0.000 NA
ATOM      8  C   UNL     1       5.248   4.685  18.124  0.00  0.00    +0.000 A 
ATOM      9  S   UNL     1       5.003   6.362  17.770  0.00  0.00    +0.000 S 
BRANCH   8  10
ATOM     10  C   UNL     1       4.158   3.666  18.259  0.00  0.00    +0.000 A 
ATOM     11  C   UNL     1       3.915   2.601  17.414  0.00  0.00    +0.000 A 
ATOM     12  N   UNL     1       2.869   1.881  17.939  0.00  0.00    +0.000 N 
ATOM     13  C   UNL     1       2.411   2.484  19.079  0.00  0.00    +0.000 A 
ATOM     14  N   UNL     1       1.376   2.037  19.813  0.00  0.00    +0.000 NA
ATOM     15  C   UNL     1       1.126   2.813  20.896  0.00  0.00    +0.000 A 
ATOM     16  C   UNL     1       1.841   3.943  21.268  0.00  0.00    +0.000 A 
ATOM     17  C   UNL     1       2.913   4.350  20.477  0.00  0.00    +0.000 A 
ATOM     18  C   UNL     1       3.205   3.599  19.322  0.00  0.00    +0.000 A 
ATOM     19  H   UNL     1       2.478   1.027  17.567  0.00  0.00    +0.000 HD
ENDBRANCH   8  10
ENDBRANCH   3   5
BRANCH   1  20
ATOM     20  C   UNL     1       8.646   9.706  17.328  0.00  0.00    +0.000 C 
BRANCH  20  25
ATOM     21  C   UNL     1       9.409  13.080  18.966  0.00  0.00    +0.000 A 
ATOM     22  C   UNL     1       9.788  12.695  20.251  0.00  0.00    +0.000 A 
ATOM     23  C   UNL     1       9.784  11.346  20.597  0.00  0.00    +0.000 A 
ATOM     24  C   UNL     1       9.401  10.375  19.663  0.00  0.00    +0.000 A 
ATOM     25  C   UNL     1       8.998  10.747  18.370  0.00  0.00    +0.000 A 
ATOM     26  C   UNL     1       9.009  12.111  18.035  0.00  0.00    +0.000 A 
BRANCH  21  27
ATOM     27  N   UNL     1       9.564  14.444  18.577  0.00  0.00    +0.000 N 
ATOM     28  H   UNL     1       9.219  15.139  19.243  0.00  0.00    +0.000 HD
BRANCH  27  30
ATOM     29  C   UNL     1      11.817  15.720  19.371  0.00  0.00    +0.000 C 
ATOM     30  S   UNL     1      11.075  14.912  17.969  0.00  0.00    +0.000 S 
ATOM     31  O   UNL     1      10.815  15.920  16.971  0.00  0.00    +0.000 OA
ATOM     32  O   UNL     1      11.857  13.723  17.657  0.00  0.00    +0.000 OA
ENDBRANCH  27  30
ENDBRANCH  21  27
ENDBRANCH  20  25
ENDBRANCH   1  20
TORSDOF 6
ENDMDL
MODEL 5
REMARK VINA RESULT:      -8.2      6.795      9.400
REMARK  Name = 
REMARK  7 active torsions:
REMARK  status: ('A' for Active; 'I' for Inactive)
REMARK    1  A    between atoms: C_1  and  S_2
REMARK    2  A    between atoms: S_2  and  N_5
REMARK    3  A    between atoms: N_5  and  C_6
REMARK    4  A    between atoms: C_10  and  C_11
REMARK    5  A    between atoms: C_11  and  C_12
REMARK    6  A    between atoms: N_14  and  C_15
REMARK    7  A    between atoms: C_18  and  C_19
REMARK                            x       y       z     vdW  Elec       q    Type
REMARK                         _______ _______ _______ _____ _____    ______ ____
ROOT
ATOM      1  C   UNL     1       2.604   5.554  19.870  0.00  0.00    +0.000 C 
ATOM      2  O   UNL     1       1.525   5.158  20.320  0.00  0.00    +0.000 OA
ATOM      3  N   UNL     1       2.928   6.890  19.674  0.00  0.00    +0.000 N 
ATOM      4  H   UNL     1       3.632   7.137  18.988  0.00  0.00    +0.000 HD
ENDROOT
BRANCH   3   5
ATOM      5  C   UNL     1       1.985   7.838  20.012  0.00  0.00    +0.000 A 
ATOM      6  C   UNL     1       1.332   8.077  21.193  0.00  0.00    +0.000 A 
ATOM      7  N   UNL     1       0.406   9.095  21.157  0.00  0.00    +0.000 NA
ATOM      8  C   UNL     1       0.276   9.536  19.921  0.00  0.00    +0.000 A 
ATOM      9  S   UNL     1       1.438   8.908  18.800  0.00  0.00    +0.000 S 
BRANCH   8  10
ATOM     10  C   UNL     1      -0.831  10.484  19.572  0.00  0.00    +0.000 A 
ATOM     11  C   UNL     1      -1.235  11.584  20.302  0.00  0.00    +0.000 A 
ATOM     12  N   UNL     1      -2.232  12.211  19.593  0.00  0.00    +0.000 N 
ATOM     13  C   UNL     1      -2.502  11.514  18.447  0.00  0.00    +0.000 A 
ATOM     14  N   UNL     1      -3.448  11.857  17.553  0.00  0.00    +0.000 NA
ATOM     15  C   UNL     1      -3.512  11.002  16.503  0.00  0.00    +0.000 A 
ATOM     16  C   UNL     1      -2.701   9.892  16.309  0.00  0.00    +0.000 A 
ATOM     17  C   UNL     1      -1.729   9.595  17.261  0.00  0.00    +0.000 A 
ATOM     18  C   UNL     1      -1.633  10.432  18.390  0.00  0.00    +0.000 A 
ATOM     19  H   UNL     1      -2.710  13.064  19.850  0.00  0.00    +0.000 HD
ENDBRANCH   8  10
ENDBRANCH   3   5
BRANCH   1  20
ATOM     20  C   UNL     1       3.676   4.559  19.438  0.00  0.00    +0.000 C 
BRANCH  20  25
ATOM     21  C   UNL     1       5.900   5.903  16.629  0.00  0.00    +0.000 A 
ATOM     22  C   UNL     1       7.075   6.206  17.315  0.00  0.00    +0.000 A 
ATOM     23  C   UNL     1       7.147   5.992  18.690  0.00  0.00    +0.000 A 
ATOM     24  C   UNL     1       6.048   5.475  19.386  0.00  0.00    +0.000 A 
ATOM     25  C   UNL     1       4.850   5.182  18.713  0.00  0.00    +0.000 A 
ATOM     26  C   UNL     1       4.793   5.401  17.327  0.00  0.00    +0.000 A 
BRANCH  21  27
ATOM     27  N   UNL     1       5.889   5.981  15.205  0.00  0.00    +0.000 N 
ATOM     28  H   UNL     1       6.126   6.893  14.807  0.00  0.00    +0.000 HD
BRANCH  27  30
ATOM     29  C   UNL     1       5.361   4.065  13.364  0.00  0.00    +0.000 C 
ATOM     30  S   UNL     1       6.677   4.745  14.353  0.00  0.00    +0.000 S 
ATOM     31  O   UNL     1       7.047   3.752  15.330  0.00  0.00    +0.000 OA
ATOM     32  O   UNL     1       7.666   5.333  13.459  0.00  0.00    +0.000 OA
ENDBRANCH  27  30
ENDBRANCH  21  27
ENDBRANCH  20  25
ENDBRANCH   1  20
TORSDOF 6
ENDMDL
MODEL 6
REMARK VINA RESULT:      -8.2      3.119     10.951
REMARK  Name = 
REMARK  7 active torsions:
REMARK  status: ('A' for Active; 'I' for Inactive)
REMARK    1  A    between atoms: C_1  and  S_2
REMARK    2  A    between atoms: S_2  and  N_5
REMARK    3  A    between atoms: N_5  and  C_6
REMARK    4  A    between atoms: C_10  and  C_11
REMARK    5  A    between atoms: C_11  and  C_12
REMARK    6  A    between atoms: N_14  and  C_15
REMARK    7  A    between atoms: C_18  and  C_19
REMARK                            x       y       z     vdW  Elec       q    Type
REMARK                         _______ _______ _______ _____ _____    ______ ____
ROOT
ATOM      1  C   UNL     1       8.585   9.310  18.582  0.00  0.00    +0.000 C 
ATOM      2  O   UNL     1       7.774   9.843  17.819  0.00  0.00    +0.000 OA
ATOM      3  N   UNL     1       8.641   7.946  18.838  0.00  0.00    +0.000 N 
ATOM      4  H   UNL     1       9.046   7.617  19.707  0.00  0.00    +0.000 HD
ENDROOT
BRANCH   3   5
ATOM      5  C   UNL     1       7.737   7.132  18.189  0.00  0.00    +0.000 A 
ATOM      6  C   UNL     1       7.278   7.144  16.898  0.00  0.00    +0.000 A 
ATOM      7  N   UNL     1       6.327   6.194  16.603  0.00  0.00    +0.000 NA
ATOM      8  C   UNL     1       5.985   5.549  17.702  0.00  0.00    +0.000 A 
ATOM      9  S   UNL     1       6.967   5.898  19.084  0.00  0.00    +0.000 S 
BRANCH   8  10
ATOM     10  C   UNL     1       4.807   4.623  17.696  0.00  0.00    +0.000 A 
ATOM     11  C   UNL     1       4.612   3.542  16.859  0.00  0.00    +0.000 A 
ATOM     12  N   UNL     1       3.441   2.929  17.234  0.00  0.00    +0.000 N 
ATOM     13  C   UNL     1       2.862   3.617  18.265  0.00  0.00    +0.000 A 
ATOM     14  N   UNL     1       1.691   3.284  18.839  0.00  0.00    +0.000 NA
ATOM     15  C   UNL     1       1.340   4.127  19.841  0.00  0.00    +0.000 A 
ATOM     16  C   UNL     1       2.078   5.215  20.284  0.00  0.00    +0.000 A 
ATOM     17  C   UNL     1       3.291   5.502  19.662  0.00  0.00    +0.000 A 
ATOM     18  C   UNL     1       3.696   4.678  18.594  0.00  0.00    +0.000 A 
ATOM     19  H   UNL     1       3.044   2.090  16.834  0.00  0.00    +0.000 HD
ENDBRANCH   8  10
ENDBRANCH   3   5
BRANCH   1  20
ATOM     20  C   UNL     1       9.586  10.155  19.361  0.00  0.00    +0.000 C 
BRANCH  20  25
ATOM     21  C   UNL     1       9.572  13.644  17.789  0.00  0.00    +0.000 A 
ATOM     22  C   UNL     1      10.823  13.686  17.176  0.00  0.00    +0.000 A 
ATOM     23  C   UNL     1      11.681  12.595  17.281  0.00  0.00    +0.000 A 
ATOM     24  C   UNL     1      11.296  11.456  17.999  0.00  0.00    +0.000 A 
ATOM     25  C   UNL     1      10.046  11.404  18.639  0.00  0.00    +0.000 A 
ATOM     26  C   UNL     1       9.190  12.512  18.522  0.00  0.00    +0.000 A 
BRANCH  21  27
ATOM     27  N   UNL     1       8.645  14.701  17.546  0.00  0.00    +0.000 N 
ATOM     28  H   UNL     1       7.660  14.427  17.495  0.00  0.00    +0.000 HD
BRANCH  27  30
ATOM     29  C   UNL     1       9.992  17.050  17.520  0.00  0.00    +0.000 C 
ATOM     30  S   UNL     1       8.815  16.111  18.471  0.00  0.00    +0.000 S 
ATOM     31  O   UNL     1       9.462  15.715  19.697  0.00  0.00    +0.000 OA
ATOM     32  O   UNL     1       7.550  16.835  18.481  0.00  0.00    +0.000 OA
ENDBRANCH  27  30
ENDBRANCH  21  27
ENDBRANCH  20  25
ENDBRANCH   1  20
TORSDOF 6
ENDMDL
MODEL 7
REMARK VINA RESULT:      -8.2      7.685     10.869
REMARK  Name = 
REMARK  7 active torsions:
REMARK  status: ('A' for Active; 'I' for Inactive)
REMARK    1  A    between atoms: C_1  and  S_2
REMARK    2  A    between atoms: S_2  and  N_5
REMARK    3  A    between atoms: N_5  and  C_6
REMARK    4  A    between atoms: C_10  and  C_11
REMARK    5  A    between atoms: C_11  and  C_12
REMARK    6  A    between atoms: N_14  and  C_15
REMARK    7  A    between atoms: C_18  and  C_19
REMARK                            x       y       z     vdW  Elec       q    Type
REMARK                         _______ _______ _______ _____ _____    ______ ____
ROOT
ATOM      1  C   UNL     1       0.174   8.823  21.343  0.00  0.00    +0.000 C 
ATOM      2  O   UNL     1      -0.647   7.915  21.501  0.00  0.00    +0.000 OA
ATOM      3  N   UNL     1       1.430   8.653  20.773  0.00  0.00    +0.000 N 
ATOM      4  H   UNL     1       2.172   9.305  20.998  0.00  0.00    +0.000 HD
ENDROOT
BRANCH   3   5
ATOM      5  C   UNL     1       1.778   7.389  20.348  0.00  0.00    +0.000 A 
ATOM      6  C   UNL     1       1.678   6.170  20.967  0.00  0.00    +0.000 A 
ATOM      7  N   UNL     1       2.174   5.105  20.251  0.00  0.00    +0.000 NA
ATOM      8  C   UNL     1       2.756   5.539  19.150  0.00  0.00    +0.000 A 
ATOM      9  S   UNL     1       2.516   7.221  18.817  0.00  0.00    +0.000 S 
BRANCH   8  10
ATOM     10  C   UNL     1       3.574   4.604  18.311  0.00  0.00    +0.000 A 
ATOM     11  C   UNL     1       3.650   3.232  18.441  0.00  0.00    +0.000 A 
ATOM     12  N   UNL     1       4.456   2.761  17.433  0.00  0.00    +0.000 N 
ATOM     13  C   UNL     1       4.930   3.805  16.686  0.00  0.00    +0.000 A 
ATOM     14  N   UNL     1       5.768   3.674  15.641  0.00  0.00    +0.000 NA
ATOM     15  C   UNL     1       6.084   4.861  15.070  0.00  0.00    +0.000 A 
ATOM     16  C   UNL     1       5.608   6.105  15.463  0.00  0.00    +0.000 A 
ATOM     17  C   UNL     1       4.731   6.177  16.543  0.00  0.00    +0.000 A 
ATOM     18  C   UNL     1       4.387   4.977  17.196  0.00  0.00    +0.000 A 
ATOM     19  H   UNL     1       4.680   1.794  17.241  0.00  0.00    +0.000 HD
ENDBRANCH   8  10
ENDBRANCH   3   5
BRANCH   1  20
ATOM     20  C   UNL     1      -0.130  10.236  21.826  0.00  0.00    +0.000 C 
BRANCH  20  25
ATOM     21  C   UNL     1      -1.104  11.700  18.427  0.00  0.00    +0.000 A 
ATOM     22  C   UNL     1      -0.762  13.042  18.585  0.00  0.00    +0.000 A 
ATOM     23  C   UNL     1      -0.231  13.482  19.795  0.00  0.00    +0.000 A 
ATOM     24  C   UNL     1      -0.037  12.585  20.853  0.00  0.00    +0.000 A 
ATOM     25  C   UNL     1      -0.394  11.233  20.717  0.00  0.00    +0.000 A 
ATOM     26  C   UNL     1      -0.928  10.804  19.490  0.00  0.00    +0.000 A 
BRANCH  21  27
ATOM     27  N   UNL     1      -1.502  11.233  17.139  0.00  0.00    +0.000 N 
ATOM     28  H   UNL     1      -0.868  10.568  16.691  0.00  0.00    +0.000 HD
BRANCH  27  30
ATOM     29  C   UNL     1      -3.295  10.666  15.189  0.00  0.00    +0.000 C 
ATOM     30  S   UNL     1      -3.110  10.726  16.959  0.00  0.00    +0.000 S 
ATOM     31  O   UNL     1      -3.932  11.806  17.448  0.00  0.00    +0.000 OA
ATOM     32  O   UNL     1      -3.249   9.373  17.482  0.00  0.00    +0.000 OA
ENDBRANCH  27  30
ENDBRANCH  21  27
ENDBRANCH  20  25
ENDBRANCH   1  20
TORSDOF 6
ENDMDL
MODEL 8
REMARK VINA RESULT:      -8.1      7.233      9.058
REMARK  Name = 
REMARK  7 active torsions:
REMARK  status: ('A' for Active; 'I' for Inactive)
REMARK    1  A    between atoms: C_1  and  S_2
REMARK    2  A    between atoms: S_2  and  N_5
REMARK    3  A    between atoms: N_5  and  C_6
REMARK    4  A    between atoms: C_10  and  C_11
REMARK    5  A    between atoms: C_11  and  C_12
REMARK    6  A    between atoms: N_14  and  C_15
REMARK    7  A    between atoms: C_18  and  C_19
REMARK                            x       y       z     vdW  Elec       q    Type
REMARK                         _______ _______ _______ _____ _____    ______ ____
ROOT
ATOM      1  C   UNL     1       1.678   6.763  20.389  0.00  0.00    +0.000 C 
ATOM      2  O   UNL     1       2.434   7.360  19.617  0.00  0.00    +0.000 OA
ATOM      3  N   UNL     1       0.793   7.387  21.259  0.00  0.00    +0.000 N 
ATOM      4  H   UNL     1       0.487   6.901  22.094  0.00  0.00    +0.000 HD
ENDROOT
BRANCH   3   5
ATOM      5  C   UNL     1       0.747   8.765  21.251  0.00  0.00    +0.000 A 
ATOM      6  C   UNL     1       1.437   9.694  21.986  0.00  0.00    +0.000 A 
ATOM      7  N   UNL     1       1.097  11.005  21.743  0.00  0.00    +0.000 NA
ATOM      8  C   UNL     1       0.070  11.055  20.917  0.00  0.00    +0.000 A 
ATOM      9  S   UNL     1      -0.371   9.535  20.215  0.00  0.00    +0.000 S 
BRANCH   8  10
ATOM     10  C   UNL     1      -0.638  12.353  20.672  0.00  0.00    +0.000 A 
ATOM     11  C   UNL     1      -0.866  12.949  19.448  0.00  0.00    +0.000 A 
ATOM     12  N   UNL     1      -1.603  14.088  19.669  0.00  0.00    +0.000 N 
ATOM     13  C   UNL     1      -1.817  14.254  21.010  0.00  0.00    +0.000 A 
ATOM     14  N   UNL     1      -2.484  15.290  21.551  0.00  0.00    +0.000 NA
ATOM     15  C   UNL     1      -2.559  15.217  22.903  0.00  0.00    +0.000 A 
ATOM     16  C   UNL     1      -2.042  14.199  23.692  0.00  0.00    +0.000 A 
ATOM     17  C   UNL     1      -1.374  13.144  23.074  0.00  0.00    +0.000 A 
ATOM     18  C   UNL     1      -1.240  13.178  21.672  0.00  0.00    +0.000 A 
ATOM     19  H   UNL     1      -1.956  14.723  18.967  0.00  0.00    +0.000 HD
ENDBRANCH   8  10
ENDBRANCH   3   5
BRANCH   1  20
ATOM     20  C   UNL     1       1.706   5.241  20.478  0.00  0.00    +0.000 C 
BRANCH  20  25
ATOM     21  C   UNL     1       4.672   3.845  18.504  0.00  0.00    +0.000 A 
ATOM     22  C   UNL     1       4.062   3.444  17.317  0.00  0.00    +0.000 A 
ATOM     23  C   UNL     1       2.688   3.609  17.156  0.00  0.00    +0.000 A 
ATOM     24  C   UNL     1       1.917   4.174  18.178  0.00  0.00    +0.000 A 
ATOM     25  C   UNL     1       2.513   4.567  19.389  0.00  0.00    +0.000 A 
ATOM     26  C   UNL     1       3.900   4.396  19.536  0.00  0.00    +0.000 A 
BRANCH  21  27
ATOM     27  N   UNL     1       6.095   3.813  18.598  0.00  0.00    +0.000 N 
ATOM     28  H   UNL     1       6.533   2.906  18.419  0.00  0.00    +0.000 HD
BRANCH  27  30
ATOM     29  C   UNL     1       7.861   5.792  19.149  0.00  0.00    +0.000 C 
ATOM     30  S   UNL     1       6.954   5.046  17.811  0.00  0.00    +0.000 S 
ATOM     31  O   UNL     1       5.971   6.001  17.364  0.00  0.00    +0.000 OA
ATOM     32  O   UNL     1       7.908   4.451  16.884  0.00  0.00    +0.000 OA
ENDBRANCH  27  30
ENDBRANCH  21  27
ENDBRANCH  20  25
ENDBRANCH   1  20
TORSDOF 6
ENDMDL
MODEL 9
REMARK VINA RESULT:      -8.1      6.206      7.798
REMARK  Name = 
REMARK  7 active torsions:
REMARK  status: ('A' for Active; 'I' for Inactive)
REMARK    1  A    between atoms: C_1  and  S_2
REMARK    2  A    between atoms: S_2  and  N_5
REMARK    3  A    between atoms: N_5  and  C_6
REMARK    4  A    between atoms: C_10  and  C_11
REMARK    5  A    between atoms: C_11  and  C_12
REMARK    6  A    between atoms: N_14  and  C_15
REMARK    7  A    between atoms: C_18  and  C_19
REMARK                            x       y       z     vdW  Elec       q    Type
REMARK                         _______ _______ _______ _____ _____    ______ ____
ROOT
ATOM      1  C   UNL     1       1.664   6.967  20.418  0.00  0.00    +0.000 C 
ATOM      2  O   UNL     1       2.539   7.465  19.703  0.00  0.00    +0.000 OA
ATOM      3  N   UNL     1       0.749   7.701  21.162  0.00  0.00    +0.000 N 
ATOM      4  H   UNL     1       0.322   7.282  21.981  0.00  0.00    +0.000 HD
ENDROOT
BRANCH   3   5
ATOM      5  C   UNL     1       0.815   9.075  21.090  0.00  0.00    +0.000 A 
ATOM      6  C   UNL     1       1.149  10.012  22.034  0.00  0.00    +0.000 A 
ATOM      7  N   UNL     1       1.062  11.321  21.618  0.00  0.00    +0.000 NA
ATOM      8  C   UNL     1       0.547  11.372  20.406  0.00  0.00    +0.000 A 
ATOM      9  S   UNL     1       0.372   9.835  19.627  0.00  0.00    +0.000 S 
BRANCH   8  10
ATOM     10  C   UNL     1       0.136  12.687  19.816  0.00  0.00    +0.000 A 
ATOM     11  C   UNL     1      -1.155  13.114  19.574  0.00  0.00    +0.000 A 
ATOM     12  N   UNL     1      -1.086  14.400  19.094  0.00  0.00    +0.000 N 
ATOM     13  C   UNL     1       0.222  14.789  18.984  0.00  0.00    +0.000 A 
ATOM     14  N   UNL     1       0.622  15.986  18.517  0.00  0.00    +0.000 NA
ATOM     15  C   UNL     1       1.971  16.123  18.513  0.00  0.00    +0.000 A 
ATOM     16  C   UNL     1       2.885  15.175  18.952  0.00  0.00    +0.000 A 
ATOM     17  C   UNL     1       2.410  13.959  19.439  0.00  0.00    +0.000 A 
ATOM     18  C   UNL     1       1.018  13.747  19.442  0.00  0.00    +0.000 A 
ATOM     19  H   UNL     1      -1.865  14.997  18.854  0.00  0.00    +0.000 HD
ENDBRANCH   8  10
ENDBRANCH   3   5
BRANCH   1  20
ATOM     20  C   UNL     1       1.559   5.454  20.574  0.00  0.00    +0.000 C 
BRANCH  20  25
ATOM     21  C   UNL     1       4.336   3.727  18.586  0.00  0.00    +0.000 A 
ATOM     22  C   UNL     1       3.656   3.321  17.439  0.00  0.00    +0.000 A 
ATOM     23  C   UNL     1       2.295   3.590  17.310  0.00  0.00    +0.000 A 
ATOM     24  C   UNL     1       1.607   4.265  18.326  0.00  0.00    +0.000 A 
ATOM     25  C   UNL     1       2.273   4.664  19.497  0.00  0.00    +0.000 A 
ATOM     26  C   UNL     1       3.645   4.388  19.611  0.00  0.00    +0.000 A 
BRANCH  21  27
ATOM     27  N   UNL     1       5.754   3.582  18.639  0.00  0.00    +0.000 N 
ATOM     28  H   UNL     1       6.115   2.649  18.428  0.00  0.00    +0.000 HD
BRANCH  27  30
ATOM     29  C   UNL     1       6.516   4.308  16.143  0.00  0.00    +0.000 C 
ATOM     30  S   UNL     1       6.685   4.763  17.856  0.00  0.00    +0.000 S 
ATOM     31  O   UNL     1       8.053   4.519  18.240  0.00  0.00    +0.000 OA
ATOM     32  O   UNL     1       6.066   6.068  18.048  0.00  0.00    +0.000 OA
ENDBRANCH  27  30
ENDBRANCH  21  27
ENDBRANCH  20  25
ENDBRANCH   1  20
TORSDOF 6
ENDMDL
