MODEL 1
REMARK VINA RESULT:      -8.7      0.000      0.000
REMARK  Name = 
REMARK  5 active torsions:
REMARK  status: ('A' for Active; 'I' for Inactive)
REMARK    1  A    between atoms: C_1  and  C_2
REMARK    2  A    between atoms: N_4  and  C_5
REMARK    3  A    between atoms: C_5  and  C_6
REMARK    4  A    between atoms: C_12  and  C_13
REMARK    5  A    between atoms: C_16  and  C_17
REMARK                            x       y       z     vdW  Elec       q    Type
REMARK                         _______ _______ _______ _____ _____    ______ ____
ROOT
ATOM      1  C   UNL     1       5.631   4.851  18.651  0.00  0.00    +0.000 A 
ATOM      2  N   UNL     1       4.751   5.777  18.885  0.00  0.00    +0.000 NA
ATOM      3  N   UNL     1       3.645   5.357  19.569  0.00  0.00    +0.000 N 
ATOM      4  C   UNL     1       2.538   6.092  19.967  0.00  0.00    +0.000 A 
ATOM      5  N   UNL     1       1.702   5.339  20.662  0.00  0.00    +0.000 NA
ATOM      6  C   UNL     1       2.260   4.092  20.695  0.00  0.00    +0.000 A 
ATOM      7  C   UNL     1       3.451   4.083  20.014  0.00  0.00    +0.000 A 
ATOM      8  C   UNL     1       4.401   3.071  19.733  0.00  0.00    +0.000 A 
ATOM      9  O   UNL     1       4.316   1.897  20.095  0.00  0.00    +0.000 OA
ATOM     10  N   UNL     1       5.472   3.530  19.017  0.00  0.00    +0.000 N 
ATOM     11  H   UNL     1       6.169   2.824  18.809  0.00  0.00    +0.000 HD
ENDROOT
BRANCH   1  17
ATOM     12  C   UNL     1       7.791   7.546  18.129  0.00  0.00    +0.000 C 
ATOM     13  C   UNL     1       7.000   6.557  17.278  0.00  0.00    +0.000 C 
ATOM     14  C   UNL     1       7.646   6.320  15.912  0.00  0.00    +0.000 C 
ATOM     15  N   UNL     1       7.209   4.979  15.488  0.00  0.00    +0.000 NA
ATOM     16  C   UNL     1       7.171   4.200  16.737  0.00  0.00    +0.000 C 
ATOM     17  C   UNL     1       6.937   5.162  17.910  0.00  0.00    +0.000 C 
BRANCH  15  18
ATOM     18  C   UNL     1       5.931   5.046  14.748  0.00  0.00    +0.000 C 
BRANCH  18  19
ATOM     19  C   UNL     1       5.898   4.207  13.506  0.00  0.00    +0.000 A 
ATOM     20  C   UNL     1       4.922   3.467  12.861  0.00  0.00    +0.000 A 
ATOM     21  C   UNL     1       5.556   2.833  11.761  0.00  0.00    +0.000 A 
ATOM     22  C   UNL     1       6.861   3.261  11.774  0.00  0.00    +0.000 A 
ATOM     23  O   UNL     1       7.081   4.083  12.834  0.00  0.00    +0.000 OA
ENDBRANCH  18  19
ENDBRANCH  15  18
ENDBRANCH   1  17
BRANCH   4  24
ATOM     24  C   UNL     1       2.293   7.539  19.654  0.00  0.00    +0.000 C 
ATOM     25  C   UNL     1       1.212   8.161  20.540  0.00  0.00    +0.000 C 
ATOM     26  C   UNL     1       0.958   9.606  20.137  0.00  0.00    +0.000 C 
ATOM     27  O   UNL     1       0.648   9.697  18.747  0.00  0.00    +0.000 OA
ATOM     28  C   UNL     1       1.731   9.261  17.926  0.00  0.00    +0.000 C 
ATOM     29  C   UNL     1       2.029   7.787  18.168  0.00  0.00    +0.000 C 
ENDBRANCH   4  24
TORSDOF 4
ENDMDL
MODEL 2
REMARK VINA RESULT:      -7.8      7.430     11.481
REMARK  Name = 
REMARK  5 active torsions:
REMARK  status: ('A' for Active; 'I' for Inactive)
REMARK    1  A    between atoms: C_1  and  C_2
REMARK    2  A    between atoms: N_4  and  C_5
REMARK    3  A    between atoms: C_5  and  C_6
REMARK    4  A    between atoms: C_12  and  C_13
REMARK    5  A    between atoms: C_16  and  C_17
REMARK                            x       y       z     vdW  Elec       q    Type
REMARK                         _______ _______ _______ _____ _____    ______ ____
ROOT
ATOM      1  C   UNL     1      -1.419  11.447  18.597  0.00  0.00    +0.000 A 
ATOM      2  N   UNL     1      -2.467  11.843  19.258  0.00  0.00    +0.000 NA
ATOM      3  N   UNL     1      -3.632  11.830  18.545  0.00  0.00    +0.000 N 
ATOM      4  C   UNL     1      -4.906  12.191  18.956  0.00  0.00    +0.000 A 
ATOM      5  N   UNL     1      -5.786  11.983  17.991  0.00  0.00    +0.000 NA
ATOM      6  C   UNL     1      -5.070  11.505  16.929  0.00  0.00    +0.000 A 
ATOM      7  C   UNL     1      -3.740  11.418  17.250  0.00  0.00    +0.000 A 
ATOM      8  C   UNL     1      -2.591  11.013  16.526  0.00  0.00    +0.000 A 
ATOM      9  O   UNL     1      -2.589  10.621  15.359  0.00  0.00    +0.000 OA
ATOM     10  N   UNL     1      -1.444  11.076  17.269  0.00  0.00    +0.000 N 
ATOM     11  H   UNL     1      -0.609  10.785  16.774  0.00  0.00    +0.000 HD
ENDROOT
BRANCH   1  17
ATOM     12  C   UNL     1       1.335   9.305  18.758  0.00  0.00    +0.000 C 
ATOM     13  C   UNL     1       0.384   9.990  19.735  0.00  0.00    +0.000 C 
ATOM     14  C   UNL     1       1.032  10.240  21.098  0.00  0.00    +0.000 C 
ATOM     15  N   UNL     1       0.319  11.390  21.677  0.00  0.00    +0.000 NA
ATOM     16  C   UNL     1       0.031  12.256  20.521  0.00  0.00    +0.000 C 
ATOM     17  C   UNL     1      -0.038  11.385  19.259  0.00  0.00    +0.000 C 
BRANCH  15  18
ATOM     18  C   UNL     1      -0.865  10.951  22.445  0.00  0.00    +0.000 C 
BRANCH  18  19
ATOM     19  C   UNL     1      -1.679  12.074  23.014  0.00  0.00    +0.000 A 
ATOM     20  C   UNL     1      -3.034  12.310  23.168  0.00  0.00    +0.000 A 
ATOM     21  C   UNL     1      -3.159  13.614  23.712  0.00  0.00    +0.000 A 
ATOM     22  C   UNL     1      -1.877  14.073  23.902  0.00  0.00    +0.000 A 
ATOM     23  O   UNL     1      -0.975  13.153  23.471  0.00  0.00    +0.000 OA
ENDBRANCH  18  19
ENDBRANCH  15  18
ENDBRANCH   1  17
BRANCH   4  24
ATOM     24  C   UNL     1      -5.263  12.754  20.301  0.00  0.00    +0.000 C 
ATOM     25  C   UNL     1      -6.431  12.020  20.959  0.00  0.00    +0.000 C 
ATOM     26  C   UNL     1      -6.792  12.672  22.285  0.00  0.00    +0.000 C 
ATOM     27  O   UNL     1      -7.047  14.066  22.112  0.00  0.00    +0.000 OA
ATOM     28  C   UNL     1      -5.895  14.768  21.647  0.00  0.00    +0.000 C 
ATOM     29  C   UNL     1      -5.481  14.268  20.269  0.00  0.00    +0.000 C 
ENDBRANCH   4  24
TORSDOF 4
ENDMDL
MODEL 3
REMARK VINA RESULT:      -7.7      0.478      1.042
REMARK  Name = 
REMARK  5 active torsions:
REMARK  status: ('A' for Active; 'I' for Inactive)
REMARK    1  A    between atoms: C_1  and  C_2
REMARK    2  A    between atoms: N_4  and  C_5
REMARK    3  A    between atoms: C_5  and  C_6
REMARK    4  A    between atoms: C_12  and  C_13
REMARK    5  A    between atoms: C_16  and  C_17
REMARK                            x       y       z     vdW  Elec       q    Type
REMARK                         _______ _______ _______ _____ _____    ______ ____
ROOT
ATOM      1  C   UNL     1       5.546   4.807  18.635  0.00  0.00    +0.000 A 
ATOM      2  N   UNL     1       4.513   5.585  18.760  0.00  0.00    +0.000 NA
ATOM      3  N   UNL     1       3.499   5.075  19.519  0.00  0.00    +0.000 N 
ATOM      4  C   UNL     1       2.277   5.649  19.838  0.00  0.00    +0.000 A 
ATOM      5  N   UNL     1       1.588   4.863  20.648  0.00  0.00    +0.000 NA
ATOM      6  C   UNL     1       2.361   3.751  20.838  0.00  0.00    +0.000 A 
ATOM      7  C   UNL     1       3.535   3.860  20.139  0.00  0.00    +0.000 A 
ATOM      8  C   UNL     1       4.652   3.004  19.978  0.00  0.00    +0.000 A 
ATOM      9  O   UNL     1       4.778   1.896  20.499  0.00  0.00    +0.000 OA
ATOM     10  N   UNL     1       5.625   3.543  19.182  0.00  0.00    +0.000 N 
ATOM     11  H   UNL     1       6.438   2.951  19.057  0.00  0.00    +0.000 HD
ENDROOT
BRANCH   1  17
ATOM     12  C   UNL     1       7.316   7.723  17.884  0.00  0.00    +0.000 C 
ATOM     13  C   UNL     1       6.637   6.591  17.119  0.00  0.00    +0.000 C 
ATOM     14  C   UNL     1       7.267   6.359  15.745  0.00  0.00    +0.000 C 
ATOM     15  N   UNL     1       6.997   4.950  15.412  0.00  0.00    +0.000 NA
ATOM     16  C   UNL     1       7.100   4.248  16.703  0.00  0.00    +0.000 C 
ATOM     17  C   UNL     1       6.777   5.240  17.830  0.00  0.00    +0.000 C 
BRANCH  15  18
ATOM     18  C   UNL     1       5.699   4.806  14.719  0.00  0.00    +0.000 C 
BRANCH  18  19
ATOM     19  C   UNL     1       5.772   4.034  13.436  0.00  0.00    +0.000 A 
ATOM     20  C   UNL     1       4.848   3.368  12.650  0.00  0.00    +0.000 A 
ATOM     21  C   UNL     1       5.576   2.766  11.591  0.00  0.00    +0.000 A 
ATOM     22  C   UNL     1       6.886   3.140  11.767  0.00  0.00    +0.000 A 
ATOM     23  O   UNL     1       7.017   3.897  12.888  0.00  0.00    +0.000 OA
ENDBRANCH  18  19
ENDBRANCH  15  18
ENDBRANCH   1  17
BRANCH   4  24
ATOM     24  C   UNL     1       1.777   6.971  19.335  0.00  0.00    +0.000 C 
ATOM     25  C   UNL     1       2.597   7.507  18.161  0.00  0.00    +0.000 C 
ATOM     26  C   UNL     1       2.089   8.876  17.736  0.00  0.00    +0.000 C 
ATOM     27  O   UNL     1       2.065   9.775  18.845  0.00  0.00    +0.000 OA
ATOM     28  C   UNL     1       1.170   9.341  19.868  0.00  0.00    +0.000 C 
ATOM     29  C   UNL     1       1.625   8.008  20.449  0.00  0.00    +0.000 C 
ENDBRANCH   4  24
TORSDOF 4
ENDMDL
MODEL 4
REMARK VINA RESULT:      -7.6      2.187      4.104
REMARK  Name = 
REMARK  5 active torsions:
REMARK  status: ('A' for Active; 'I' for Inactive)
REMARK    1  A    between atoms: C_1  and  C_2
REMARK    2  A    between atoms: N_4  and  C_5
REMARK    3  A    between atoms: C_5  and  C_6
REMARK    4  A    between atoms: C_12  and  C_13
REMARK    5  A    between atoms: C_16  and  C_17
REMARK                            x       y       z     vdW  Elec       q    Type
REMARK                         _______ _______ _______ _____ _____    ______ ____
ROOT
ATOM      1  C   UNL     1       3.994   5.058  17.525  0.00  0.00    +0.000 A 
ATOM      2  N   UNL     1       3.456   6.034  18.194  0.00  0.00    +0.000 NA
ATOM      3  N   UNL     1       2.700   5.647  19.264  0.00  0.00    +0.000 N 
ATOM      4  C   UNL     1       2.001   6.436  20.165  0.00  0.00    +0.000 A 
ATOM      5  N   UNL     1       1.439   5.690  21.101  0.00  0.00    +0.000 NA
ATOM      6  C   UNL     1       1.754   4.397  20.790  0.00  0.00    +0.000 A 
ATOM      7  C   UNL     1       2.519   4.353  19.653  0.00  0.00    +0.000 A 
ATOM      8  C   UNL     1       3.086   3.291  18.905  0.00  0.00    +0.000 A 
ATOM      9  O   UNL     1       2.983   2.095  19.180  0.00  0.00    +0.000 OA
ATOM     10  N   UNL     1       3.803   3.725  17.824  0.00  0.00    +0.000 N 
ATOM     11  H   UNL     1       4.224   2.983  17.277  0.00  0.00    +0.000 HD
ENDROOT
BRANCH   1  17
ATOM     12  C   UNL     1       5.965   3.277  15.257  0.00  0.00    +0.000 C 
ATOM     13  C   UNL     1       6.139   4.445  16.223  0.00  0.00    +0.000 C 
ATOM     14  C   UNL     1       7.243   5.407  15.780  0.00  0.00    +0.000 C 
ATOM     15  N   UNL     1       6.898   6.712  16.367  0.00  0.00    +0.000 NA
ATOM     16  C   UNL     1       5.428   6.761  16.299  0.00  0.00    +0.000 C 
ATOM     17  C   UNL     1       4.886   5.325  16.307  0.00  0.00    +0.000 C 
BRANCH  15  18
ATOM     18  C   UNL     1       7.472   6.854  17.722  0.00  0.00    +0.000 C 
BRANCH  18  19
ATOM     19  C   UNL     1       7.985   8.229  18.029  0.00  0.00    +0.000 A 
ATOM     20  C   UNL     1       7.803   9.481  17.468  0.00  0.00    +0.000 A 
ATOM     21  C   UNL     1       8.642  10.372  18.185  0.00  0.00    +0.000 A 
ATOM     22  C   UNL     1       9.245   9.623  19.166  0.00  0.00    +0.000 A 
ATOM     23  O   UNL     1       8.864   8.322  19.072  0.00  0.00    +0.000 OA
ENDBRANCH  18  19
ENDBRANCH  15  18
ENDBRANCH   1  17
BRANCH   4  24
ATOM     24  C   UNL     1       1.874   7.930  20.102  0.00  0.00    +0.000 C 
ATOM     25  C   UNL     1       0.914   8.487  21.154  0.00  0.00    +0.000 C 
ATOM     26  C   UNL     1       0.772   9.994  21.002  0.00  0.00    +0.000 C 
ATOM     27  O   UNL     1       0.387  10.335  19.671  0.00  0.00    +0.000 OA
ATOM     28  C   UNL     1       1.372   9.950  18.712  0.00  0.00    +0.000 C 
ATOM     29  C   UNL     1       1.544   8.437  18.698  0.00  0.00    +0.000 C 
ENDBRANCH   4  24
TORSDOF 4
ENDMDL
MODEL 5
REMARK VINA RESULT:      -7.5      2.691      7.578
REMARK  Name = 
REMARK  5 active torsions:
REMARK  status: ('A' for Active; 'I' for Inactive)
REMARK    1  A    between atoms: C_1  and  C_2
REMARK    2  A    between atoms: N_4  and  C_5
REMARK    3  A    between atoms: C_5  and  C_6
REMARK    4  A    between atoms: C_12  and  C_13
REMARK    5  A    between atoms: C_16  and  C_17
REMARK                            x       y       z     vdW  Elec       q    Type
REMARK                         _______ _______ _______ _____ _____    ______ ____
ROOT
ATOM      1  C   UNL     1       2.157   7.040  19.666  0.00  0.00    +0.000 A 
ATOM      2  N   UNL     1       3.015   6.703  18.749  0.00  0.00    +0.000 NA
ATOM      3  N   UNL     1       3.128   5.358  18.537  0.00  0.00    +0.000 N 
ATOM      4  C   UNL     1       3.946   4.685  17.642  0.00  0.00    +0.000 A 
ATOM      5  N   UNL     1       3.724   3.382  17.693  0.00  0.00    +0.000 NA
ATOM      6  C   UNL     1       2.767   3.203  18.653  0.00  0.00    +0.000 A 
ATOM      7  C   UNL     1       2.400   4.409  19.192  0.00  0.00    +0.000 A 
ATOM      8  C   UNL     1       1.485   4.781  20.209  0.00  0.00    +0.000 A 
ATOM      9  O   UNL     1       0.781   4.000  20.850  0.00  0.00    +0.000 OA
ATOM     10  N   UNL     1       1.432   6.133  20.410  0.00  0.00    +0.000 N 
ATOM     11  H   UNL     1       0.779   6.423  21.128  0.00  0.00    +0.000 HD
ENDROOT
BRANCH   1  17
ATOM     12  C   UNL     1       0.787   8.941  22.256  0.00  0.00    +0.000 C 
ATOM     13  C   UNL     1       0.583   8.775  20.752  0.00  0.00    +0.000 C 
ATOM     14  C   UNL     1       0.032  10.043  20.097  0.00  0.00    +0.000 C 
ATOM     15  N   UNL     1       0.468   9.991  18.692  0.00  0.00    +0.000 NA
ATOM     16  C   UNL     1       1.809   9.386  18.752  0.00  0.00    +0.000 C 
ATOM     17  C   UNL     1       1.899   8.511  20.011  0.00  0.00    +0.000 C 
BRANCH  15  18
ATOM     18  C   UNL     1      -0.513   9.266  17.857  0.00  0.00    +0.000 C 
BRANCH  18  19
ATOM     19  C   UNL     1      -1.687  10.096  17.432  0.00  0.00    +0.000 A 
ATOM     20  C   UNL     1      -2.345  11.192  17.963  0.00  0.00    +0.000 A 
ATOM     21  C   UNL     1      -3.445  11.458  17.107  0.00  0.00    +0.000 A 
ATOM     22  C   UNL     1      -3.363  10.544  16.084  0.00  0.00    +0.000 A 
ATOM     23  O   UNL     1      -2.310   9.707  16.279  0.00  0.00    +0.000 OA
ENDBRANCH  18  19
ENDBRANCH  15  18
ENDBRANCH   1  17
BRANCH   4  24
ATOM     24  C   UNL     1       4.961   5.321  16.738  0.00  0.00    +0.000 C 
ATOM     25  C   UNL     1       5.359   4.421  15.568  0.00  0.00    +0.000 C 
ATOM     26  C   UNL     1       6.436   5.087  14.724  0.00  0.00    +0.000 C 
ATOM     27  O   UNL     1       7.551   5.464  15.531  0.00  0.00    +0.000 OA
ATOM     28  C   UNL     1       7.195   6.429  16.520  0.00  0.00    +0.000 C 
ATOM     29  C   UNL     1       6.180   5.849  17.496  0.00  0.00    +0.000 C 
ENDBRANCH   4  24
TORSDOF 4
ENDMDL
MODEL 6
REMARK VINA RESULT:      -7.3      2.047      6.737
REMARK  Name = 
REMARK  5 active torsions:
REMARK  status: ('A' for Active; 'I' for Inactive)
REMARK    1  A    between atoms: C_1  and  C_2
REMARK    2  A    between atoms: N_4  and  C_5
REMARK    3  A    between atoms: C_5  and  C_6
REMARK    4  A    between atoms: C_12  and  C_13
REMARK    5  A    between atoms: C_16  and  C_17
REMARK                            x       y       z     vdW  Elec       q    Type
REMARK                         _______ _______ _______ _____ _____    ______ ____
ROOT
ATOM      1  C   UNL     1       4.066   5.488  18.150  0.00  0.00    +0.000 A 
ATOM      2  N   UNL     1       4.540   5.244  16.965  0.00  0.00    +0.000 NA
ATOM      3  N   UNL     1       5.875   4.959  16.929  0.00  0.00    +0.000 N 
ATOM      4  C   UNL     1       6.671   4.660  15.833  0.00  0.00    +0.000 A 
ATOM      5  N   UNL     1       7.907   4.383  16.214  0.00  0.00    +0.000 NA
ATOM      6  C   UNL     1       7.921   4.529  17.573  0.00  0.00    +0.000 A 
ATOM      7  C   UNL     1       6.681   4.897  18.027  0.00  0.00    +0.000 A 
ATOM      8  C   UNL     1       6.165   5.190  19.314  0.00  0.00    +0.000 A 
ATOM      9  O   UNL     1       6.811   5.156  20.362  0.00  0.00    +0.000 OA
ATOM     10  N   UNL     1       4.834   5.504  19.296  0.00  0.00    +0.000 N 
ATOM     11  H   UNL     1       4.441   5.711  20.206  0.00  0.00    +0.000 HD
ENDROOT
BRANCH   1  17
ATOM     12  C   UNL     1       2.084   7.889  19.733  0.00  0.00    +0.000 C 
ATOM     13  C   UNL     1       2.239   6.371  19.747  0.00  0.00    +0.000 C 
ATOM     14  C   UNL     1       0.941   5.658  20.131  0.00  0.00    +0.000 C 
ATOM     15  N   UNL     1       1.020   4.322  19.518  0.00  0.00    +0.000 NA
ATOM     16  C   UNL     1       1.704   4.553  18.235  0.00  0.00    +0.000 C 
ATOM     17  C   UNL     1       2.582   5.807  18.364  0.00  0.00    +0.000 C 
BRANCH  15  18
ATOM     18  C   UNL     1       1.685   3.360  20.422  0.00  0.00    +0.000 C 
BRANCH  18  19
ATOM     19  C   UNL     1       2.734   2.519  19.759  0.00  0.00    +0.000 A 
ATOM     20  C   UNL     1       2.737   1.630  18.698  0.00  0.00    +0.000 A 
ATOM     21  C   UNL     1       4.050   1.098  18.620  0.00  0.00    +0.000 A 
ATOM     22  C   UNL     1       4.777   1.729  19.601  0.00  0.00    +0.000 A 
ATOM     23  O   UNL     1       3.986   2.582  20.304  0.00  0.00    +0.000 OA
ENDBRANCH  18  19
ENDBRANCH  15  18
ENDBRANCH   1  17
BRANCH   4  24
ATOM     24  C   UNL     1       6.221   4.657  14.402  0.00  0.00    +0.000 C 
ATOM     25  C   UNL     1       5.292   3.486  14.077  0.00  0.00    +0.000 C 
ATOM     26  C   UNL     1       4.920   3.494  12.601  0.00  0.00    +0.000 C 
ATOM     27  O   UNL     1       6.090   3.510  11.784  0.00  0.00    +0.000 OA
ATOM     28  C   UNL     1       6.867   4.690  11.984  0.00  0.00    +0.000 C 
ATOM     29  C   UNL     1       7.385   4.756  13.415  0.00  0.00    +0.000 C 
ENDBRANCH   4  24
TORSDOF 4
ENDMDL
MODEL 7
REMARK VINA RESULT:      -7.0      8.697     12.653
REMARK  Name = 
REMARK  5 active torsions:
REMARK  status: ('A' for Active; 'I' for Inactive)
REMARK    1  A    between atoms: C_1  and  C_2
REMARK    2  A    between atoms: N_4  and  C_5
REMARK    3  A    between atoms: C_5  and  C_6
REMARK    4  A    between atoms: C_12  and  C_13
REMARK    5  A    between atoms: C_16  and  C_17
REMARK                            x       y       z     vdW  Elec       q    Type
REMARK                         _______ _______ _______ _____ _____    ______ ____
ROOT
ATOM      1  C   UNL     1      -2.788  12.169  19.170  0.00  0.00    +0.000 A 
ATOM      2  N   UNL     1      -3.653  12.483  20.088  0.00  0.00    +0.000 NA
ATOM      3  N   UNL     1      -4.960  12.345  19.714  0.00  0.00    +0.000 N 
ATOM      4  C   UNL     1      -6.106  12.597  20.453  0.00  0.00    +0.000 A 
ATOM      5  N   UNL     1      -7.188  12.284  19.759  0.00  0.00    +0.000 NA
ATOM      6  C   UNL     1      -6.740  11.848  18.544  0.00  0.00    +0.000 A 
ATOM      7  C   UNL     1      -5.371  11.892  18.495  0.00  0.00    +0.000 A 
ATOM      8  C   UNL     1      -4.424  11.578  17.489  0.00  0.00    +0.000 A 
ATOM      9  O   UNL     1      -4.696  11.158  16.364  0.00  0.00    +0.000 OA
ATOM     10  N   UNL     1      -3.132  11.764  17.897  0.00  0.00    +0.000 N 
ATOM     11  H   UNL     1      -2.435  11.539  17.196  0.00  0.00    +0.000 HD
ENDROOT
BRANCH   1  17
ATOM     12  C   UNL     1       0.074  10.210  18.758  0.00  0.00    +0.000 C 
ATOM     13  C   UNL     1      -0.637  10.938  19.896  0.00  0.00    +0.000 C 
ATOM     14  C   UNL     1       0.326  11.361  21.007  0.00  0.00    +0.000 C 
ATOM     15  N   UNL     1      -0.300  12.523  21.659  0.00  0.00    +0.000 NA
ATOM     16  C   UNL     1      -0.951  13.249  20.556  0.00  0.00    +0.000 C 
ATOM     17  C   UNL     1      -1.280  12.251  19.436  0.00  0.00    +0.000 C 
BRANCH  15  18
ATOM     18  C   UNL     1      -1.200  12.099  22.752  0.00  0.00    +0.000 C 
BRANCH  18  19
ATOM     19  C   UNL     1      -1.794  13.233  23.532  0.00  0.00    +0.000 A 
ATOM     20  C   UNL     1      -3.080  13.591  23.900  0.00  0.00    +0.000 A 
ATOM     21  C   UNL     1      -2.977  14.835  24.573  0.00  0.00    +0.000 A 
ATOM     22  C   UNL     1      -1.637  15.135  24.620  0.00  0.00    +0.000 A 
ATOM     23  O   UNL     1      -0.914  14.179  23.981  0.00  0.00    +0.000 OA
ENDBRANCH  18  19
ENDBRANCH  15  18
ENDBRANCH   1  17
BRANCH   4  24
ATOM     24  C   UNL     1      -6.143  13.158  21.844  0.00  0.00    +0.000 C 
ATOM     25  C   UNL     1      -7.156  12.447  22.743  0.00  0.00    +0.000 C 
ATOM     26  C   UNL     1      -7.198  13.098  24.118  0.00  0.00    +0.000 C 
ATOM     27  O   UNL     1      -7.449  14.499  24.008  0.00  0.00    +0.000 OA
ATOM     28  C   UNL     1      -6.409  15.176  23.302  0.00  0.00    +0.000 C 
ATOM     29  C   UNL     1      -6.324  14.677  21.865  0.00  0.00    +0.000 C 
ENDBRANCH   4  24
TORSDOF 4
ENDMDL
MODEL 8
REMARK VINA RESULT:      -7.0      7.762     11.582
REMARK  Name = 
REMARK  5 active torsions:
REMARK  status: ('A' for Active; 'I' for Inactive)
REMARK    1  A    between atoms: C_1  and  C_2
REMARK    2  A    between atoms: N_4  and  C_5
REMARK    3  A    between atoms: C_5  and  C_6
REMARK    4  A    between atoms: C_12  and  C_13
REMARK    5  A    between atoms: C_16  and  C_17
REMARK                            x       y       z     vdW  Elec       q    Type
REMARK                         _______ _______ _______ _____ _____    ______ ____
ROOT
ATOM      1  C   UNL     1      -4.403  12.820  21.136  0.00  0.00    +0.000 A 
ATOM      2  N   UNL     1      -3.262  12.461  20.629  0.00  0.00    +0.000 NA
ATOM      3  N   UNL     1      -2.311  12.115  21.547  0.00  0.00    +0.000 N 
ATOM      4  C   UNL     1      -1.007  11.694  21.332  0.00  0.00    +0.000 A 
ATOM      5  N   UNL     1      -0.417  11.394  22.477  0.00  0.00    +0.000 NA
ATOM      6  C   UNL     1      -1.341  11.649  23.452  0.00  0.00    +0.000 A 
ATOM      7  C   UNL     1      -2.508  12.107  22.897  0.00  0.00    +0.000 A 
ATOM      8  C   UNL     1      -3.745  12.525  23.445  0.00  0.00    +0.000 A 
ATOM      9  O   UNL     1      -4.019  12.547  24.645  0.00  0.00    +0.000 OA
ATOM     10  N   UNL     1      -4.653  12.895  22.491  0.00  0.00    +0.000 N 
ATOM     11  H   UNL     1      -5.549  13.193  22.859  0.00  0.00    +0.000 HD
ENDROOT
BRANCH   1  17
ATOM     12  C   UNL     1      -7.878  13.119  21.322  0.00  0.00    +0.000 C 
ATOM     13  C   UNL     1      -6.856  12.397  20.449  0.00  0.00    +0.000 C 
ATOM     14  C   UNL     1      -7.377  12.145  19.032  0.00  0.00    +0.000 C 
ATOM     15  N   UNL     1      -6.182  12.057  18.176  0.00  0.00    +0.000 NA
ATOM     16  C   UNL     1      -5.252  13.043  18.750  0.00  0.00    +0.000 C 
ATOM     17  C   UNL     1      -5.581  13.221  20.240  0.00  0.00    +0.000 C 
BRANCH  15  18
ATOM     18  C   UNL     1      -5.673  10.671  18.115  0.00  0.00    +0.000 C 
BRANCH  18  19
ATOM     19  C   UNL     1      -4.382  10.524  17.367  0.00  0.00    +0.000 A 
ATOM     20  C   UNL     1      -3.140   9.993  17.668  0.00  0.00    +0.000 A 
ATOM     21  C   UNL     1      -2.311  10.237  16.543  0.00  0.00    +0.000 A 
ATOM     22  C   UNL     1      -3.108  10.855  15.609  0.00  0.00    +0.000 A 
ATOM     23  O   UNL     1      -4.359  11.045  16.103  0.00  0.00    +0.000 OA
ENDBRANCH  18  19
ENDBRANCH  15  18
ENDBRANCH   1  17
BRANCH   4  24
ATOM     24  C   UNL     1      -0.331  11.594  19.996  0.00  0.00    +0.000 C 
ATOM     25  C   UNL     1       0.103  10.168  19.657  0.00  0.00    +0.000 C 
ATOM     26  C   UNL     1       0.839  10.136  18.326  0.00  0.00    +0.000 C 
ATOM     27  O   UNL     1       1.930  11.057  18.328  0.00  0.00    +0.000 OA
ATOM     28  C   UNL     1       1.493  12.406  18.486  0.00  0.00    +0.000 C 
ATOM     29  C   UNL     1       0.814  12.596  19.836  0.00  0.00    +0.000 C 
ENDBRANCH   4  24
TORSDOF 4
ENDMDL
MODEL 9
REMARK VINA RESULT:      -7.0      2.507      4.782
REMARK  Name = 
REMARK  5 active torsions:
REMARK  status: ('A' for Active; 'I' for Inactive)
REMARK    1  A    between atoms: C_1  and  C_2
REMARK    2  A    between atoms: N_4  and  C_5
REMARK    3  A    between atoms: C_5  and  C_6
REMARK    4  A    between atoms: C_12  and  C_13
REMARK    5  A    between atoms: C_16  and  C_17
REMARK                            x       y       z     vdW  Elec       q    Type
REMARK                         _______ _______ _______ _____ _____    ______ ____
ROOT
ATOM      1  C   UNL     1       2.238   6.191  18.870  0.00  0.00    +0.000 A 
ATOM      2  N   UNL     1       1.582   7.052  19.590  0.00  0.00    +0.000 NA
ATOM      3  N   UNL     1       1.683   8.348  19.167  0.00  0.00    +0.000 N 
ATOM      4  C   UNL     1       1.111   9.487  19.713  0.00  0.00    +0.000 A 
ATOM      5  N   UNL     1       1.397  10.550  18.980  0.00  0.00    +0.000 NA
ATOM      6  C   UNL     1       2.186  10.101  17.959  0.00  0.00    +0.000 A 
ATOM      7  C   UNL     1       2.383   8.748  18.067  0.00  0.00    +0.000 A 
ATOM      8  C   UNL     1       3.119   7.810  17.302  0.00  0.00    +0.000 A 
ATOM      9  O   UNL     1       3.774   8.073  16.294  0.00  0.00    +0.000 OA
ATOM     10  N   UNL     1       3.016   6.533  17.783  0.00  0.00    +0.000 N 
ATOM     11  H   UNL     1       3.529   5.842  17.248  0.00  0.00    +0.000 HD
ENDROOT
BRANCH   1  17
ATOM     12  C   UNL     1       2.177   4.108  21.673  0.00  0.00    +0.000 C 
ATOM     13  C   UNL     1       3.039   4.293  20.427  0.00  0.00    +0.000 C 
ATOM     14  C   UNL     1       3.734   2.997  20.003  0.00  0.00    +0.000 C 
ATOM     15  N   UNL     1       3.973   3.125  18.556  0.00  0.00    +0.000 NA
ATOM     16  C   UNL     1       2.791   3.848  18.057  0.00  0.00    +0.000 C 
ATOM     17  C   UNL     1       2.213   4.695  19.200  0.00  0.00    +0.000 C 
BRANCH  15  18
ATOM     18  C   UNL     1       5.271   3.778  18.287  0.00  0.00    +0.000 C 
BRANCH  18  19
ATOM     19  C   UNL     1       5.494   4.128  16.847  0.00  0.00    +0.000 A 
ATOM     20  C   UNL     1       5.649   3.395  15.682  0.00  0.00    +0.000 A 
ATOM     21  C   UNL     1       5.910   4.329  14.647  0.00  0.00    +0.000 A 
ATOM     22  C   UNL     1       5.851   5.572  15.231  0.00  0.00    +0.000 A 
ATOM     23  O   UNL     1       5.613   5.460  16.564  0.00  0.00    +0.000 OA
ENDBRANCH  18  19
ENDBRANCH  15  18
ENDBRANCH   1  17
BRANCH   4  24
ATOM     24  C   UNL     1       0.289   9.536  20.967  0.00  0.00    +0.000 C 
ATOM     25  C   UNL     1      -0.462  10.858  21.131  0.00  0.00    +0.000 C 
ATOM     26  C   UNL     1      -1.224  10.879  22.447  0.00  0.00    +0.000 C 
ATOM     27  O   UNL     1      -0.351  10.603  23.543  0.00  0.00    +0.000 OA
ATOM     28  C   UNL     1       0.220   9.298  23.458  0.00  0.00    +0.000 C 
ATOM     29  C   UNL     1       1.094   9.175  22.216  0.00  0.00    +0.000 C 
ENDBRANCH   4  24
TORSDOF 4
ENDMDL
