MODEL 1
REMARK VINA RESULT:      -8.0      0.000      0.000
REMARK  Name = 
REMARK  5 active torsions:
REMARK  status: ('A' for Active; 'I' for Inactive)
REMARK    1  A    between atoms: N_6  and  C_7
REMARK    2  A    between atoms: C_11  and  C_12
REMARK    3  A    between atoms: C_12  and  N_13
REMARK    4  A    between atoms: N_13  and  C_14
REMARK    5  A    between atoms: C_14  and  C_15
REMARK                            x       y       z     vdW  Elec       q    Type
REMARK                         _______ _______ _______ _____ _____    ______ ____
ROOT
ATOM      1  C   UNL     1       6.484   4.996  15.572  0.00  0.00    +0.000 A 
ATOM      2  C   UNL     1       7.420   4.722  16.568  0.00  0.00    +0.000 A 
ATOM      3  C   UNL     1       7.232   5.168  17.876  0.00  0.00    +0.000 A 
ATOM      4  C   UNL     1       6.075   5.863  18.215  0.00  0.00    +0.000 A 
ATOM      5  C   UNL     1       5.101   6.138  17.248  0.00  0.00    +0.000 A 
ATOM      6  C   UNL     1       5.328   5.723  15.923  0.00  0.00    +0.000 A 
ENDROOT
BRANCH   1  12
ATOM      7  O   UNL     1       8.513   5.873  13.510  0.00  0.00    +0.000 OA
ATOM      8  C   UNL     1       7.629   5.051  13.336  0.00  0.00    +0.000 C 
ATOM      9  O   UNL     1       7.461   4.428  12.123  0.00  0.00    +0.000 OA
ATOM     10  C   UNL     1       6.249   3.680  12.165  0.00  0.00    +0.000 C 
ATOM     11  C   UNL     1       5.916   3.535  13.624  0.00  0.00    +0.000 C 
ATOM     12  N   UNL     1       6.688   4.568  14.235  0.00  0.00    +0.000 N 
ENDBRANCH   1  12
BRANCH   5  13
ATOM     13  C   UNL     1       3.817   6.841  17.641  0.00  0.00    +0.000 C 
BRANCH  13  14
ATOM     14  N   UNL     1       3.549   6.646  19.064  0.00  0.00    +0.000 NA
ATOM     15  H   UNL     1       3.384   7.560  19.485  0.00  0.00    +0.000 HD
BRANCH  14  16
ATOM     16  C   UNL     1       2.390   5.794  19.312  0.00  0.00    +0.000 C 
BRANCH  16  17
ATOM     17  C   UNL     1       2.720   4.354  19.001  0.00  0.00    +0.000 A 
ATOM     18  C   UNL     1       3.675   3.644  19.751  0.00  0.00    +0.000 A 
ATOM     19  C   UNL     1       3.962   2.316  19.440  0.00  0.00    +0.000 A 
ATOM     20  F   UNL     1       4.872   1.649  20.163  0.00  0.00    +0.000 F 
ATOM     21  C   UNL     1       3.321   1.667  18.390  0.00  0.00    +0.000 A 
ATOM     22  C   UNL     1       2.368   2.358  17.643  0.00  0.00    +0.000 A 
ATOM     23  C   UNL     1       2.077   3.687  17.953  0.00  0.00    +0.000 A 
ATOM     24  F   UNL     1       1.150   4.323  17.224  0.00  0.00    +0.000 F 
ENDBRANCH  16  17
ENDBRANCH  14  16
ENDBRANCH  13  14
ENDBRANCH   5  13
TORSDOF 5
ENDMDL
MODEL 2
REMARK VINA RESULT:      -7.9      1.156      1.441
REMARK  Name = 
REMARK  5 active torsions:
REMARK  status: ('A' for Active; 'I' for Inactive)
REMARK    1  A    between atoms: N_6  and  C_7
REMARK    2  A    between atoms: C_11  and  C_12
REMARK    3  A    between atoms: C_12  and  N_13
REMARK    4  A    between atoms: N_13  and  C_14
REMARK    5  A    between atoms: C_14  and  C_15
REMARK                            x       y       z     vdW  Elec       q    Type
REMARK                         _______ _______ _______ _____ _____    ______ ____
ROOT
ATOM      1  C   UNL     1       6.533   5.014  15.461  0.00  0.00    +0.000 A 
ATOM      2  C   UNL     1       7.420   4.683  16.484  0.00  0.00    +0.000 A 
ATOM      3  C   UNL     1       7.238   5.164  17.780  0.00  0.00    +0.000 A 
ATOM      4  C   UNL     1       6.134   5.957  18.080  0.00  0.00    +0.000 A 
ATOM      5  C   UNL     1       5.209   6.294  17.085  0.00  0.00    +0.000 A 
ATOM      6  C   UNL     1       5.433   5.839  15.772  0.00  0.00    +0.000 A 
ENDROOT
BRANCH   1  12
ATOM      7  O   UNL     1       8.476   5.915  13.327  0.00  0.00    +0.000 OA
ATOM      8  C   UNL     1       7.632   5.044  13.201  0.00  0.00    +0.000 C 
ATOM      9  O   UNL     1       7.472   4.370  12.015  0.00  0.00    +0.000 OA
ATOM     10  C   UNL     1       6.300   3.564  12.109  0.00  0.00    +0.000 C 
ATOM     11  C   UNL     1       6.003   3.456  13.579  0.00  0.00    +0.000 C 
ATOM     12  N   UNL     1       6.734   4.549  14.136  0.00  0.00    +0.000 N 
ENDBRANCH   1  12
BRANCH   5  13
ATOM     13  C   UNL     1       3.978   7.106  17.435  0.00  0.00    +0.000 C 
BRANCH  13  14
ATOM     14  N   UNL     1       3.421   6.657  18.708  0.00  0.00    +0.000 NA
ATOM     15  H   UNL     1       3.066   7.471  19.207  0.00  0.00    +0.000 HD
BRANCH  14  16
ATOM     16  C   UNL     1       2.337   5.692  18.545  0.00  0.00    +0.000 C 
BRANCH  16  17
ATOM     17  C   UNL     1       2.502   4.547  19.517  0.00  0.00    +0.000 A 
ATOM     18  C   UNL     1       3.609   3.683  19.447  0.00  0.00    +0.000 A 
ATOM     19  C   UNL     1       3.734   2.633  20.355  0.00  0.00    +0.000 A 
ATOM     20  F   UNL     1       4.795   1.817  20.280  0.00  0.00    +0.000 F 
ATOM     21  C   UNL     1       2.777   2.414  21.340  0.00  0.00    +0.000 A 
ATOM     22  C   UNL     1       1.679   3.268  21.424  0.00  0.00    +0.000 A 
ATOM     23  C   UNL     1       1.551   4.321  20.517  0.00  0.00    +0.000 A 
ATOM     24  F   UNL     1       0.490   5.132  20.627  0.00  0.00    +0.000 F 
ENDBRANCH  16  17
ENDBRANCH  14  16
ENDBRANCH  13  14
ENDBRANCH   5  13
TORSDOF 5
ENDMDL
MODEL 3
REMARK VINA RESULT:      -7.7      1.214      1.387
REMARK  Name = 
REMARK  5 active torsions:
REMARK  status: ('A' for Active; 'I' for Inactive)
REMARK    1  A    between atoms: N_6  and  C_7
REMARK    2  A    between atoms: C_11  and  C_12
REMARK    3  A    between atoms: C_12  and  N_13
REMARK    4  A    between atoms: N_13  and  C_14
REMARK    5  A    between atoms: C_14  and  C_15
REMARK                            x       y       z     vdW  Elec       q    Type
REMARK                         _______ _______ _______ _____ _____    ______ ____
ROOT
ATOM      1  C   UNL     1       6.205   5.078  15.558  0.00  0.00    +0.000 A 
ATOM      2  C   UNL     1       6.979   4.628  16.627  0.00  0.00    +0.000 A 
ATOM      3  C   UNL     1       6.788   5.127  17.915  0.00  0.00    +0.000 A 
ATOM      4  C   UNL     1       5.785   6.060  18.159  0.00  0.00    +0.000 A 
ATOM      5  C   UNL     1       4.972   6.520  17.117  0.00  0.00    +0.000 A 
ATOM      6  C   UNL     1       5.209   6.042  15.814  0.00  0.00    +0.000 A 
ENDROOT
BRANCH   1  12
ATOM      7  O   UNL     1       8.315   5.788  13.512  0.00  0.00    +0.000 OA
ATOM      8  C   UNL     1       7.398   5.000  13.348  0.00  0.00    +0.000 C 
ATOM      9  O   UNL     1       7.227   4.341  12.155  0.00  0.00    +0.000 OA
ATOM     10  C   UNL     1       5.982   3.649  12.196  0.00  0.00    +0.000 C 
ATOM     11  C   UNL     1       5.612   3.572  13.652  0.00  0.00    +0.000 C 
ATOM     12  N   UNL     1       6.418   4.593  14.242  0.00  0.00    +0.000 N 
ENDBRANCH   1  12
BRANCH   5  13
ATOM     13  C   UNL     1       3.843   7.489  17.404  0.00  0.00    +0.000 C 
BRANCH  13  14
ATOM     14  N   UNL     1       2.907   6.905  18.360  0.00  0.00    +0.000 NA
ATOM     15  H   UNL     1       2.185   7.596  18.564  0.00  0.00    +0.000 HD
BRANCH  14  16
ATOM     16  C   UNL     1       2.270   5.689  17.862  0.00  0.00    +0.000 C 
BRANCH  16  17
ATOM     17  C   UNL     1       2.590   4.521  18.765  0.00  0.00    +0.000 A 
ATOM     18  C   UNL     1       2.264   4.544  20.132  0.00  0.00    +0.000 A 
ATOM     19  C   UNL     1       2.573   3.452  20.943  0.00  0.00    +0.000 A 
ATOM     20  F   UNL     1       2.257   3.485  22.245  0.00  0.00    +0.000 F 
ATOM     21  C   UNL     1       3.206   2.328  20.426  0.00  0.00    +0.000 A 
ATOM     22  C   UNL     1       3.527   2.290  19.070  0.00  0.00    +0.000 A 
ATOM     23  C   UNL     1       3.218   3.380  18.256  0.00  0.00    +0.000 A 
ATOM     24  F   UNL     1       3.530   3.312  16.954  0.00  0.00    +0.000 F 
ENDBRANCH  16  17
ENDBRANCH  14  16
ENDBRANCH  13  14
ENDBRANCH   5  13
TORSDOF 5
ENDMDL
MODEL 4
REMARK VINA RESULT:      -7.6      1.979      3.121
REMARK  Name = 
REMARK  5 active torsions:
REMARK  status: ('A' for Active; 'I' for Inactive)
REMARK    1  A    between atoms: N_6  and  C_7
REMARK    2  A    between atoms: C_11  and  C_12
REMARK    3  A    between atoms: C_12  and  N_13
REMARK    4  A    between atoms: N_13  and  C_14
REMARK    5  A    between atoms: C_14  and  C_15
REMARK                            x       y       z     vdW  Elec       q    Type
REMARK                         _______ _______ _______ _____ _____    ______ ____
ROOT
ATOM      1  C   UNL     1       4.459   6.191  17.692  0.00  0.00    +0.000 A 
ATOM      2  C   UNL     1       3.975   7.399  17.192  0.00  0.00    +0.000 A 
ATOM      3  C   UNL     1       2.899   8.049  17.794  0.00  0.00    +0.000 A 
ATOM      4  C   UNL     1       2.315   7.515  18.939  0.00  0.00    +0.000 A 
ATOM      5  C   UNL     1       2.787   6.315  19.485  0.00  0.00    +0.000 A 
ATOM      6  C   UNL     1       3.842   5.648  18.837  0.00  0.00    +0.000 A 
ENDROOT
BRANCH   1  12
ATOM      7  O   UNL     1       7.437   6.706  17.785  0.00  0.00    +0.000 OA
ATOM      8  C   UNL     1       6.883   5.839  17.129  0.00  0.00    +0.000 C 
ATOM      9  O   UNL     1       7.598   4.985  16.325  0.00  0.00    +0.000 OA
ATOM     10  C   UNL     1       6.677   4.223  15.548  0.00  0.00    +0.000 C 
ATOM     11  C   UNL     1       5.352   4.358  16.245  0.00  0.00    +0.000 C 
ATOM     12  N   UNL     1       5.535   5.515  17.062  0.00  0.00    +0.000 N 
ENDBRANCH   1  12
BRANCH   5  13
ATOM     13  C   UNL     1       2.184   5.774  20.766  0.00  0.00    +0.000 C 
BRANCH  13  14
ATOM     14  N   UNL     1       0.972   5.015  20.473  0.00  0.00    +0.000 NA
ATOM     15  H   UNL     1       0.804   5.055  19.469  0.00  0.00    +0.000 HD
BRANCH  14  16
ATOM     16  C   UNL     1       1.066   3.616  20.882  0.00  0.00    +0.000 C 
BRANCH  16  17
ATOM     17  C   UNL     1       2.035   2.873  19.993  0.00  0.00    +0.000 A 
ATOM     18  C   UNL     1       3.246   2.366  20.496  0.00  0.00    +0.000 A 
ATOM     19  C   UNL     1       4.124   1.686  19.653  0.00  0.00    +0.000 A 
ATOM     20  F   UNL     1       5.274   1.205  20.144  0.00  0.00    +0.000 F 
ATOM     21  C   UNL     1       3.828   1.497  18.307  0.00  0.00    +0.000 A 
ATOM     22  C   UNL     1       2.628   1.989  17.799  0.00  0.00    +0.000 A 
ATOM     23  C   UNL     1       1.746   2.668  18.640  0.00  0.00    +0.000 A 
ATOM     24  F   UNL     1       0.595   3.122  18.126  0.00  0.00    +0.000 F 
ENDBRANCH  16  17
ENDBRANCH  14  16
ENDBRANCH  13  14
ENDBRANCH   5  13
TORSDOF 5
ENDMDL
MODEL 5
REMARK VINA RESULT:      -7.5      3.929      6.475
REMARK  Name = 
REMARK  5 active torsions:
REMARK  status: ('A' for Active; 'I' for Inactive)
REMARK    1  A    between atoms: N_6  and  C_7
REMARK    2  A    between atoms: C_11  and  C_12
REMARK    3  A    between atoms: C_12  and  N_13
REMARK    4  A    between atoms: N_13  and  C_14
REMARK    5  A    between atoms: C_14  and  C_15
REMARK                            x       y       z     vdW  Elec       q    Type
REMARK                         _______ _______ _______ _____ _____    ______ ____
ROOT
ATOM      1  C   UNL     1       2.184   6.358  19.331  0.00  0.00    +0.000 A 
ATOM      2  C   UNL     1       1.999   5.836  20.611  0.00  0.00    +0.000 A 
ATOM      3  C   UNL     1       2.111   4.468  20.855  0.00  0.00    +0.000 A 
ATOM      4  C   UNL     1       2.454   3.602  19.821  0.00  0.00    +0.000 A 
ATOM      5  C   UNL     1       2.670   4.089  18.527  0.00  0.00    +0.000 A 
ATOM      6  C   UNL     1       2.505   5.466  18.287  0.00  0.00    +0.000 A 
ENDROOT
BRANCH   1  12
ATOM      7  O   UNL     1       0.887   8.540  20.973  0.00  0.00    +0.000 OA
ATOM      8  C   UNL     1       1.395   8.681  19.873  0.00  0.00    +0.000 C 
ATOM      9  O   UNL     1       1.414   9.903  19.246  0.00  0.00    +0.000 OA
ATOM     10  C   UNL     1       1.891   9.720  17.915  0.00  0.00    +0.000 C 
ATOM     11  C   UNL     1       2.574   8.380  17.914  0.00  0.00    +0.000 C 
ATOM     12  N   UNL     1       2.041   7.746  19.076  0.00  0.00    +0.000 N 
ENDBRANCH   1  12
BRANCH   5  13
ATOM     13  C   UNL     1       3.102   3.147  17.422  0.00  0.00    +0.000 C 
BRANCH  13  14
ATOM     14  N   UNL     1       4.559   3.053  17.379  0.00  0.00    +0.000 NA
ATOM     15  H   UNL     1       4.811   2.085  17.184  0.00  0.00    +0.000 HD
BRANCH  14  16
ATOM     16  C   UNL     1       5.154   3.911  16.358  0.00  0.00    +0.000 C 
BRANCH  16  17
ATOM     17  C   UNL     1       6.017   4.971  17.001  0.00  0.00    +0.000 A 
ATOM     18  C   UNL     1       6.925   4.653  18.026  0.00  0.00    +0.000 A 
ATOM     19  C   UNL     1       7.707   5.652  18.603  0.00  0.00    +0.000 A 
ATOM     20  F   UNL     1       8.570   5.336  19.578  0.00  0.00    +0.000 F 
ATOM     21  C   UNL     1       7.607   6.975  18.186  0.00  0.00    +0.000 A 
ATOM     22  C   UNL     1       6.716   7.302  17.166  0.00  0.00    +0.000 A 
ATOM     23  C   UNL     1       5.933   6.304  16.585  0.00  0.00    +0.000 A 
ATOM     24  F   UNL     1       5.091   6.646  15.600  0.00  0.00    +0.000 F 
ENDBRANCH  16  17
ENDBRANCH  14  16
ENDBRANCH  13  14
ENDBRANCH   5  13
TORSDOF 5
ENDMDL
MODEL 6
REMARK VINA RESULT:      -7.3      2.109      3.308
REMARK  Name = 
REMARK  5 active torsions:
REMARK  status: ('A' for Active; 'I' for Inactive)
REMARK    1  A    between atoms: N_6  and  C_7
REMARK    2  A    between atoms: C_11  and  C_12
REMARK    3  A    between atoms: C_12  and  N_13
REMARK    4  A    between atoms: N_13  and  C_14
REMARK    5  A    between atoms: C_14  and  C_15
REMARK                            x       y       z     vdW  Elec       q    Type
REMARK                         _______ _______ _______ _____ _____    ______ ____
ROOT
ATOM      1  C   UNL     1       4.584   6.349  17.936  0.00  0.00    +0.000 A 
ATOM      2  C   UNL     1       4.025   7.454  17.295  0.00  0.00    +0.000 A 
ATOM      3  C   UNL     1       2.816   8.001  17.724  0.00  0.00    +0.000 A 
ATOM      4  C   UNL     1       2.167   7.470  18.835  0.00  0.00    +0.000 A 
ATOM      5  C   UNL     1       2.708   6.374  19.519  0.00  0.00    +0.000 A 
ATOM      6  C   UNL     1       3.903   5.805  19.043  0.00  0.00    +0.000 A 
ENDROOT
BRANCH   1  12
ATOM      7  O   UNL     1       5.663   5.978  15.136  0.00  0.00    +0.000 OA
ATOM      8  C   UNL     1       6.206   5.610  16.165  0.00  0.00    +0.000 C 
ATOM      9  O   UNL     1       7.411   4.950  16.141  0.00  0.00    +0.000 OA
ATOM     10  C   UNL     1       7.695   4.482  17.457  0.00  0.00    +0.000 C 
ATOM     11  C   UNL     1       6.801   5.276  18.368  0.00  0.00    +0.000 C 
ATOM     12  N   UNL     1       5.799   5.775  17.481  0.00  0.00    +0.000 N 
ENDBRANCH   1  12
BRANCH   5  13
ATOM     13  C   UNL     1       2.025   5.843  20.763  0.00  0.00    +0.000 C 
BRANCH  13  14
ATOM     14  N   UNL     1       0.884   5.009  20.396  0.00  0.00    +0.000 NA
ATOM     15  H   UNL     1       0.788   5.026  19.382  0.00  0.00    +0.000 HD
BRANCH  14  16
ATOM     16  C   UNL     1       1.029   3.624  20.834  0.00  0.00    +0.000 C 
BRANCH  16  17
ATOM     17  C   UNL     1       2.019   2.896  19.957  0.00  0.00    +0.000 A 
ATOM     18  C   UNL     1       3.221   2.385  20.478  0.00  0.00    +0.000 A 
ATOM     19  C   UNL     1       4.119   1.720  19.644  0.00  0.00    +0.000 A 
ATOM     20  F   UNL     1       5.260   1.236  20.153  0.00  0.00    +0.000 F 
ATOM     21  C   UNL     1       3.853   1.549  18.290  0.00  0.00    +0.000 A 
ATOM     22  C   UNL     1       2.661   2.044  17.763  0.00  0.00    +0.000 A 
ATOM     23  C   UNL     1       1.760   2.709  18.595  0.00  0.00    +0.000 A 
ATOM     24  F   UNL     1       0.618   3.167  18.062  0.00  0.00    +0.000 F 
ENDBRANCH  16  17
ENDBRANCH  14  16
ENDBRANCH  13  14
ENDBRANCH   5  13
TORSDOF 5
ENDMDL
MODEL 7
REMARK VINA RESULT:      -7.3      1.559      2.614
REMARK  Name = 
REMARK  5 active torsions:
REMARK  status: ('A' for Active; 'I' for Inactive)
REMARK    1  A    between atoms: N_6  and  C_7
REMARK    2  A    between atoms: C_11  and  C_12
REMARK    3  A    between atoms: C_12  and  N_13
REMARK    4  A    between atoms: N_13  and  C_14
REMARK    5  A    between atoms: C_14  and  C_15
REMARK                            x       y       z     vdW  Elec       q    Type
REMARK                         _______ _______ _______ _____ _____    ______ ____
ROOT
ATOM      1  C   UNL     1       6.112   5.373  15.137  0.00  0.00    +0.000 A 
ATOM      2  C   UNL     1       5.173   6.403  15.104  0.00  0.00    +0.000 A 
ATOM      3  C   UNL     1       4.745   7.027  16.275  0.00  0.00    +0.000 A 
ATOM      4  C   UNL     1       5.286   6.653  17.501  0.00  0.00    +0.000 A 
ATOM      5  C   UNL     1       6.248   5.638  17.575  0.00  0.00    +0.000 A 
ATOM      6  C   UNL     1       6.633   4.986  16.388  0.00  0.00    +0.000 A 
ENDROOT
BRANCH   1  12
ATOM      7  O   UNL     1       8.456   5.909  13.305  0.00  0.00    +0.000 OA
ATOM      8  C   UNL     1       7.604   5.052  13.141  0.00  0.00    +0.000 C 
ATOM      9  O   UNL     1       7.627   4.220  12.048  0.00  0.00    +0.000 OA
ATOM     10  C   UNL     1       6.417   3.467  12.028  0.00  0.00    +0.000 C 
ATOM     11  C   UNL     1       5.851   3.578  13.417  0.00  0.00    +0.000 C 
ATOM     12  N   UNL     1       6.525   4.719  13.949  0.00  0.00    +0.000 N 
ENDBRANCH   1  12
BRANCH   5  13
ATOM     13  C   UNL     1       6.875   5.280  18.907  0.00  0.00    +0.000 C 
BRANCH  13  14
ATOM     14  N   UNL     1       5.881   4.676  19.789  0.00  0.00    +0.000 NA
ATOM     15  H   UNL     1       5.285   5.418  20.154  0.00  0.00    +0.000 HD
BRANCH  14  16
ATOM     16  C   UNL     1       5.045   3.689  19.111  0.00  0.00    +0.000 C 
BRANCH  16  17
ATOM     17  C   UNL     1       3.610   3.816  19.565  0.00  0.00    +0.000 A 
ATOM     18  C   UNL     1       3.096   5.038  20.033  0.00  0.00    +0.000 A 
ATOM     19  C   UNL     1       1.768   5.125  20.448  0.00  0.00    +0.000 A 
ATOM     20  F   UNL     1       1.289   6.296  20.891  0.00  0.00    +0.000 F 
ATOM     21  C   UNL     1       0.928   4.017  20.412  0.00  0.00    +0.000 A 
ATOM     22  C   UNL     1       1.424   2.802  19.944  0.00  0.00    +0.000 A 
ATOM     23  C   UNL     1       2.752   2.712  19.526  0.00  0.00    +0.000 A 
ATOM     24  F   UNL     1       3.199   1.533  19.071  0.00  0.00    +0.000 F 
ENDBRANCH  16  17
ENDBRANCH  14  16
ENDBRANCH  13  14
ENDBRANCH   5  13
TORSDOF 5
ENDMDL
MODEL 8
REMARK VINA RESULT:      -7.3      4.733      6.960
REMARK  Name = 
REMARK  5 active torsions:
REMARK  status: ('A' for Active; 'I' for Inactive)
REMARK    1  A    between atoms: N_6  and  C_7
REMARK    2  A    between atoms: C_11  and  C_12
REMARK    3  A    between atoms: C_12  and  N_13
REMARK    4  A    between atoms: N_13  and  C_14
REMARK    5  A    between atoms: C_14  and  C_15
REMARK                            x       y       z     vdW  Elec       q    Type
REMARK                         _______ _______ _______ _____ _____    ______ ____
ROOT
ATOM      1  C   UNL     1       0.937   9.709  19.189  0.00  0.00    +0.000 A 
ATOM      2  C   UNL     1       0.805   9.141  20.456  0.00  0.00    +0.000 A 
ATOM      3  C   UNL     1       1.430   7.936  20.774  0.00  0.00    +0.000 A 
ATOM      4  C   UNL     1       2.235   7.299  19.834  0.00  0.00    +0.000 A 
ATOM      5  C   UNL     1       2.410   7.848  18.558  0.00  0.00    +0.000 A 
ATOM      6  C   UNL     1       1.734   9.040  18.238  0.00  0.00    +0.000 A 
ENDROOT
BRANCH   1  12
ATOM      7  O   UNL     1       2.021  12.506  18.817  0.00  0.00    +0.000 OA
ATOM      8  C   UNL     1       0.848  12.179  18.737  0.00  0.00    +0.000 C 
ATOM      9  O   UNL     1      -0.135  13.101  18.469  0.00  0.00    +0.000 OA
ATOM     10  C   UNL     1      -1.402  12.468  18.629  0.00  0.00    +0.000 C 
ATOM     11  C   UNL     1      -1.122  10.991  18.583  0.00  0.00    +0.000 C 
ATOM     12  N   UNL     1       0.278  10.919  18.856  0.00  0.00    +0.000 N 
ENDBRANCH   1  12
BRANCH   5  13
ATOM     13  C   UNL     1       3.336   7.179  17.563  0.00  0.00    +0.000 C 
BRANCH  13  14
ATOM     14  N   UNL     1       4.137   6.154  18.228  0.00  0.00    +0.000 NA
ATOM     15  H   UNL     1       3.942   6.195  19.227  0.00  0.00    +0.000 HD
BRANCH  14  16
ATOM     16  C   UNL     1       3.849   4.807  17.744  0.00  0.00    +0.000 C 
BRANCH  16  17
ATOM     17  C   UNL     1       2.926   4.091  18.702  0.00  0.00    +0.000 A 
ATOM     18  C   UNL     1       3.404   3.545  19.907  0.00  0.00    +0.000 A 
ATOM     19  C   UNL     1       2.530   2.887  20.772  0.00  0.00    +0.000 A 
ATOM     20  F   UNL     1       2.997   2.373  21.918  0.00  0.00    +0.000 F 
ATOM     21  C   UNL     1       1.180   2.752  20.466  0.00  0.00    +0.000 A 
ATOM     22  C   UNL     1       0.694   3.295  19.278  0.00  0.00    +0.000 A 
ATOM     23  C   UNL     1       1.565   3.956  18.412  0.00  0.00    +0.000 A 
ATOM     24  F   UNL     1       1.068   4.476  17.281  0.00  0.00    +0.000 F 
ENDBRANCH  16  17
ENDBRANCH  14  16
ENDBRANCH  13  14
ENDBRANCH   5  13
TORSDOF 5
ENDMDL
MODEL 9
REMARK VINA RESULT:      -7.3      4.982      7.759
REMARK  Name = 
REMARK  5 active torsions:
REMARK  status: ('A' for Active; 'I' for Inactive)
REMARK    1  A    between atoms: N_6  and  C_7
REMARK    2  A    between atoms: C_11  and  C_12
REMARK    3  A    between atoms: C_12  and  N_13
REMARK    4  A    between atoms: N_13  and  C_14
REMARK    5  A    between atoms: C_14  and  C_15
REMARK                            x       y       z     vdW  Elec       q    Type
REMARK                         _______ _______ _______ _____ _____    ______ ____
ROOT
ATOM      1  C   UNL     1       1.259   8.963  19.994  0.00  0.00    +0.000 A 
ATOM      2  C   UNL     1       1.435   9.267  18.644  0.00  0.00    +0.000 A 
ATOM      3  C   UNL     1       2.096   8.388  17.787  0.00  0.00    +0.000 A 
ATOM      4  C   UNL     1       2.557   7.165  18.265  0.00  0.00    +0.000 A 
ATOM      5  C   UNL     1       2.381   6.813  19.608  0.00  0.00    +0.000 A 
ATOM      6  C   UNL     1       1.754   7.732  20.470  0.00  0.00    +0.000 A 
ENDROOT
BRANCH   1  12
ATOM      7  O   UNL     1       1.607   9.419  22.962  0.00  0.00    +0.000 OA
ATOM      8  C   UNL     1       0.808   9.993  22.241  0.00  0.00    +0.000 C 
ATOM      9  O   UNL     1      -0.057  10.936  22.741  0.00  0.00    +0.000 OA
ATOM     10  C   UNL     1      -0.986  11.283  21.717  0.00  0.00    +0.000 C 
ATOM     11  C   UNL     1      -0.361  10.816  20.431  0.00  0.00    +0.000 C 
ATOM     12  N   UNL     1       0.613   9.870  20.872  0.00  0.00    +0.000 N 
ENDBRANCH   1  12
BRANCH   5  13
ATOM     13  C   UNL     1       2.832   5.454  20.104  0.00  0.00    +0.000 C 
BRANCH  13  14
ATOM     14  N   UNL     1       3.046   4.550  18.977  0.00  0.00    +0.000 NA
ATOM     15  H   UNL     1       2.974   5.091  18.116  0.00  0.00    +0.000 HD
BRANCH  14  16
ATOM     16  C   UNL     1       4.349   3.892  19.015  0.00  0.00    +0.000 C 
BRANCH  16  17
ATOM     17  C   UNL     1       5.383   4.732  18.303  0.00  0.00    +0.000 A 
ATOM     18  C   UNL     1       6.416   5.374  19.009  0.00  0.00    +0.000 A 
ATOM     19  C   UNL     1       7.355   6.145  18.327  0.00  0.00    +0.000 A 
ATOM     20  F   UNL     1       8.336   6.750  19.010  0.00  0.00    +0.000 F 
ATOM     21  C   UNL     1       7.294   6.300  16.946  0.00  0.00    +0.000 A 
ATOM     22  C   UNL     1       6.279   5.663  16.234  0.00  0.00    +0.000 A 
ATOM     23  C   UNL     1       5.338   4.889  16.914  0.00  0.00    +0.000 A 
ATOM     24  F   UNL     1       4.378   4.281  16.203  0.00  0.00    +0.000 F 
ENDBRANCH  16  17
ENDBRANCH  14  16
ENDBRANCH  13  14
ENDBRANCH   5  13
TORSDOF 5
ENDMDL
