MODEL 1
REMARK VINA RESULT:      -8.9      0.000      0.000
REMARK  Name = 
REMARK  4 active torsions:
REMARK  status: ('A' for Active; 'I' for Inactive)
REMARK    1  A    between atoms: C_1  and  C_2
REMARK    2  A    between atoms: N_4  and  C_5
REMARK    3  A    between atoms: C_5  and  C_6
REMARK    4  A    between atoms: C_20  and  C_21
REMARK                            x       y       z     vdW  Elec       q    Type
REMARK                         _______ _______ _______ _____ _____    ______ ____
ROOT
ATOM      1  C   UNL     1       0.600   9.028  22.117  0.00  0.00    +0.000 C 
ATOM      2  C   UNL     1       0.090  10.098  21.172  0.00  0.00    +0.000 C 
ATOM      3  O   UNL     1      -0.744  10.903  21.606  0.00  0.00    +0.000 OA
ATOM      4  N   UNL     1       0.560  10.173  19.869  0.00  0.00    +0.000 N 
ATOM      5  C   UNL     1       1.422   9.227  19.275  0.00  0.00    +0.000 A 
ATOM      6  N   UNL     1       2.058   9.554  18.144  0.00  0.00    +0.000 NA
ATOM      7  C   UNL     1       2.895   8.645  17.591  0.00  0.00    +0.000 A 
ATOM      8  C   UNL     1       3.100   7.368  18.067  0.00  0.00    +0.000 A 
ATOM      9  C   UNL     1       2.369   7.132  19.211  0.00  0.00    +0.000 A 
ATOM     10  N   UNL     1       1.552   8.023  19.821  0.00  0.00    +0.000 NA
ATOM     11  C   UNL     1       2.447   5.806  19.867  0.00  0.00    +0.000 A 
ATOM     12  O   UNL     1       1.828   5.573  20.901  0.00  0.00    +0.000 OA
ATOM     13  C   UNL     1       3.296   4.774  19.226  0.00  0.00    +0.000 A 
ATOM     14  C   UNL     1       3.978   5.090  18.101  0.00  0.00    +0.000 A 
ATOM     15  C   UNL     1       4.836   4.085  17.437  0.00  0.00    +0.000 A 
ATOM     16  C   UNL     1       5.527   4.372  16.321  0.00  0.00    +0.000 A 
ATOM     17  C   UNL     1       5.449   5.687  15.740  0.00  0.00    +0.000 A 
ATOM     18  C   UNL     1       4.678   6.610  16.332  0.00  0.00    +0.000 A 
ATOM     19  N   UNL     1       3.931   6.378  17.489  0.00  0.00    +0.000 N 
ENDROOT
BRANCH  13  20
ATOM     20  C   UNL     1       3.340   3.492  19.841  0.00  0.00    +0.000 C 
ATOM     21  N   UNL     1       3.396   2.480  20.402  0.00  0.00    +0.000 NA
ENDBRANCH  13  20
BRANCH   4  22
ATOM     22  C   UNL     1       0.037  11.224  18.987  0.00  0.00    +0.000 C 
BRANCH  22  23
ATOM     23  C   UNL     1      -1.342  10.956  18.425  0.00  0.00    +0.000 A 
ATOM     24  C   UNL     1      -1.536   9.963  17.452  0.00  0.00    +0.000 A 
ATOM     25  C   UNL     1      -2.790   9.772  16.867  0.00  0.00    +0.000 A 
ATOM     26  C   UNL     1      -3.869  10.555  17.268  0.00  0.00    +0.000 A 
ATOM     27  C   UNL     1      -3.706  11.495  18.283  0.00  0.00    +0.000 A 
ATOM     28  C   UNL     1      -2.450  11.693  18.863  0.00  0.00    +0.000 A 
ENDBRANCH  22  23
ENDBRANCH   4  22
TORSDOF 3
ENDMDL
MODEL 2
REMARK VINA RESULT:      -8.3      2.477      7.533
REMARK  Name = 
REMARK  4 active torsions:
REMARK  status: ('A' for Active; 'I' for Inactive)
REMARK    1  A    between atoms: C_1  and  C_2
REMARK    2  A    between atoms: N_4  and  C_5
REMARK    3  A    between atoms: C_5  and  C_6
REMARK    4  A    between atoms: C_20  and  C_21
REMARK                            x       y       z     vdW  Elec       q    Type
REMARK                         _______ _______ _______ _____ _____    ______ ____
ROOT
ATOM      1  C   UNL     1       1.719   4.450  19.718  0.00  0.00    +0.000 C 
ATOM      2  C   UNL     1       2.859   4.409  18.720  0.00  0.00    +0.000 C 
ATOM      3  O   UNL     1       3.410   3.319  18.518  0.00  0.00    +0.000 OA
ATOM      4  N   UNL     1       3.255   5.556  18.049  0.00  0.00    +0.000 N 
ATOM      5  C   UNL     1       2.748   6.847  18.309  0.00  0.00    +0.000 A 
ATOM      6  N   UNL     1       2.956   7.816  17.409  0.00  0.00    +0.000 NA
ATOM      7  C   UNL     1       2.453   9.047  17.661  0.00  0.00    +0.000 A 
ATOM      8  C   UNL     1       1.791   9.408  18.815  0.00  0.00    +0.000 A 
ATOM      9  C   UNL     1       1.668   8.345  19.682  0.00  0.00    +0.000 A 
ATOM     10  N   UNL     1       2.119   7.088  19.454  0.00  0.00    +0.000 NA
ATOM     11  C   UNL     1       0.995   8.539  20.986  0.00  0.00    +0.000 A 
ATOM     12  O   UNL     1       0.846   7.606  21.769  0.00  0.00    +0.000 OA
ATOM     13  C   UNL     1       0.511   9.903  21.310  0.00  0.00    +0.000 A 
ATOM     14  C   UNL     1       0.676  10.892  20.402  0.00  0.00    +0.000 A 
ATOM     15  C   UNL     1       0.204  12.263  20.692  0.00  0.00    +0.000 A 
ATOM     16  C   UNL     1       0.352  13.263  19.807  0.00  0.00    +0.000 A 
ATOM     17  C   UNL     1       0.980  13.017  18.535  0.00  0.00    +0.000 A 
ATOM     18  C   UNL     1       1.411  11.779  18.256  0.00  0.00    +0.000 A 
ATOM     19  N   UNL     1       1.293  10.696  19.130  0.00  0.00    +0.000 N 
ENDROOT
BRANCH  13  20
ATOM     20  C   UNL     1      -0.104  10.092  22.579  0.00  0.00    +0.000 C 
ATOM     21  N   UNL     1      -0.664  10.262  23.579  0.00  0.00    +0.000 NA
ENDBRANCH  13  20
BRANCH   4  22
ATOM     22  C   UNL     1       4.364   5.471  17.093  0.00  0.00    +0.000 C 
BRANCH  22  23
ATOM     23  C   UNL     1       5.707   5.910  17.635  0.00  0.00    +0.000 A 
ATOM     24  C   UNL     1       6.281   5.256  18.737  0.00  0.00    +0.000 A 
ATOM     25  C   UNL     1       7.477   5.713  19.295  0.00  0.00    +0.000 A 
ATOM     26  C   UNL     1       8.124   6.814  18.743  0.00  0.00    +0.000 A 
ATOM     27  C   UNL     1       7.602   7.430  17.606  0.00  0.00    +0.000 A 
ATOM     28  C   UNL     1       6.402   6.978  17.051  0.00  0.00    +0.000 A 
ENDBRANCH  22  23
ENDBRANCH   4  22
TORSDOF 3
ENDMDL
MODEL 3
REMARK VINA RESULT:      -8.1      1.573      2.351
REMARK  Name = 
REMARK  4 active torsions:
REMARK  status: ('A' for Active; 'I' for Inactive)
REMARK    1  A    between atoms: C_1  and  C_2
REMARK    2  A    between atoms: N_4  and  C_5
REMARK    3  A    between atoms: C_5  and  C_6
REMARK    4  A    between atoms: C_20  and  C_21
REMARK                            x       y       z     vdW  Elec       q    Type
REMARK                         _______ _______ _______ _____ _____    ______ ____
ROOT
ATOM      1  C   UNL     1       1.126   8.511  21.781  0.00  0.00    +0.000 C 
ATOM      2  C   UNL     1       0.427   9.452  20.820  0.00  0.00    +0.000 C 
ATOM      3  O   UNL     1      -0.475  10.172  21.269  0.00  0.00    +0.000 OA
ATOM      4  N   UNL     1       0.801   9.506  19.485  0.00  0.00    +0.000 N 
ATOM      5  C   UNL     1       1.739   8.641  18.884  0.00  0.00    +0.000 A 
ATOM      6  N   UNL     1       2.257   8.975  17.695  0.00  0.00    +0.000 NA
ATOM      7  C   UNL     1       3.167   8.145  17.134  0.00  0.00    +0.000 A 
ATOM      8  C   UNL     1       3.562   6.935  17.660  0.00  0.00    +0.000 A 
ATOM      9  C   UNL     1       2.939   6.678  18.862  0.00  0.00    +0.000 A 
ATOM     10  N   UNL     1       2.055   7.497  19.480  0.00  0.00    +0.000 NA
ATOM     11  C   UNL     1       3.226   5.414  19.579  0.00  0.00    +0.000 A 
ATOM     12  O   UNL     1       2.707   5.169  20.664  0.00  0.00    +0.000 OA
ATOM     13  C   UNL     1       4.159   4.459  18.935  0.00  0.00    +0.000 A 
ATOM     14  C   UNL     1       4.724   4.789  17.751  0.00  0.00    +0.000 A 
ATOM     15  C   UNL     1       5.661   3.860  17.082  0.00  0.00    +0.000 A 
ATOM     16  C   UNL     1       6.239   4.163  15.907  0.00  0.00    +0.000 A 
ATOM     17  C   UNL     1       5.957   5.421  15.266  0.00  0.00    +0.000 A 
ATOM     18  C   UNL     1       5.113   6.276  15.861  0.00  0.00    +0.000 A 
ATOM     19  N   UNL     1       4.476   6.022  17.078  0.00  0.00    +0.000 N 
ENDROOT
BRANCH  13  20
ATOM     20  C   UNL     1       4.404   3.232  19.611  0.00  0.00    +0.000 C 
ATOM     21  N   UNL     1       4.653   2.265  20.200  0.00  0.00    +0.000 NA
ENDBRANCH  13  20
BRANCH   4  22
ATOM     22  C   UNL     1       0.096  10.430  18.589  0.00  0.00    +0.000 C 
BRANCH  22  23
ATOM     23  C   UNL     1       0.474  11.886  18.750  0.00  0.00    +0.000 A 
ATOM     24  C   UNL     1       1.820  12.266  18.863  0.00  0.00    +0.000 A 
ATOM     25  C   UNL     1       2.169  13.598  19.100  0.00  0.00    +0.000 A 
ATOM     26  C   UNL     1       1.176  14.568  19.201  0.00  0.00    +0.000 A 
ATOM     27  C   UNL     1      -0.160  14.215  19.020  0.00  0.00    +0.000 A 
ATOM     28  C   UNL     1      -0.511  12.882  18.791  0.00  0.00    +0.000 A 
ENDBRANCH  22  23
ENDBRANCH   4  22
TORSDOF 3
ENDMDL
MODEL 4
REMARK VINA RESULT:      -8.0      1.455      2.510
REMARK  Name = 
REMARK  4 active torsions:
REMARK  status: ('A' for Active; 'I' for Inactive)
REMARK    1  A    between atoms: C_1  and  C_2
REMARK    2  A    between atoms: N_4  and  C_5
REMARK    3  A    between atoms: C_5  and  C_6
REMARK    4  A    between atoms: C_20  and  C_21
REMARK                            x       y       z     vdW  Elec       q    Type
REMARK                         _______ _______ _______ _____ _____    ______ ____
ROOT
ATOM      1  C   UNL     1       0.629   8.938  21.919  0.00  0.00    +0.000 C 
ATOM      2  C   UNL     1       0.087   9.948  20.927  0.00  0.00    +0.000 C 
ATOM      3  O   UNL     1      -0.781  10.737  21.321  0.00  0.00    +0.000 OA
ATOM      4  N   UNL     1       0.566   9.987  19.625  0.00  0.00    +0.000 N 
ATOM      5  C   UNL     1       1.469   9.052  19.078  0.00  0.00    +0.000 A 
ATOM      6  N   UNL     1       2.102   9.356  17.939  0.00  0.00    +0.000 NA
ATOM      7  C   UNL     1       2.978   8.458  17.431  0.00  0.00    +0.000 A 
ATOM      8  C   UNL     1       3.227   7.210  17.961  0.00  0.00    +0.000 A 
ATOM      9  C   UNL     1       2.496   6.993  19.108  0.00  0.00    +0.000 A 
ATOM     10  N   UNL     1       1.640   7.877  19.674  0.00  0.00    +0.000 NA
ATOM     11  C   UNL     1       2.618   5.700  19.819  0.00  0.00    +0.000 A 
ATOM     12  O   UNL     1       1.999   5.486  20.857  0.00  0.00    +0.000 OA
ATOM     13  C   UNL     1       3.513   4.676  19.228  0.00  0.00    +0.000 A 
ATOM     14  C   UNL     1       4.192   4.971  18.097  0.00  0.00    +0.000 A 
ATOM     15  C   UNL     1       5.094   3.973  17.481  0.00  0.00    +0.000 A 
ATOM     16  C   UNL     1       5.783   4.241  16.359  0.00  0.00    +0.000 A 
ATOM     17  C   UNL     1       5.660   5.527  15.724  0.00  0.00    +0.000 A 
ATOM     18  C   UNL     1       4.849   6.443  16.271  0.00  0.00    +0.000 A 
ATOM     19  N   UNL     1       4.102   6.230  17.431  0.00  0.00    +0.000 N 
ENDROOT
BRANCH  13  20
ATOM     20  C   UNL     1       3.600   3.423  19.896  0.00  0.00    +0.000 C 
ATOM     21  N   UNL     1       3.677   2.438  20.501  0.00  0.00    +0.000 NA
ENDBRANCH  13  20
BRANCH   4  22
ATOM     22  C   UNL     1       0.012  10.980  18.697  0.00  0.00    +0.000 C 
BRANCH  22  23
ATOM     23  C   UNL     1       0.525  12.390  18.893  0.00  0.00    +0.000 A 
ATOM     24  C   UNL     1      -0.353  13.485  18.827  0.00  0.00    +0.000 A 
ATOM     25  C   UNL     1       0.129  14.792  18.919  0.00  0.00    +0.000 A 
ATOM     26  C   UNL     1       1.490  15.019  19.103  0.00  0.00    +0.000 A 
ATOM     27  C   UNL     1       2.362  13.941  19.241  0.00  0.00    +0.000 A 
ATOM     28  C   UNL     1       1.882  12.632  19.141  0.00  0.00    +0.000 A 
ENDBRANCH  22  23
ENDBRANCH   4  22
TORSDOF 3
ENDMDL
MODEL 5
REMARK VINA RESULT:      -7.5      1.824      3.003
REMARK  Name = 
REMARK  4 active torsions:
REMARK  status: ('A' for Active; 'I' for Inactive)
REMARK    1  A    between atoms: C_1  and  C_2
REMARK    2  A    between atoms: N_4  and  C_5
REMARK    3  A    between atoms: C_5  and  C_6
REMARK    4  A    between atoms: C_20  and  C_21
REMARK                            x       y       z     vdW  Elec       q    Type
REMARK                         _______ _______ _______ _____ _____    ______ ____
ROOT
ATOM      1  C   UNL     1       0.671   8.314  21.790  0.00  0.00    +0.000 C 
ATOM      2  C   UNL     1       0.339   9.554  20.982  0.00  0.00    +0.000 C 
ATOM      3  O   UNL     1      -0.462  10.363  21.469  0.00  0.00    +0.000 OA
ATOM      4  N   UNL     1       0.931   9.773  19.747  0.00  0.00    +0.000 N 
ATOM      5  C   UNL     1       1.763   8.845  19.085  0.00  0.00    +0.000 A 
ATOM      6  N   UNL     1       2.524   9.271  18.069  0.00  0.00    +0.000 NA
ATOM      7  C   UNL     1       3.330   8.376  17.451  0.00  0.00    +0.000 A 
ATOM      8  C   UNL     1       3.385   7.030  17.741  0.00  0.00    +0.000 A 
ATOM      9  C   UNL     1       2.535   6.701  18.775  0.00  0.00    +0.000 A 
ATOM     10  N   UNL     1       1.743   7.568  19.448  0.00  0.00    +0.000 NA
ATOM     11  C   UNL     1       2.444   5.293  19.225  0.00  0.00    +0.000 A 
ATOM     12  O   UNL     1       1.716   4.972  20.159  0.00  0.00    +0.000 OA
ATOM     13  C   UNL     1       3.261   4.289  18.501  0.00  0.00    +0.000 A 
ATOM     14  C   UNL     1       4.065   4.698  17.495  0.00  0.00    +0.000 A 
ATOM     15  C   UNL     1       4.895   3.723  16.754  0.00  0.00    +0.000 A 
ATOM     16  C   UNL     1       5.706   4.103  15.752  0.00  0.00    +0.000 A 
ATOM     17  C   UNL     1       5.790   5.490  15.374  0.00  0.00    +0.000 A 
ATOM     18  C   UNL     1       5.047   6.386  16.038  0.00  0.00    +0.000 A 
ATOM     19  N   UNL     1       4.181   6.060  17.085  0.00  0.00    +0.000 N 
ENDROOT
BRANCH  13  20
ATOM     20  C   UNL     1       3.143   2.933  18.915  0.00  0.00    +0.000 C 
ATOM     21  N   UNL     1       2.992   1.822  19.207  0.00  0.00    +0.000 NA
ENDBRANCH  13  20
BRANCH   4  22
ATOM     22  C   UNL     1       0.579  10.985  18.998  0.00  0.00    +0.000 C 
BRANCH  22  23
ATOM     23  C   UNL     1       1.525  12.151  19.194  0.00  0.00    +0.000 A 
ATOM     24  C   UNL     1       1.680  12.739  20.459  0.00  0.00    +0.000 A 
ATOM     25  C   UNL     1       2.483  13.869  20.627  0.00  0.00    +0.000 A 
ATOM     26  C   UNL     1       3.160  14.408  19.536  0.00  0.00    +0.000 A 
ATOM     27  C   UNL     1       3.070  13.791  18.290  0.00  0.00    +0.000 A 
ATOM     28  C   UNL     1       2.260  12.666  18.119  0.00  0.00    +0.000 A 
ENDBRANCH  22  23
ENDBRANCH   4  22
TORSDOF 3
ENDMDL
MODEL 6
REMARK VINA RESULT:      -7.1      2.042      3.007
REMARK  Name = 
REMARK  4 active torsions:
REMARK  status: ('A' for Active; 'I' for Inactive)
REMARK    1  A    between atoms: C_1  and  C_2
REMARK    2  A    between atoms: N_4  and  C_5
REMARK    3  A    between atoms: C_5  and  C_6
REMARK    4  A    between atoms: C_20  and  C_21
REMARK                            x       y       z     vdW  Elec       q    Type
REMARK                         _______ _______ _______ _____ _____    ______ ____
ROOT
ATOM      1  C   UNL     1       0.112  10.386  21.992  0.00  0.00    +0.000 C 
ATOM      2  C   UNL     1      -0.226  11.312  20.840  0.00  0.00    +0.000 C 
ATOM      3  O   UNL     1      -0.985  12.264  21.068  0.00  0.00    +0.000 OA
ATOM      4  N   UNL     1       0.312  11.099  19.580  0.00  0.00    +0.000 N 
ATOM      5  C   UNL     1       1.089   9.977  19.223  0.00  0.00    +0.000 A 
ATOM      6  N   UNL     1       1.813  10.024  18.098  0.00  0.00    +0.000 NA
ATOM      7  C   UNL     1       2.567   8.948  17.774  0.00  0.00    +0.000 A 
ATOM      8  C   UNL     1       2.603   7.766  18.481  0.00  0.00    +0.000 A 
ATOM      9  C   UNL     1       1.795   7.819  19.596  0.00  0.00    +0.000 A 
ATOM     10  N   UNL     1       1.056   8.886  19.981  0.00  0.00    +0.000 NA
ATOM     11  C   UNL     1       1.690   6.635  20.479  0.00  0.00    +0.000 A 
ATOM     12  O   UNL     1       0.999   6.660  21.493  0.00  0.00    +0.000 OA
ATOM     13  C   UNL     1       2.449   5.422  20.090  0.00  0.00    +0.000 A 
ATOM     14  C   UNL     1       3.215   5.455  18.977  0.00  0.00    +0.000 A 
ATOM     15  C   UNL     1       3.986   4.263  18.561  0.00  0.00    +0.000 A 
ATOM     16  C   UNL     1       4.758   4.268  17.462  0.00  0.00    +0.000 A 
ATOM     17  C   UNL     1       4.858   5.456  16.654  0.00  0.00    +0.000 A 
ATOM     18  C   UNL     1       4.168   6.546  17.019  0.00  0.00    +0.000 A 
ATOM     19  N   UNL     1       3.345   6.607  18.145  0.00  0.00    +0.000 N 
ENDROOT
BRANCH  13  20
ATOM     20  C   UNL     1       2.317   4.277  20.924  0.00  0.00    +0.000 C 
ATOM     21  N   UNL     1       2.223   3.385  21.658  0.00  0.00    +0.000 NA
ENDBRANCH  13  20
BRANCH   4  22
ATOM     22  C   UNL     1      -0.045  12.018  18.493  0.00  0.00    +0.000 C 
BRANCH  22  23
ATOM     23  C   UNL     1       0.615  13.378  18.567  0.00  0.00    +0.000 A 
ATOM     24  C   UNL     1      -0.155  14.536  18.764  0.00  0.00    +0.000 A 
ATOM     25  C   UNL     1       0.439  15.799  18.745  0.00  0.00    +0.000 A 
ATOM     26  C   UNL     1       1.813  15.918  18.555  0.00  0.00    +0.000 A 
ATOM     27  C   UNL     1       2.598  14.774  18.429  0.00  0.00    +0.000 A 
ATOM     28  C   UNL     1       2.004  13.509  18.439  0.00  0.00    +0.000 A 
ENDBRANCH  22  23
ENDBRANCH   4  22
TORSDOF 3
ENDMDL
MODEL 7
REMARK VINA RESULT:      -6.7      4.576      9.995
REMARK  Name = 
REMARK  4 active torsions:
REMARK  status: ('A' for Active; 'I' for Inactive)
REMARK    1  A    between atoms: C_1  and  C_2
REMARK    2  A    between atoms: N_4  and  C_5
REMARK    3  A    between atoms: C_5  and  C_6
REMARK    4  A    between atoms: C_20  and  C_21
REMARK                            x       y       z     vdW  Elec       q    Type
REMARK                         _______ _______ _______ _____ _____    ______ ____
ROOT
ATOM      1  C   UNL     1      -3.871  10.712  17.889  0.00  0.00    +0.000 C 
ATOM      2  C   UNL     1      -2.358  10.667  17.799  0.00  0.00    +0.000 C 
ATOM      3  O   UNL     1      -1.850   9.851  17.018  0.00  0.00    +0.000 OA
ATOM      4  N   UNL     1      -1.577  11.525  18.559  0.00  0.00    +0.000 N 
ATOM      5  C   UNL     1      -2.081  12.399  19.546  0.00  0.00    +0.000 A 
ATOM      6  N   UNL     1      -1.301  13.393  19.987  0.00  0.00    +0.000 NA
ATOM      7  C   UNL     1      -1.799  14.234  20.923  0.00  0.00    +0.000 A 
ATOM      8  C   UNL     1      -3.037  14.113  21.515  0.00  0.00    +0.000 A 
ATOM      9  C   UNL     1      -3.736  13.037  21.012  0.00  0.00    +0.000 A 
ATOM     10  N   UNL     1      -3.294  12.194  20.048  0.00  0.00    +0.000 NA
ATOM     11  C   UNL     1      -5.087  12.733  21.535  0.00  0.00    +0.000 A 
ATOM     12  O   UNL     1      -5.745  11.798  21.088  0.00  0.00    +0.000 OA
ATOM     13  C   UNL     1      -5.613  13.599  22.618  0.00  0.00    +0.000 A 
ATOM     14  C   UNL     1      -4.859  14.632  23.057  0.00  0.00    +0.000 A 
ATOM     15  C   UNL     1      -5.353  15.516  24.135  0.00  0.00    +0.000 A 
ATOM     16  C   UNL     1      -4.626  16.552  24.588  0.00  0.00    +0.000 A 
ATOM     17  C   UNL     1      -3.332  16.831  24.023  0.00  0.00    +0.000 A 
ATOM     18  C   UNL     1      -2.871  16.041  23.043  0.00  0.00    +0.000 A 
ATOM     19  N   UNL     1      -3.572  14.947  22.528  0.00  0.00    +0.000 N 
ENDROOT
BRANCH  13  20
ATOM     20  C   UNL     1      -6.897  13.281  23.141  0.00  0.00    +0.000 C 
ATOM     21  N   UNL     1      -7.912  13.005  23.627  0.00  0.00    +0.000 NA
ENDBRANCH  13  20
BRANCH   4  22
ATOM     22  C   UNL     1      -0.117  11.445  18.442  0.00  0.00    +0.000 C 
BRANCH  22  23
ATOM     23  C   UNL     1       0.517  10.279  19.169  0.00  0.00    +0.000 A 
ATOM     24  C   UNL     1       1.332   9.366  18.481  0.00  0.00    +0.000 A 
ATOM     25  C   UNL     1       1.847   8.241  19.127  0.00  0.00    +0.000 A 
ATOM     26  C   UNL     1       1.574   8.029  20.475  0.00  0.00    +0.000 A 
ATOM     27  C   UNL     1       0.826   8.964  21.188  0.00  0.00    +0.000 A 
ATOM     28  C   UNL     1       0.303  10.087  20.540  0.00  0.00    +0.000 A 
ENDBRANCH  22  23
ENDBRANCH   4  22
TORSDOF 3
ENDMDL
MODEL 8
REMARK VINA RESULT:      -6.6      2.381      7.550
REMARK  Name = 
REMARK  4 active torsions:
REMARK  status: ('A' for Active; 'I' for Inactive)
REMARK    1  A    between atoms: C_1  and  C_2
REMARK    2  A    between atoms: N_4  and  C_5
REMARK    3  A    between atoms: C_5  and  C_6
REMARK    4  A    between atoms: C_20  and  C_21
REMARK                            x       y       z     vdW  Elec       q    Type
REMARK                         _______ _______ _______ _____ _____    ______ ____
ROOT
ATOM      1  C   UNL     1       4.597   7.261  16.367  0.00  0.00    +0.000 C 
ATOM      2  C   UNL     1       4.684   5.840  16.890  0.00  0.00    +0.000 C 
ATOM      3  O   UNL     1       5.296   5.010  16.206  0.00  0.00    +0.000 OA
ATOM      4  N   UNL     1       4.106   5.496  18.102  0.00  0.00    +0.000 N 
ATOM      5  C   UNL     1       3.302   6.359  18.877  0.00  0.00    +0.000 A 
ATOM      6  N   UNL     1       3.063   6.044  20.156  0.00  0.00    +0.000 NA
ATOM      7  C   UNL     1       2.304   6.887  20.894  0.00  0.00    +0.000 A 
ATOM      8  C   UNL     1       1.693   8.025  20.415  0.00  0.00    +0.000 A 
ATOM      9  C   UNL     1       1.979   8.230  19.083  0.00  0.00    +0.000 A 
ATOM     10  N   UNL     1       2.765   7.437  18.317  0.00  0.00    +0.000 NA
ATOM     11  C   UNL     1       1.401   9.400  18.382  0.00  0.00    +0.000 A 
ATOM     12  O   UNL     1       1.657   9.623  17.203  0.00  0.00    +0.000 OA
ATOM     13  C   UNL     1       0.501  10.286  19.159  0.00  0.00    +0.000 A 
ATOM     14  C   UNL     1       0.271  10.010  20.462  0.00  0.00    +0.000 A 
ATOM     15  C   UNL     1      -0.619  10.875  21.267  0.00  0.00    +0.000 A 
ATOM     16  C   UNL     1      -0.863  10.626  22.565  0.00  0.00    +0.000 A 
ATOM     17  C   UNL     1      -0.248   9.496  23.213  0.00  0.00    +0.000 A 
ATOM     18  C   UNL     1       0.564   8.705  22.498  0.00  0.00    +0.000 A 
ATOM     19  N   UNL     1       0.856   8.903  21.147  0.00  0.00    +0.000 N 
ENDROOT
BRANCH  13  20
ATOM     20  C   UNL     1      -0.078  11.389  18.472  0.00  0.00    +0.000 C 
ATOM     21  N   UNL     1      -0.594  12.296  17.967  0.00  0.00    +0.000 NA
ENDBRANCH  13  20
BRANCH   4  22
ATOM     22  C   UNL     1       4.212   4.109  18.569  0.00  0.00    +0.000 C 
BRANCH  22  23
ATOM     23  C   UNL     1       2.911   3.493  19.037  0.00  0.00    +0.000 A 
ATOM     24  C   UNL     1       1.828   3.355  18.153  0.00  0.00    +0.000 A 
ATOM     25  C   UNL     1       0.598   2.870  18.602  0.00  0.00    +0.000 A 
ATOM     26  C   UNL     1       0.445   2.492  19.933  0.00  0.00    +0.000 A 
ATOM     27  C   UNL     1       1.532   2.557  20.803  0.00  0.00    +0.000 A 
ATOM     28  C   UNL     1       2.761   3.051  20.358  0.00  0.00    +0.000 A 
ENDBRANCH  22  23
ENDBRANCH   4  22
TORSDOF 3
ENDMDL
MODEL 9
REMARK VINA RESULT:      -6.6      2.259      3.796
REMARK  Name = 
REMARK  4 active torsions:
REMARK  status: ('A' for Active; 'I' for Inactive)
REMARK    1  A    between atoms: C_1  and  C_2
REMARK    2  A    between atoms: N_4  and  C_5
REMARK    3  A    between atoms: C_5  and  C_6
REMARK    4  A    between atoms: C_20  and  C_21
REMARK                            x       y       z     vdW  Elec       q    Type
REMARK                         _______ _______ _______ _____ _____    ______ ____
ROOT
ATOM      1  C   UNL     1       1.677  10.877  17.833  0.00  0.00    +0.000 C 
ATOM      2  C   UNL     1       1.318  11.417  19.203  0.00  0.00    +0.000 C 
ATOM      3  O   UNL     1       1.211  12.644  19.330  0.00  0.00    +0.000 OA
ATOM      4  N   UNL     1       1.105  10.556  20.270  0.00  0.00    +0.000 N 
ATOM      5  C   UNL     1       1.318   9.162  20.225  0.00  0.00    +0.000 A 
ATOM      6  N   UNL     1       0.788   8.397  21.187  0.00  0.00    +0.000 NA
ATOM      7  C   UNL     1       0.985   7.060  21.126  0.00  0.00    +0.000 A 
ATOM      8  C   UNL     1       1.752   6.417  20.178  0.00  0.00    +0.000 A 
ATOM      9  C   UNL     1       2.275   7.304  19.263  0.00  0.00    +0.000 A 
ATOM     10  N   UNL     1       2.071   8.643  19.262  0.00  0.00    +0.000 NA
ATOM     11  C   UNL     1       3.140   6.803  18.171  0.00  0.00    +0.000 A 
ATOM     12  O   UNL     1       3.600   7.565  17.326  0.00  0.00    +0.000 OA
ATOM     13  C   UNL     1       3.431   5.349  18.141  0.00  0.00    +0.000 A 
ATOM     14  C   UNL     1       2.879   4.549  19.080  0.00  0.00    +0.000 A 
ATOM     15  C   UNL     1       3.147   3.094  19.078  0.00  0.00    +0.000 A 
ATOM     16  C   UNL     1       2.609   2.275  19.998  0.00  0.00    +0.000 A 
ATOM     17  C   UNL     1       1.743   2.804  21.019  0.00  0.00    +0.000 A 
ATOM     18  C   UNL     1       1.487   4.120  21.033  0.00  0.00    +0.000 A 
ATOM     19  N   UNL     1       2.016   5.026  20.111  0.00  0.00    +0.000 N 
ENDROOT
BRANCH  13  20
ATOM     20  C   UNL     1       4.291   4.879  17.110  0.00  0.00    +0.000 C 
ATOM     21  N   UNL     1       4.934   4.476  16.234  0.00  0.00    +0.000 NA
ENDBRANCH  13  20
BRANCH   4  22
ATOM     22  C   UNL     1       0.761  11.123  21.579  0.00  0.00    +0.000 C 
BRANCH  22  23
ATOM     23  C   UNL     1      -0.682  11.555  21.727  0.00  0.00    +0.000 A 
ATOM     24  C   UNL     1      -1.426  11.953  20.605  0.00  0.00    +0.000 A 
ATOM     25  C   UNL     1      -2.729  12.436  20.747  0.00  0.00    +0.000 A 
ATOM     26  C   UNL     1      -3.310  12.503  22.011  0.00  0.00    +0.000 A 
ATOM     27  C   UNL     1      -2.607  12.045  23.124  0.00  0.00    +0.000 A 
ATOM     28  C   UNL     1      -1.301  11.569  22.984  0.00  0.00    +0.000 A 
ENDBRANCH  22  23
ENDBRANCH   4  22
TORSDOF 3
ENDMDL
