MODEL 1
REMARK VINA RESULT:      -6.9      0.000      0.000
REMARK  Name = 
REMARK  5 active torsions:
REMARK  status: ('A' for Active; 'I' for Inactive)
REMARK    1  A    between atoms: C_2  and  O_3
REMARK    2  A    between atoms: C_2  and  C_4
REMARK    3  A    between atoms: C_7  and  C_8
REMARK    4  A    between atoms: C_8  and  O_9
REMARK    5  A    between atoms: O_9  and  C_10
REMARK                            x       y       z     vdW  Elec       q    Type
REMARK                         _______ _______ _______ _____ _____    ______ ____
ROOT
ATOM      1  C   UNL     1       6.885   6.526  17.697  0.00  0.00    +0.000 A 
ATOM      2  C   UNL     1       6.073   6.581  16.561  0.00  0.00    +0.000 A 
ATOM      3  C   UNL     1       5.178   5.544  16.294  0.00  0.00    +0.000 A 
ATOM      4  C   UNL     1       5.070   4.448  17.166  0.00  0.00    +0.000 A 
ATOM      5  C   UNL     1       5.880   4.402  18.307  0.00  0.00    +0.000 A 
ATOM      6  C   UNL     1       6.776   5.442  18.579  0.00  0.00    +0.000 A 
ENDROOT
BRANCH   1   8
ATOM      7  O   UNL     1       7.874   8.648  17.242  0.00  0.00    +0.000 OA
ATOM      8  C   UNL     1       7.817   7.657  17.950  0.00  0.00    +0.000 C 
BRANCH   8   9
ATOM      9  O   UNL     1       8.633   7.448  19.004  0.00  0.00    +0.000 OA
ATOM     10  H   UNL     1       8.560   8.113  19.712  0.00  0.00    +0.000 HD
ENDBRANCH   8   9
ENDBRANCH   1   8
BRANCH   4  11
ATOM     11  C   UNL     1       4.078   3.345  16.856  0.00  0.00    +0.000 C 
BRANCH  11  12
ATOM     12  O   UNL     1       2.771   3.841  17.128  0.00  0.00    +0.000 OA
BRANCH  12  13
ATOM     13  C   UNL     1       2.360   3.895  18.434  0.00  0.00    +0.000 A 
ATOM     14  C   UNL     1       1.909   2.655  18.921  0.00  0.00    +0.000 A 
ATOM     15  C   UNL     1       1.332   2.535  20.189  0.00  0.00    +0.000 A 
ATOM     16  C   UNL     1       1.198   3.658  20.995  0.00  0.00    +0.000 A 
ATOM     17  C   UNL     1       1.641   4.894  20.529  0.00  0.00    +0.000 A 
ATOM     18  C   UNL     1       2.209   5.025  19.251  0.00  0.00    +0.000 A 
ATOM     19 BR   UNL     1       2.594   6.815  18.747  0.00  0.00    +0.000 Br
ENDBRANCH  12  13
ENDBRANCH  11  12
ENDBRANCH   4  11
TORSDOF 5
ENDMDL
MODEL 2
REMARK VINA RESULT:      -6.9      2.446      3.068
REMARK  Name = 
REMARK  5 active torsions:
REMARK  status: ('A' for Active; 'I' for Inactive)
REMARK    1  A    between atoms: C_2  and  O_3
REMARK    2  A    between atoms: C_2  and  C_4
REMARK    3  A    between atoms: C_7  and  C_8
REMARK    4  A    between atoms: C_8  and  O_9
REMARK    5  A    between atoms: O_9  and  C_10
REMARK                            x       y       z     vdW  Elec       q    Type
REMARK                         _______ _______ _______ _____ _____    ______ ____
ROOT
ATOM      1  C   UNL     1       6.222   5.088  15.727  0.00  0.00    +0.000 A 
ATOM      2  C   UNL     1       5.271   6.110  15.681  0.00  0.00    +0.000 A 
ATOM      3  C   UNL     1       4.575   6.465  16.837  0.00  0.00    +0.000 A 
ATOM      4  C   UNL     1       4.832   5.817  18.057  0.00  0.00    +0.000 A 
ATOM      5  C   UNL     1       5.791   4.799  18.098  0.00  0.00    +0.000 A 
ATOM      6  C   UNL     1       6.494   4.442  16.941  0.00  0.00    +0.000 A 
ENDROOT
BRANCH   1   8
ATOM      7  O   UNL     1       7.823   5.452  13.996  0.00  0.00    +0.000 OA
ATOM      8  C   UNL     1       6.950   4.748  14.475  0.00  0.00    +0.000 C 
BRANCH   8   9
ATOM      9  O   UNL     1       6.504   3.616  13.891  0.00  0.00    +0.000 OA
ATOM     10  H   UNL     1       7.183   3.115  13.406  0.00  0.00    +0.000 HD
ENDBRANCH   8   9
ENDBRANCH   1   8
BRANCH   4  11
ATOM     11  C   UNL     1       4.070   6.236  19.298  0.00  0.00    +0.000 C 
BRANCH  11  12
ATOM     12  O   UNL     1       2.710   5.844  19.131  0.00  0.00    +0.000 OA
BRANCH  12  13
ATOM     13  C   UNL     1       2.319   4.638  19.649  0.00  0.00    +0.000 A 
ATOM     14  C   UNL     1       2.182   4.659  21.049  0.00  0.00    +0.000 A 
ATOM     15  C   UNL     1       1.915   3.494  21.774  0.00  0.00    +0.000 A 
ATOM     16  C   UNL     1       1.776   2.283  21.108  0.00  0.00    +0.000 A 
ATOM     17  C   UNL     1       1.906   2.244  19.721  0.00  0.00    +0.000 A 
ATOM     18  C   UNL     1       2.189   3.409  18.987  0.00  0.00    +0.000 A 
ATOM     19 BR   UNL     1       2.489   3.112  17.136  0.00  0.00    +0.000 Br
ENDBRANCH  12  13
ENDBRANCH  11  12
ENDBRANCH   4  11
TORSDOF 5
ENDMDL
MODEL 3
REMARK VINA RESULT:      -6.9      0.364      1.192
REMARK  Name = 
REMARK  5 active torsions:
REMARK  status: ('A' for Active; 'I' for Inactive)
REMARK    1  A    between atoms: C_2  and  O_3
REMARK    2  A    between atoms: C_2  and  C_4
REMARK    3  A    between atoms: C_7  and  C_8
REMARK    4  A    between atoms: C_8  and  O_9
REMARK    5  A    between atoms: O_9  and  C_10
REMARK                            x       y       z     vdW  Elec       q    Type
REMARK                         _______ _______ _______ _____ _____    ______ ____
ROOT
ATOM      1  C   UNL     1       6.697   6.538  17.627  0.00  0.00    +0.000 A 
ATOM      2  C   UNL     1       6.662   5.376  18.400  0.00  0.00    +0.000 A 
ATOM      3  C   UNL     1       5.695   4.402  18.150  0.00  0.00    +0.000 A 
ATOM      4  C   UNL     1       4.761   4.567  17.113  0.00  0.00    +0.000 A 
ATOM      5  C   UNL     1       4.806   5.731  16.336  0.00  0.00    +0.000 A 
ATOM      6  C   UNL     1       5.778   6.708  16.582  0.00  0.00    +0.000 A 
ENDROOT
BRANCH   1   8
ATOM      7  O   UNL     1       7.937   8.538  17.234  0.00  0.00    +0.000 OA
ATOM      8  C   UNL     1       7.751   7.546  17.920  0.00  0.00    +0.000 C 
BRANCH   8   9
ATOM      9  O   UNL     1       8.518   7.221  18.981  0.00  0.00    +0.000 OA
ATOM     10  H   UNL     1       9.038   6.405  18.871  0.00  0.00    +0.000 HD
ENDBRANCH   8   9
ENDBRANCH   1   8
BRANCH   4  11
ATOM     11  C   UNL     1       3.733   3.485  16.856  0.00  0.00    +0.000 C 
BRANCH  11  12
ATOM     12  O   UNL     1       2.485   3.934  17.376  0.00  0.00    +0.000 OA
BRANCH  12  13
ATOM     13  C   UNL     1       2.296   3.886  18.732  0.00  0.00    +0.000 A 
ATOM     14  C   UNL     1       1.943   2.605  19.193  0.00  0.00    +0.000 A 
ATOM     15  C   UNL     1       1.585   2.383  20.527  0.00  0.00    +0.000 A 
ATOM     16  C   UNL     1       1.576   3.442  21.424  0.00  0.00    +0.000 A 
ATOM     17  C   UNL     1       1.924   4.718  20.984  0.00  0.00    +0.000 A 
ATOM     18  C   UNL     1       2.271   4.952  19.643  0.00  0.00    +0.000 A 
ATOM     19 BR   UNL     1       2.550   6.781  19.216  0.00  0.00    +0.000 Br
ENDBRANCH  12  13
ENDBRANCH  11  12
ENDBRANCH   4  11
TORSDOF 5
ENDMDL
MODEL 4
REMARK VINA RESULT:      -6.8      2.522      3.320
REMARK  Name = 
REMARK  5 active torsions:
REMARK  status: ('A' for Active; 'I' for Inactive)
REMARK    1  A    between atoms: C_2  and  O_3
REMARK    2  A    between atoms: C_2  and  C_4
REMARK    3  A    between atoms: C_7  and  C_8
REMARK    4  A    between atoms: C_8  and  O_9
REMARK    5  A    between atoms: O_9  and  C_10
REMARK                            x       y       z     vdW  Elec       q    Type
REMARK                         _______ _______ _______ _____ _____    ______ ____
ROOT
ATOM      1  C   UNL     1       6.227   5.012  15.485  0.00  0.00    +0.000 A 
ATOM      2  C   UNL     1       6.511   4.220  16.601  0.00  0.00    +0.000 A 
ATOM      3  C   UNL     1       5.936   4.525  17.835  0.00  0.00    +0.000 A 
ATOM      4  C   UNL     1       5.058   5.614  17.968  0.00  0.00    +0.000 A 
ATOM      5  C   UNL     1       4.771   6.399  16.846  0.00  0.00    +0.000 A 
ATOM      6  C   UNL     1       5.343   6.093  15.605  0.00  0.00    +0.000 A 
ENDROOT
BRANCH   1   8
ATOM      7  O   UNL     1       7.610   5.381  13.577  0.00  0.00    +0.000 OA
ATOM      8  C   UNL     1       6.851   4.645  14.186  0.00  0.00    +0.000 C 
BRANCH   8   9
ATOM      9  O   UNL     1       6.446   3.446  13.721  0.00  0.00    +0.000 OA
ATOM     10  H   UNL     1       6.694   3.263  12.797  0.00  0.00    +0.000 HD
ENDBRANCH   8   9
ENDBRANCH   1   8
BRANCH   4  11
ATOM     11  C   UNL     1       4.439   5.911  19.319  0.00  0.00    +0.000 C 
BRANCH  11  12
ATOM     12  O   UNL     1       3.028   5.757  19.199  0.00  0.00    +0.000 OA
BRANCH  12  13
ATOM     13  C   UNL     1       2.464   4.600  19.667  0.00  0.00    +0.000 A 
ATOM     14  C   UNL     1       2.290   4.598  21.063  0.00  0.00    +0.000 A 
ATOM     15  C   UNL     1       1.847   3.458  21.742  0.00  0.00    +0.000 A 
ATOM     16  C   UNL     1       1.568   2.298  21.032  0.00  0.00    +0.000 A 
ATOM     17  C   UNL     1       1.733   2.282  19.648  0.00  0.00    +0.000 A 
ATOM     18  C   UNL     1       2.191   3.419  18.961  0.00  0.00    +0.000 A 
ATOM     19 BR   UNL     1       2.504   3.139  17.109  0.00  0.00    +0.000 Br
ENDBRANCH  12  13
ENDBRANCH  11  12
ENDBRANCH   4  11
TORSDOF 5
ENDMDL
MODEL 5
REMARK VINA RESULT:      -6.8      2.587      3.276
REMARK  Name = 
REMARK  5 active torsions:
REMARK  status: ('A' for Active; 'I' for Inactive)
REMARK    1  A    between atoms: C_2  and  O_3
REMARK    2  A    between atoms: C_2  and  C_4
REMARK    3  A    between atoms: C_7  and  C_8
REMARK    4  A    between atoms: C_8  and  O_9
REMARK    5  A    between atoms: O_9  and  C_10
REMARK                            x       y       z     vdW  Elec       q    Type
REMARK                         _______ _______ _______ _____ _____    ______ ____
ROOT
ATOM      1  C   UNL     1       6.513   4.996  15.277  0.00  0.00    +0.000 A 
ATOM      2  C   UNL     1       5.337   5.732  15.441  0.00  0.00    +0.000 A 
ATOM      3  C   UNL     1       4.819   5.941  16.720  0.00  0.00    +0.000 A 
ATOM      4  C   UNL     1       5.477   5.433  17.852  0.00  0.00    +0.000 A 
ATOM      5  C   UNL     1       6.659   4.703  17.683  0.00  0.00    +0.000 A 
ATOM      6  C   UNL     1       7.184   4.495  16.401  0.00  0.00    +0.000 A 
ENDROOT
BRANCH   1   8
ATOM      7  O   UNL     1       6.609   3.960  13.131  0.00  0.00    +0.000 OA
ATOM      8  C   UNL     1       7.037   4.806  13.898  0.00  0.00    +0.000 C 
BRANCH   8   9
ATOM      9  O   UNL     1       8.072   5.621  13.606  0.00  0.00    +0.000 OA
ATOM     10  H   UNL     1       8.285   5.682  12.658  0.00  0.00    +0.000 HD
ENDBRANCH   8   9
ENDBRANCH   1   8
BRANCH   4  11
ATOM     11  C   UNL     1       4.897   5.690  19.228  0.00  0.00    +0.000 C 
BRANCH  11  12
ATOM     12  O   UNL     1       4.540   4.433  19.795  0.00  0.00    +0.000 OA
BRANCH  12  13
ATOM     13  C   UNL     1       3.246   4.005  19.653  0.00  0.00    +0.000 A 
ATOM     14  C   UNL     1       2.373   4.570  20.599  0.00  0.00    +0.000 A 
ATOM     15  C   UNL     1       1.039   4.162  20.697  0.00  0.00    +0.000 A 
ATOM     16  C   UNL     1       0.555   3.178  19.844  0.00  0.00    +0.000 A 
ATOM     17  C   UNL     1       1.406   2.609  18.899  0.00  0.00    +0.000 A 
ATOM     18  C   UNL     1       2.751   3.005  18.804  0.00  0.00    +0.000 A 
ATOM     19 BR   UNL     1       3.778   1.993  17.568  0.00  0.00    +0.000 Br
ENDBRANCH  12  13
ENDBRANCH  11  12
ENDBRANCH   4  11
TORSDOF 5
ENDMDL
MODEL 6
REMARK VINA RESULT:      -6.7      2.502      6.149
REMARK  Name = 
REMARK  5 active torsions:
REMARK  status: ('A' for Active; 'I' for Inactive)
REMARK    1  A    between atoms: C_2  and  O_3
REMARK    2  A    between atoms: C_2  and  C_4
REMARK    3  A    between atoms: C_7  and  C_8
REMARK    4  A    between atoms: C_8  and  O_9
REMARK    5  A    between atoms: O_9  and  C_10
REMARK                            x       y       z     vdW  Elec       q    Type
REMARK                         _______ _______ _______ _____ _____    ______ ____
ROOT
ATOM      1  C   UNL     1       2.024   4.346  20.087  0.00  0.00    +0.000 A 
ATOM      2  C   UNL     1       2.162   5.682  20.472  0.00  0.00    +0.000 A 
ATOM      3  C   UNL     1       2.665   6.618  19.569  0.00  0.00    +0.000 A 
ATOM      4  C   UNL     1       3.021   6.238  18.264  0.00  0.00    +0.000 A 
ATOM      5  C   UNL     1       2.873   4.900  17.881  0.00  0.00    +0.000 A 
ATOM      6  C   UNL     1       2.366   3.958  18.784  0.00  0.00    +0.000 A 
ENDROOT
BRANCH   1   8
ATOM      7  O   UNL     1       1.997   3.159  22.156  0.00  0.00    +0.000 OA
ATOM      8  C   UNL     1       1.474   3.382  21.077  0.00  0.00    +0.000 C 
BRANCH   8   9
ATOM      9  O   UNL     1       0.375   2.736  20.636  0.00  0.00    +0.000 OA
ATOM     10  H   UNL     1       0.485   2.283  19.782  0.00  0.00    +0.000 HD
ENDBRANCH   8   9
ENDBRANCH   1   8
BRANCH   4  11
ATOM     11  C   UNL     1       3.550   7.281  17.302  0.00  0.00    +0.000 C 
BRANCH  11  12
ATOM     12  O   UNL     1       4.966   7.331  17.443  0.00  0.00    +0.000 OA
BRANCH  12  13
ATOM     13  C   UNL     1       5.712   6.381  16.795  0.00  0.00    +0.000 A 
ATOM     14  C   UNL     1       5.234   6.093  15.504  0.00  0.00    +0.000 A 
ATOM     15  C   UNL     1       5.783   5.062  14.735  0.00  0.00    +0.000 A 
ATOM     16  C   UNL     1       6.826   4.301  15.247  0.00  0.00    +0.000 A 
ATOM     17  C   UNL     1       7.314   4.574  16.523  0.00  0.00    +0.000 A 
ATOM     18  C   UNL     1       6.757   5.599  17.307  0.00  0.00    +0.000 A 
ATOM     19 BR   UNL     1       7.452   5.698  19.072  0.00  0.00    +0.000 Br
ENDBRANCH  12  13
ENDBRANCH  11  12
ENDBRANCH   4  11
TORSDOF 5
ENDMDL
MODEL 7
REMARK VINA RESULT:      -6.7      2.419      6.187
REMARK  Name = 
REMARK  5 active torsions:
REMARK  status: ('A' for Active; 'I' for Inactive)
REMARK    1  A    between atoms: C_2  and  O_3
REMARK    2  A    between atoms: C_2  and  C_4
REMARK    3  A    between atoms: C_7  and  C_8
REMARK    4  A    between atoms: C_8  and  O_9
REMARK    5  A    between atoms: O_9  and  C_10
REMARK                            x       y       z     vdW  Elec       q    Type
REMARK                         _______ _______ _______ _____ _____    ______ ____
ROOT
ATOM      1  C   UNL     1       1.619   4.256  19.795  0.00  0.00    +0.000 A 
ATOM      2  C   UNL     1       1.696   4.121  18.406  0.00  0.00    +0.000 A 
ATOM      3  C   UNL     1       2.269   5.135  17.639  0.00  0.00    +0.000 A 
ATOM      4  C   UNL     1       2.788   6.290  18.248  0.00  0.00    +0.000 A 
ATOM      5  C   UNL     1       2.715   6.417  19.640  0.00  0.00    +0.000 A 
ATOM      6  C   UNL     1       2.143   5.400  20.413  0.00  0.00    +0.000 A 
ENDROOT
BRANCH   1   8
ATOM      7  O   UNL     1       1.418   2.798  21.672  0.00  0.00    +0.000 OA
ATOM      8  C   UNL     1       1.010   3.147  20.577  0.00  0.00    +0.000 C 
BRANCH   8   9
ATOM      9  O   UNL     1       0.005   2.527  19.926  0.00  0.00    +0.000 OA
ATOM     10  H   UNL     1       0.280   1.769  19.381  0.00  0.00    +0.000 HD
ENDBRANCH   8   9
ENDBRANCH   1   8
BRANCH   4  11
ATOM     11  C   UNL     1       3.417   7.367  17.388  0.00  0.00    +0.000 C 
BRANCH  11  12
ATOM     12  O   UNL     1       4.821   7.353  17.624  0.00  0.00    +0.000 OA
BRANCH  12  13
ATOM     13  C   UNL     1       5.575   6.411  16.976  0.00  0.00    +0.000 A 
ATOM     14  C   UNL     1       5.196   6.233  15.633  0.00  0.00    +0.000 A 
ATOM     15  C   UNL     1       5.761   5.227  14.842  0.00  0.00    +0.000 A 
ATOM     16  C   UNL     1       6.719   4.380  15.384  0.00  0.00    +0.000 A 
ATOM     17  C   UNL     1       7.108   4.544  16.712  0.00  0.00    +0.000 A 
ATOM     18  C   UNL     1       6.535   5.543  17.517  0.00  0.00    +0.000 A 
ATOM     19 BR   UNL     1       7.080   5.490  19.335  0.00  0.00    +0.000 Br
ENDBRANCH  12  13
ENDBRANCH  11  12
ENDBRANCH   4  11
TORSDOF 5
ENDMDL
MODEL 8
REMARK VINA RESULT:      -6.6      2.690      3.384
REMARK  Name = 
REMARK  5 active torsions:
REMARK  status: ('A' for Active; 'I' for Inactive)
REMARK    1  A    between atoms: C_2  and  O_3
REMARK    2  A    between atoms: C_2  and  C_4
REMARK    3  A    between atoms: C_7  and  C_8
REMARK    4  A    between atoms: C_8  and  O_9
REMARK    5  A    between atoms: O_9  and  C_10
REMARK                            x       y       z     vdW  Elec       q    Type
REMARK                         _______ _______ _______ _____ _____    ______ ____
ROOT
ATOM      1  C   UNL     1       6.604   4.517  14.558  0.00  0.00    +0.000 A 
ATOM      2  C   UNL     1       7.454   4.920  15.590  0.00  0.00    +0.000 A 
ATOM      3  C   UNL     1       7.020   4.856  16.915  0.00  0.00    +0.000 A 
ATOM      4  C   UNL     1       5.738   4.374  17.227  0.00  0.00    +0.000 A 
ATOM      5  C   UNL     1       4.894   3.963  16.189  0.00  0.00    +0.000 A 
ATOM      6  C   UNL     1       5.328   4.023  14.859  0.00  0.00    +0.000 A 
ENDROOT
BRANCH   1   8
ATOM      7  O   UNL     1       6.733   3.845  12.273  0.00  0.00    +0.000 OA
ATOM      8  C   UNL     1       7.110   4.590  13.161  0.00  0.00    +0.000 C 
BRANCH   8   9
ATOM      9  O   UNL     1       8.072   5.521  12.992  0.00  0.00    +0.000 OA
ATOM     10  H   UNL     1       8.354   5.966  13.810  0.00  0.00    +0.000 HD
ENDBRANCH   8   9
ENDBRANCH   1   8
BRANCH   4  11
ATOM     11  C   UNL     1       5.302   4.303  18.676  0.00  0.00    +0.000 C 
BRANCH  11  12
ATOM     12  O   UNL     1       4.508   3.132  18.839  0.00  0.00    +0.000 OA
BRANCH  12  13
ATOM     13  C   UNL     1       3.385   3.217  19.619  0.00  0.00    +0.000 A 
ATOM     14  C   UNL     1       3.509   2.527  20.838  0.00  0.00    +0.000 A 
ATOM     15  C   UNL     1       2.426   2.390  21.713  0.00  0.00    +0.000 A 
ATOM     16  C   UNL     1       1.197   2.945  21.381  0.00  0.00    +0.000 A 
ATOM     17  C   UNL     1       1.057   3.634  20.177  0.00  0.00    +0.000 A 
ATOM     18  C   UNL     1       2.136   3.763  19.287  0.00  0.00    +0.000 A 
ATOM     19 BR   UNL     1       1.693   4.590  17.636  0.00  0.00    +0.000 Br
ENDBRANCH  12  13
ENDBRANCH  11  12
ENDBRANCH   4  11
TORSDOF 5
ENDMDL
MODEL 9
REMARK VINA RESULT:      -6.6      2.444      3.127
REMARK  Name = 
REMARK  5 active torsions:
REMARK  status: ('A' for Active; 'I' for Inactive)
REMARK    1  A    between atoms: C_2  and  O_3
REMARK    2  A    between atoms: C_2  and  C_4
REMARK    3  A    between atoms: C_7  and  C_8
REMARK    4  A    between atoms: C_8  and  O_9
REMARK    5  A    between atoms: O_9  and  C_10
REMARK                            x       y       z     vdW  Elec       q    Type
REMARK                         _______ _______ _______ _____ _____    ______ ____
ROOT
ATOM      1  C   UNL     1       6.543   4.879  15.217  0.00  0.00    +0.000 A 
ATOM      2  C   UNL     1       5.321   5.536  15.383  0.00  0.00    +0.000 A 
ATOM      3  C   UNL     1       4.809   5.740  16.665  0.00  0.00    +0.000 A 
ATOM      4  C   UNL     1       5.517   5.307  17.798  0.00  0.00    +0.000 A 
ATOM      5  C   UNL     1       6.745   4.656  17.626  0.00  0.00    +0.000 A 
ATOM      6  C   UNL     1       7.263   4.453  16.341  0.00  0.00    +0.000 A 
ENDROOT
BRANCH   1   8
ATOM      7  O   UNL     1       7.819   5.477  13.292  0.00  0.00    +0.000 OA
ATOM      8  C   UNL     1       7.058   4.692  13.834  0.00  0.00    +0.000 C 
BRANCH   8   9
ATOM      9  O   UNL     1       6.552   3.603  13.221  0.00  0.00    +0.000 OA
ATOM     10  H   UNL     1       6.331   2.866  13.818  0.00  0.00    +0.000 HD
ENDBRANCH   8   9
ENDBRANCH   1   8
BRANCH   4  11
ATOM     11  C   UNL     1       4.942   5.556  19.177  0.00  0.00    +0.000 C 
BRANCH  11  12
ATOM     12  O   UNL     1       4.685   4.292  19.781  0.00  0.00    +0.000 OA
BRANCH  12  13
ATOM     13  C   UNL     1       3.479   3.691  19.530  0.00  0.00    +0.000 A 
ATOM     14  C   UNL     1       3.599   2.514  18.771  0.00  0.00    +0.000 A 
ATOM     15  C   UNL     1       2.473   1.827  18.305  0.00  0.00    +0.000 A 
ATOM     16  C   UNL     1       1.203   2.309  18.596  0.00  0.00    +0.000 A 
ATOM     17  C   UNL     1       1.066   3.473  19.349  0.00  0.00    +0.000 A 
ATOM     18  C   UNL     1       2.193   4.176  19.808  0.00  0.00    +0.000 A 
ATOM     19 BR   UNL     1       1.791   5.819  20.670  0.00  0.00    +0.000 Br
ENDBRANCH  12  13
ENDBRANCH  11  12
ENDBRANCH   4  11
TORSDOF 5
ENDMDL
