MODEL 1
REMARK VINA RESULT:      -6.9      0.000      0.000
REMARK  Name = 
REMARK  4 active torsions:
REMARK  status: ('A' for Active; 'I' for Inactive)
REMARK    1  A    between atoms: O_1  and  C_2
REMARK    2  A    between atoms: C_5  and  C_6
REMARK    3  A    between atoms: C_6  and  C_7
REMARK    4  A    between atoms: C_10  and  O_11
REMARK                            x       y       z     vdW  Elec       q    Type
REMARK                         _______ _______ _______ _____ _____    ______ ____
ROOT
ATOM      1  C   UNL     1       2.482   5.587  17.851  0.00  0.00    +0.000 C 
ENDROOT
BRANCH   1   5
ATOM      2  C   UNL     1       1.527   3.072  21.238  0.00  0.00    +0.000 A 
ATOM      3  C   UNL     1       1.007   2.776  19.985  0.00  0.00    +0.000 A 
ATOM      4  C   UNL     1       1.307   3.611  18.901  0.00  0.00    +0.000 A 
ATOM      5  C   UNL     1       2.116   4.739  19.060  0.00  0.00    +0.000 A 
ATOM      6  C   UNL     1       2.598   5.044  20.349  0.00  0.00    +0.000 A 
ATOM      7  C   UNL     1       2.314   4.194  21.431  0.00  0.00    +0.000 A 
BRANCH   2   8
ATOM      8  O   UNL     1       1.287   2.276  22.321  0.00  0.00    +0.000 OA
ATOM      9  H   UNL     1       0.328   2.220  22.453  0.00  0.00    +0.000 HD
ENDBRANCH   2   8
ENDBRANCH   1   5
BRANCH   1  10
ATOM     10  C   UNL     1       3.892   5.383  17.345  0.00  0.00    +0.000 A 
ATOM     11  C   UNL     1       4.794   6.459  17.329  0.00  0.00    +0.000 A 
ATOM     12  C   UNL     1       6.042   6.332  16.716  0.00  0.00    +0.000 A 
ATOM     13  C   UNL     1       6.402   5.114  16.150  0.00  0.00    +0.000 A 
ATOM     14  C   UNL     1       5.555   4.016  16.222  0.00  0.00    +0.000 A 
ATOM     15  C   UNL     1       4.299   4.149  16.820  0.00  0.00    +0.000 A 
BRANCH  13  16
ATOM     16  O   UNL     1       7.585   4.964  15.487  0.00  0.00    +0.000 OA
ATOM     17  H   UNL     1       7.831   4.026  15.510  0.00  0.00    +0.000 HD
ENDBRANCH  13  16
ENDBRANCH   1  10
TORSDOF 4
ENDMDL
MODEL 2
REMARK VINA RESULT:      -6.9      1.129      6.095
REMARK  Name = 
REMARK  4 active torsions:
REMARK  status: ('A' for Active; 'I' for Inactive)
REMARK    1  A    between atoms: O_1  and  C_2
REMARK    2  A    between atoms: C_5  and  C_6
REMARK    3  A    between atoms: C_6  and  C_7
REMARK    4  A    between atoms: C_10  and  O_11
REMARK                            x       y       z     vdW  Elec       q    Type
REMARK                         _______ _______ _______ _____ _____    ______ ____
ROOT
ATOM      1  C   UNL     1       3.074   3.485  17.096  0.00  0.00    +0.000 C 
ENDROOT
BRANCH   1   5
ATOM      2  C   UNL     1       6.554   6.002  16.585  0.00  0.00    +0.000 A 
ATOM      3  C   UNL     1       5.391   6.527  17.131  0.00  0.00    +0.000 A 
ATOM      4  C   UNL     1       4.264   5.708  17.272  0.00  0.00    +0.000 A 
ATOM      5  C   UNL     1       4.289   4.370  16.867  0.00  0.00    +0.000 A 
ATOM      6  C   UNL     1       5.466   3.869  16.276  0.00  0.00    +0.000 A 
ATOM      7  C   UNL     1       6.603   4.687  16.156  0.00  0.00    +0.000 A 
BRANCH   2   8
ATOM      8  O   UNL     1       7.688   6.750  16.452  0.00  0.00    +0.000 OA
ATOM      9  H   UNL     1       7.519   7.629  16.825  0.00  0.00    +0.000 HD
ENDBRANCH   2   8
ENDBRANCH   1   5
BRANCH   1  10
ATOM     10  C   UNL     1       2.651   3.363  18.543  0.00  0.00    +0.000 A 
ATOM     11  C   UNL     1       3.538   2.826  19.489  0.00  0.00    +0.000 A 
ATOM     12  C   UNL     1       3.111   2.553  20.791  0.00  0.00    +0.000 A 
ATOM     13  C   UNL     1       1.803   2.853  21.155  0.00  0.00    +0.000 A 
ATOM     14  C   UNL     1       0.932   3.455  20.255  0.00  0.00    +0.000 A 
ATOM     15  C   UNL     1       1.356   3.710  18.949  0.00  0.00    +0.000 A 
BRANCH  13  16
ATOM     16  O   UNL     1       1.327   2.547  22.396  0.00  0.00    +0.000 OA
ATOM     17  H   UNL     1       1.389   1.587  22.519  0.00  0.00    +0.000 HD
ENDBRANCH  13  16
ENDBRANCH   1  10
TORSDOF 4
ENDMDL
MODEL 3
REMARK VINA RESULT:      -6.9      0.132      5.823
REMARK  Name = 
REMARK  4 active torsions:
REMARK  status: ('A' for Active; 'I' for Inactive)
REMARK    1  A    between atoms: O_1  and  C_2
REMARK    2  A    between atoms: C_5  and  C_6
REMARK    3  A    between atoms: C_6  and  C_7
REMARK    4  A    between atoms: C_10  and  O_11
REMARK                            x       y       z     vdW  Elec       q    Type
REMARK                         _______ _______ _______ _____ _____    ______ ____
ROOT
ATOM      1  C   UNL     1       2.421   5.674  17.855  0.00  0.00    +0.000 C 
ENDROOT
BRANCH   1   5
ATOM      2  C   UNL     1       6.399   5.023  16.288  0.00  0.00    +0.000 A 
ATOM      3  C   UNL     1       5.481   3.982  16.305  0.00  0.00    +0.000 A 
ATOM      4  C   UNL     1       4.203   4.199  16.834  0.00  0.00    +0.000 A 
ATOM      5  C   UNL     1       3.838   5.446  17.351  0.00  0.00    +0.000 A 
ATOM      6  C   UNL     1       4.799   6.476  17.363  0.00  0.00    +0.000 A 
ATOM      7  C   UNL     1       6.075   6.262  16.811  0.00  0.00    +0.000 A 
BRANCH   2   8
ATOM      8  O   UNL     1       7.649   4.870  15.759  0.00  0.00    +0.000 OA
ATOM      9  H   UNL     1       8.296   4.954  16.476  0.00  0.00    +0.000 HD
ENDBRANCH   2   8
ENDBRANCH   1   5
BRANCH   1  10
ATOM     10  C   UNL     1       2.038   4.833  19.051  0.00  0.00    +0.000 A 
ATOM     11  C   UNL     1       2.541   5.153  20.323  0.00  0.00    +0.000 A 
ATOM     12  C   UNL     1       2.333   4.297  21.406  0.00  0.00    +0.000 A 
ATOM     13  C   UNL     1       1.589   3.137  21.225  0.00  0.00    +0.000 A 
ATOM     14  C   UNL     1       1.019   2.841  19.993  0.00  0.00    +0.000 A 
ATOM     15  C   UNL     1       1.242   3.689  18.906  0.00  0.00    +0.000 A 
BRANCH  13  16
ATOM     16  O   UNL     1       1.413   2.242  22.240  0.00  0.00    +0.000 OA
ATOM     17  H   UNL     1       2.282   2.042  22.624  0.00  0.00    +0.000 HD
ENDBRANCH  13  16
ENDBRANCH   1  10
TORSDOF 4
ENDMDL
MODEL 4
REMARK VINA RESULT:      -6.9      1.154      1.795
REMARK  Name = 
REMARK  4 active torsions:
REMARK  status: ('A' for Active; 'I' for Inactive)
REMARK    1  A    between atoms: O_1  and  C_2
REMARK    2  A    between atoms: C_5  and  C_6
REMARK    3  A    between atoms: C_6  and  C_7
REMARK    4  A    between atoms: C_10  and  O_11
REMARK                            x       y       z     vdW  Elec       q    Type
REMARK                         _______ _______ _______ _____ _____    ______ ____
ROOT
ATOM      1  C   UNL     1       3.109   3.459  16.992  0.00  0.00    +0.000 C 
ENDROOT
BRANCH   1   5
ATOM      2  C   UNL     1       1.834   2.859  21.081  0.00  0.00    +0.000 A 
ATOM      3  C   UNL     1       0.943   3.362  20.144  0.00  0.00    +0.000 A 
ATOM      4  C   UNL     1       1.374   3.572  18.827  0.00  0.00    +0.000 A 
ATOM      5  C   UNL     1       2.688   3.288  18.444  0.00  0.00    +0.000 A 
ATOM      6  C   UNL     1       3.587   2.818  19.422  0.00  0.00    +0.000 A 
ATOM      7  C   UNL     1       3.146   2.587  20.737  0.00  0.00    +0.000 A 
BRANCH   2   8
ATOM      8  O   UNL     1       1.456   2.611  22.370  0.00  0.00    +0.000 OA
ATOM      9  H   UNL     1       1.442   3.453  22.851  0.00  0.00    +0.000 HD
ENDBRANCH   2   8
ENDBRANCH   1   5
BRANCH   1  10
ATOM     10  C   UNL     1       4.283   4.389  16.784  0.00  0.00    +0.000 A 
ATOM     11  C   UNL     1       5.462   3.906  16.195  0.00  0.00    +0.000 A 
ATOM     12  C   UNL     1       6.609   4.702  16.144  0.00  0.00    +0.000 A 
ATOM     13  C   UNL     1       6.564   5.995  16.652  0.00  0.00    +0.000 A 
ATOM     14  C   UNL     1       5.385   6.516  17.171  0.00  0.00    +0.000 A 
ATOM     15  C   UNL     1       4.244   5.714  17.236  0.00  0.00    +0.000 A 
BRANCH  13  16
ATOM     16  O   UNL     1       7.676   6.784  16.680  0.00  0.00    +0.000 OA
ATOM     17  H   UNL     1       7.461   7.631  16.257  0.00  0.00    +0.000 HD
ENDBRANCH  13  16
ENDBRANCH   1  10
TORSDOF 4
ENDMDL
MODEL 5
REMARK VINA RESULT:      -6.9      0.319      6.045
REMARK  Name = 
REMARK  4 active torsions:
REMARK  status: ('A' for Active; 'I' for Inactive)
REMARK    1  A    between atoms: O_1  and  C_2
REMARK    2  A    between atoms: C_5  and  C_6
REMARK    3  A    between atoms: C_6  and  C_7
REMARK    4  A    between atoms: C_10  and  O_11
REMARK                            x       y       z     vdW  Elec       q    Type
REMARK                         _______ _______ _______ _____ _____    ______ ____
ROOT
ATOM      1  C   UNL     1       2.366   5.610  17.967  0.00  0.00    +0.000 C 
ENDROOT
BRANCH   1   5
ATOM      2  C   UNL     1       6.317   5.582  16.209  0.00  0.00    +0.000 A 
ATOM      3  C   UNL     1       5.589   4.404  16.298  0.00  0.00    +0.000 A 
ATOM      4  C   UNL     1       4.320   4.422  16.889  0.00  0.00    +0.000 A 
ATOM      5  C   UNL     1       3.775   5.606  17.395  0.00  0.00    +0.000 A 
ATOM      6  C   UNL     1       4.549   6.782  17.332  0.00  0.00    +0.000 A 
ATOM      7  C   UNL     1       5.814   6.766  16.719  0.00  0.00    +0.000 A 
BRANCH   2   8
ATOM      8  O   UNL     1       7.548   5.624  15.618  0.00  0.00    +0.000 OA
ATOM      9  H   UNL     1       7.916   4.726  15.616  0.00  0.00    +0.000 HD
ENDBRANCH   2   8
ENDBRANCH   1   5
BRANCH   1  10
ATOM     10  C   UNL     1       2.152   4.651  19.116  0.00  0.00    +0.000 A 
ATOM     11  C   UNL     1       1.326   3.528  18.946  0.00  0.00    +0.000 A 
ATOM     12  C   UNL     1       0.987   2.724  20.037  0.00  0.00    +0.000 A 
ATOM     13  C   UNL     1       1.504   3.024  21.292  0.00  0.00    +0.000 A 
ATOM     14  C   UNL     1       2.382   4.086  21.465  0.00  0.00    +0.000 A 
ATOM     15  C   UNL     1       2.708   4.900  20.378  0.00  0.00    +0.000 A 
BRANCH  13  16
ATOM     16  O   UNL     1       1.149   2.304  22.394  0.00  0.00    +0.000 OA
ATOM     17  H   UNL     1       0.647   2.882  22.990  0.00  0.00    +0.000 HD
ENDBRANCH  13  16
ENDBRANCH   1  10
TORSDOF 4
ENDMDL
MODEL 6
REMARK VINA RESULT:      -6.8      0.268      1.780
REMARK  Name = 
REMARK  4 active torsions:
REMARK  status: ('A' for Active; 'I' for Inactive)
REMARK    1  A    between atoms: O_1  and  C_2
REMARK    2  A    between atoms: C_5  and  C_6
REMARK    3  A    between atoms: C_6  and  C_7
REMARK    4  A    between atoms: C_10  and  O_11
REMARK                            x       y       z     vdW  Elec       q    Type
REMARK                         _______ _______ _______ _____ _____    ______ ____
ROOT
ATOM      1  C   UNL     1       2.581   5.668  17.889  0.00  0.00    +0.000 C 
ENDROOT
BRANCH   1   5
ATOM      2  C   UNL     1       1.513   3.145  21.236  0.00  0.00    +0.000 A 
ATOM      3  C   UNL     1       2.407   4.191  21.413  0.00  0.00    +0.000 A 
ATOM      4  C   UNL     1       2.762   4.988  20.317  0.00  0.00    +0.000 A 
ATOM      5  C   UNL     1       2.233   4.743  19.046  0.00  0.00    +0.000 A 
ATOM      6  C   UNL     1       1.361   3.650  18.880  0.00  0.00    +0.000 A 
ATOM      7  C   UNL     1       0.990   2.865  19.986  0.00  0.00    +0.000 A 
BRANCH   2   8
ATOM      8  O   UNL     1       1.114   2.356  22.276  0.00  0.00    +0.000 OA
ATOM      9  H   UNL     1       1.274   2.838  23.103  0.00  0.00    +0.000 HD
ENDBRANCH   2   8
ENDBRANCH   1   5
BRANCH   1  10
ATOM     10  C   UNL     1       3.949   5.435  17.289  0.00  0.00    +0.000 A 
ATOM     11  C   UNL     1       4.258   4.194  16.708  0.00  0.00    +0.000 A 
ATOM     12  C   UNL     1       5.561   3.905  16.299  0.00  0.00    +0.000 A 
ATOM     13  C   UNL     1       6.550   4.873  16.438  0.00  0.00    +0.000 A 
ATOM     14  C   UNL     1       6.248   6.132  16.940  0.00  0.00    +0.000 A 
ATOM     15  C   UNL     1       4.948   6.415  17.365  0.00  0.00    +0.000 A 
BRANCH  13  16
ATOM     16  O   UNL     1       7.847   4.611  16.109  0.00  0.00    +0.000 OA
ATOM     17  H   UNL     1       8.208   3.987  16.758  0.00  0.00    +0.000 HD
ENDBRANCH  13  16
ENDBRANCH   1  10
TORSDOF 4
ENDMDL
MODEL 7
REMARK VINA RESULT:      -6.8      0.592      1.333
REMARK  Name = 
REMARK  4 active torsions:
REMARK  status: ('A' for Active; 'I' for Inactive)
REMARK    1  A    between atoms: O_1  and  C_2
REMARK    2  A    between atoms: C_5  and  C_6
REMARK    3  A    between atoms: C_6  and  C_7
REMARK    4  A    between atoms: C_10  and  O_11
REMARK                            x       y       z     vdW  Elec       q    Type
REMARK                         _______ _______ _______ _____ _____    ______ ____
ROOT
ATOM      1  C   UNL     1       2.647   5.488  17.773  0.00  0.00    +0.000 C 
ENDROOT
BRANCH   1   5
ATOM      2  C   UNL     1       1.443   3.110  21.180  0.00  0.00    +0.000 A 
ATOM      3  C   UNL     1       1.006   2.771  19.907  0.00  0.00    +0.000 A 
ATOM      4  C   UNL     1       1.385   3.561  18.815  0.00  0.00    +0.000 A 
ATOM      5  C   UNL     1       2.193   4.689  18.986  0.00  0.00    +0.000 A 
ATOM      6  C   UNL     1       2.590   5.040  20.291  0.00  0.00    +0.000 A 
ATOM      7  C   UNL     1       2.226   4.233  21.383  0.00  0.00    +0.000 A 
BRANCH   2   8
ATOM      8  O   UNL     1       1.124   2.358  22.274  0.00  0.00    +0.000 OA
ATOM      9  H   UNL     1       0.957   1.449  21.981  0.00  0.00    +0.000 HD
ENDBRANCH   2   8
ENDBRANCH   1   5
BRANCH   1  10
ATOM     10  C   UNL     1       4.085   5.252  17.369  0.00  0.00    +0.000 A 
ATOM     11  C   UNL     1       4.406   4.182  16.518  0.00  0.00    +0.000 A 
ATOM     12  C   UNL     1       5.739   3.849  16.266  0.00  0.00    +0.000 A 
ATOM     13  C   UNL     1       6.751   4.611  16.838  0.00  0.00    +0.000 A 
ATOM     14  C   UNL     1       6.453   5.718  17.622  0.00  0.00    +0.000 A 
ATOM     15  C   UNL     1       5.120   6.040  17.888  0.00  0.00    +0.000 A 
BRANCH  13  16
ATOM     16  O   UNL     1       8.064   4.284  16.669  0.00  0.00    +0.000 OA
ATOM     17  H   UNL     1       8.360   3.790  17.451  0.00  0.00    +0.000 HD
ENDBRANCH  13  16
ENDBRANCH   1  10
TORSDOF 4
ENDMDL
MODEL 8
REMARK VINA RESULT:      -6.8      1.184      5.996
REMARK  Name = 
REMARK  4 active torsions:
REMARK  status: ('A' for Active; 'I' for Inactive)
REMARK    1  A    between atoms: O_1  and  C_2
REMARK    2  A    between atoms: C_5  and  C_6
REMARK    3  A    between atoms: C_6  and  C_7
REMARK    4  A    between atoms: C_10  and  O_11
REMARK                            x       y       z     vdW  Elec       q    Type
REMARK                         _______ _______ _______ _____ _____    ______ ____
ROOT
ATOM      1  C   UNL     1       3.028   3.524  16.937  0.00  0.00    +0.000 C 
ENDROOT
BRANCH   1   5
ATOM      2  C   UNL     1       6.540   6.034  16.660  0.00  0.00    +0.000 A 
ATOM      3  C   UNL     1       5.362   6.545  17.187  0.00  0.00    +0.000 A 
ATOM      4  C   UNL     1       4.226   5.729  17.252  0.00  0.00    +0.000 A 
ATOM      5  C   UNL     1       4.257   4.410  16.789  0.00  0.00    +0.000 A 
ATOM      6  C   UNL     1       5.451   3.925  16.220  0.00  0.00    +0.000 A 
ATOM      7  C   UNL     1       6.596   4.739  16.176  0.00  0.00    +0.000 A 
BRANCH   2   8
ATOM      8  O   UNL     1       7.683   6.779  16.600  0.00  0.00    +0.000 OA
ATOM      9  H   UNL     1       7.578   7.546  17.184  0.00  0.00    +0.000 HD
ENDBRANCH   2   8
ENDBRANCH   1   5
BRANCH   1  10
ATOM     10  C   UNL     1       2.644   3.218  18.367  0.00  0.00    +0.000 A 
ATOM     11  C   UNL     1       1.354   3.529  18.826  0.00  0.00    +0.000 A 
ATOM     12  C   UNL     1       1.033   3.407  20.180  0.00  0.00    +0.000 A 
ATOM     13  C   UNL     1       1.994   2.938  21.068  0.00  0.00    +0.000 A 
ATOM     14  C   UNL     1       3.251   2.553  20.621  0.00  0.00    +0.000 A 
ATOM     15  C   UNL     1       3.577   2.693  19.269  0.00  0.00    +0.000 A 
BRANCH  13  16
ATOM     16  O   UNL     1       1.743   2.861  22.407  0.00  0.00    +0.000 OA
ATOM     17  H   UNL     1       1.992   3.706  22.814  0.00  0.00    +0.000 HD
ENDBRANCH  13  16
ENDBRANCH   1  10
TORSDOF 4
ENDMDL
MODEL 9
REMARK VINA RESULT:      -6.8      1.210      5.991
REMARK  Name = 
REMARK  4 active torsions:
REMARK  status: ('A' for Active; 'I' for Inactive)
REMARK    1  A    between atoms: O_1  and  C_2
REMARK    2  A    between atoms: C_5  and  C_6
REMARK    3  A    between atoms: C_6  and  C_7
REMARK    4  A    between atoms: C_10  and  O_11
REMARK                            x       y       z     vdW  Elec       q    Type
REMARK                         _______ _______ _______ _____ _____    ______ ____
ROOT
ATOM      1  C   UNL     1       3.062   3.601  16.948  0.00  0.00    +0.000 C 
ENDROOT
BRANCH   1   5
ATOM      2  C   UNL     1       6.606   6.065  16.679  0.00  0.00    +0.000 A 
ATOM      3  C   UNL     1       6.640   4.751  16.234  0.00  0.00    +0.000 A 
ATOM      4  C   UNL     1       5.492   3.956  16.346  0.00  0.00    +0.000 A 
ATOM      5  C   UNL     1       4.314   4.464  16.903  0.00  0.00    +0.000 A 
ATOM      6  C   UNL     1       4.315   5.788  17.386  0.00  0.00    +0.000 A 
ATOM      7  C   UNL     1       5.461   6.590  17.253  0.00  0.00    +0.000 A 
BRANCH   2   8
ATOM      8  O   UNL     1       7.689   6.890  16.567  0.00  0.00    +0.000 OA
ATOM      9  H   UNL     1       8.416   6.510  17.085  0.00  0.00    +0.000 HD
ENDBRANCH   2   8
ENDBRANCH   1   5
BRANCH   1  10
ATOM     10  C   UNL     1       2.617   3.212  18.339  0.00  0.00    +0.000 A 
ATOM     11  C   UNL     1       1.273   3.370  18.714  0.00  0.00    +0.000 A 
ATOM     12  C   UNL     1       0.876   3.173  20.039  0.00  0.00    +0.000 A 
ATOM     13  C   UNL     1       1.820   2.783  20.982  0.00  0.00    +0.000 A 
ATOM     14  C   UNL     1       3.139   2.548  20.615  0.00  0.00    +0.000 A 
ATOM     15  C   UNL     1       3.538   2.762  19.294  0.00  0.00    +0.000 A 
BRANCH  13  16
ATOM     16  O   UNL     1       1.489   2.639  22.297  0.00  0.00    +0.000 OA
ATOM     17  H   UNL     1       0.523   2.568  22.363  0.00  0.00    +0.000 HD
ENDBRANCH  13  16
ENDBRANCH   1  10
TORSDOF 4
ENDMDL
