MODEL 1
REMARK VINA RESULT:      -7.4      0.000      0.000
REMARK  Name = 
REMARK  13 active torsions:
REMARK  status: ('A' for Active; 'I' for Inactive)
REMARK    1  A    between atoms: C_1  and  C_2
REMARK    2  A    between atoms: N_4  and  C_5
REMARK    3  A    between atoms: C_8  and  C_9
REMARK    4  A    between atoms: C_9  and  O_10
REMARK    5  A    between atoms: O_10  and  P_11
REMARK    6  A    between atoms: P_11  and  O_13
REMARK    7  A    between atoms: P_11  and  O_14
REMARK    8  A    between atoms: O_14  and  P_15
REMARK    9  A    between atoms: P_15  and  O_17
REMARK   10  A    between atoms: P_15  and  O_18
REMARK   11  A    between atoms: O_18  and  P_19
REMARK   12  A    between atoms: P_19  and  O_21
REMARK   13  A    between atoms: P_19  and  O_22
REMARK                            x       y       z     vdW  Elec       q    Type
REMARK                         _______ _______ _______ _____ _____    ______ ____
ROOT
ATOM      1  O   UNL     1       2.622   4.561  18.571  0.00  0.00    +0.000 OA
ENDROOT
BRANCH   1   2
ATOM      2  P   UNL     1       4.339   4.489  18.772  0.00  0.00    +0.000 P 
ATOM      3  O   UNL     1       4.199   3.299  19.721  0.00  0.00    +0.000 OA
BRANCH   2   4
ATOM      4  O   UNL     1       4.479   3.824  17.290  0.00  0.00    +0.000 OA
ATOM      5  H   UNL     1       3.571   3.654  16.965  0.00  0.00    +0.000 HD
ENDBRANCH   2   4
BRANCH   2   6
ATOM      6  O   UNL     1       6.056   4.419  18.972  0.00  0.00    +0.000 OA
BRANCH   6   7
ATOM      7  P   UNL     1       7.269   5.283  17.875  0.00  0.00    +0.000 P 
ATOM      8  O   UNL     1       7.962   6.332  18.709  0.00  0.00    +0.000 OA
BRANCH   7   9
ATOM      9  O   UNL     1       8.289   4.014  17.790  0.00  0.00    +0.000 OA
ATOM     10  H   UNL     1       8.839   4.026  16.992  0.00  0.00    +0.000 HD
ENDBRANCH   7   9
BRANCH   7  11
ATOM     11  O   UNL     1       7.461   5.774  16.115  0.00  0.00    +0.000 OA
BRANCH  11  12
ATOM     12  P   UNL     1       6.905   4.887  14.739  0.00  0.00    +0.000 P 
ATOM     13  O   UNL     1       5.624   5.726  14.708  0.00  0.00    +0.000 OA
BRANCH  12  14
ATOM     14  O   UNL     1       8.000   5.613  13.790  0.00  0.00    +0.000 OA
ATOM     15  H   UNL     1       8.818   5.090  13.758  0.00  0.00    +0.000 HD
ENDBRANCH  12  14
BRANCH  12  16
ATOM     16  O   UNL     1       6.347   3.999  13.363  0.00  0.00    +0.000 OA
ATOM     17  H   UNL     1       5.858   3.204  13.638  0.00  0.00    +0.000 HD
ENDBRANCH  12  16
ENDBRANCH  11  12
ENDBRANCH   7  11
ENDBRANCH   6   7
ENDBRANCH   2   6
ENDBRANCH   1   2
BRANCH   1  18
ATOM     18  C   UNL     1       2.145   5.883  18.310  0.00  0.00    +0.000 C 
BRANCH  18  22
ATOM     19  C   UNL     1       1.647   8.890  20.121  0.00  0.00    +0.000 C 
ATOM     20  C   UNL     1       1.198   7.798  21.027  0.00  0.00    +0.000 C 
ATOM     21  C   UNL     1       1.752   6.645  20.653  0.00  0.00    +0.000 C 
ATOM     22  C   UNL     1       2.558   6.855  19.416  0.00  0.00    +0.000 C 
ATOM     23  O   UNL     1       2.266   8.212  19.012  0.00  0.00    +0.000 OA
BRANCH  19  27
ATOM     24  C   UNL     1      -1.992   9.963  16.873  0.00  0.00    +0.000 C 
ATOM     25  C   UNL     1      -1.192  10.207  18.112  0.00  0.00    +0.000 A 
ATOM     26  C   UNL     1      -0.191   9.429  18.543  0.00  0.00    +0.000 A 
ATOM     27  N   UNL     1       0.534   9.718  19.687  0.00  0.00    +0.000 N 
ATOM     28  C   UNL     1       0.239  10.822  20.468  0.00  0.00    +0.000 A 
ATOM     29  O   UNL     1       0.827  11.103  21.513  0.00  0.00    +0.000 OA
ATOM     30  N   UNL     1      -0.774  11.622  20.021  0.00  0.00    +0.000 N 
ATOM     31  C   UNL     1      -1.529  11.413  18.905  0.00  0.00    +0.000 A 
ATOM     32  O   UNL     1      -2.434  12.176  18.583  0.00  0.00    +0.000 OA
ATOM     33  H   UNL     1      -0.991  12.435  20.575  0.00  0.00    +0.000 HD
ENDBRANCH  19  27
ENDBRANCH  18  22
ENDBRANCH   1  18
TORSDOF 12
ENDMDL
MODEL 2
REMARK VINA RESULT:      -7.4      1.780      3.094
REMARK  Name = 
REMARK  13 active torsions:
REMARK  status: ('A' for Active; 'I' for Inactive)
REMARK    1  A    between atoms: C_1  and  C_2
REMARK    2  A    between atoms: N_4  and  C_5
REMARK    3  A    between atoms: C_8  and  C_9
REMARK    4  A    between atoms: C_9  and  O_10
REMARK    5  A    between atoms: O_10  and  P_11
REMARK    6  A    between atoms: P_11  and  O_13
REMARK    7  A    between atoms: P_11  and  O_14
REMARK    8  A    between atoms: O_14  and  P_15
REMARK    9  A    between atoms: P_15  and  O_17
REMARK   10  A    between atoms: P_15  and  O_18
REMARK   11  A    between atoms: O_18  and  P_19
REMARK   12  A    between atoms: P_19  and  O_21
REMARK   13  A    between atoms: P_19  and  O_22
REMARK                            x       y       z     vdW  Elec       q    Type
REMARK                         _______ _______ _______ _____ _____    ______ ____
ROOT
ATOM      1  O   UNL     1       2.047   7.430  19.703  0.00  0.00    +0.000 OA
ENDROOT
BRANCH   1   2
ATOM      2  P   UNL     1       2.513   5.793  19.395  0.00  0.00    +0.000 P 
ATOM      3  O   UNL     1       2.533   6.060  17.889  0.00  0.00    +0.000 OA
BRANCH   2   4
ATOM      4  O   UNL     1       4.026   6.135  19.896  0.00  0.00    +0.000 OA
ATOM      5  H   UNL     1       4.541   6.388  19.103  0.00  0.00    +0.000 HD
ENDBRANCH   2   4
BRANCH   2   6
ATOM      6  O   UNL     1       2.978   4.156  19.088  0.00  0.00    +0.000 OA
BRANCH   6   7
ATOM      7  P   UNL     1       4.729   3.563  19.038  0.00  0.00    +0.000 P 
ATOM      8  O   UNL     1       4.835   2.391  19.982  0.00  0.00    +0.000 OA
BRANCH   7   9
ATOM      9  O   UNL     1       4.609   2.937  17.538  0.00  0.00    +0.000 OA
ATOM     10  H   UNL     1       4.928   2.023  17.484  0.00  0.00    +0.000 HD
ENDBRANCH   7   9
BRANCH   7  11
ATOM     11  O   UNL     1       6.427   4.230  18.809  0.00  0.00    +0.000 OA
BRANCH  11  12
ATOM     12  P   UNL     1       6.883   5.525  17.758  0.00  0.00    +0.000 P 
ATOM     13  O   UNL     1       7.817   4.582  16.993  0.00  0.00    +0.000 OA
BRANCH  12  14
ATOM     14  O   UNL     1       5.434   5.488  17.034  0.00  0.00    +0.000 OA
ATOM     15  H   UNL     1       4.881   4.789  17.421  0.00  0.00    +0.000 HD
ENDBRANCH  12  14
BRANCH  12  16
ATOM     16  O   UNL     1       7.341   6.820  16.707  0.00  0.00    +0.000 OA
ATOM     17  H   UNL     1       6.824   7.622  16.897  0.00  0.00    +0.000 HD
ENDBRANCH  12  16
ENDBRANCH  11  12
ENDBRANCH   7  11
ENDBRANCH   6   7
ENDBRANCH   2   6
ENDBRANCH   1   2
BRANCH   1  18
ATOM     18  C   UNL     1       1.318   7.584  20.923  0.00  0.00    +0.000 C 
BRANCH  18  22
ATOM     19  C   UNL     1      -0.023  10.861  20.761  0.00  0.00    +0.000 C 
ATOM     20  C   UNL     1      -0.532  10.284  22.035  0.00  0.00    +0.000 C 
ATOM     21  C   UNL     1       0.249   9.273  22.416  0.00  0.00    +0.000 C 
ATOM     22  C   UNL     1       1.304   9.040  21.387  0.00  0.00    +0.000 C 
ATOM     23  O   UNL     1       0.941   9.904  20.286  0.00  0.00    +0.000 OA
BRANCH  19  27
ATOM     24  C   UNL     1      -2.599   9.436  16.728  0.00  0.00    +0.000 C 
ATOM     25  C   UNL     1      -2.300  10.360  17.865  0.00  0.00    +0.000 A 
ATOM     26  C   UNL     1      -1.343  10.162  18.780  0.00  0.00    +0.000 A 
ATOM     27  N   UNL     1      -1.093  11.065  19.799  0.00  0.00    +0.000 N 
ATOM     28  C   UNL     1      -1.846  12.218  19.943  0.00  0.00    +0.000 A 
ATOM     29  O   UNL     1      -1.690  13.034  20.852  0.00  0.00    +0.000 OA
ATOM     30  N   UNL     1      -2.814  12.424  19.001  0.00  0.00    +0.000 N 
ATOM     31  C   UNL     1      -3.118  11.591  17.965  0.00  0.00    +0.000 A 
ATOM     32  O   UNL     1      -4.017  11.846  17.171  0.00  0.00    +0.000 OA
ATOM     33  H   UNL     1      -3.362  13.266  19.088  0.00  0.00    +0.000 HD
ENDBRANCH  19  27
ENDBRANCH  18  22
ENDBRANCH   1  18
TORSDOF 12
ENDMDL
MODEL 3
REMARK VINA RESULT:      -7.3      1.730      2.740
REMARK  Name = 
REMARK  13 active torsions:
REMARK  status: ('A' for Active; 'I' for Inactive)
REMARK    1  A    between atoms: C_1  and  C_2
REMARK    2  A    between atoms: N_4  and  C_5
REMARK    3  A    between atoms: C_8  and  C_9
REMARK    4  A    between atoms: C_9  and  O_10
REMARK    5  A    between atoms: O_10  and  P_11
REMARK    6  A    between atoms: P_11  and  O_13
REMARK    7  A    between atoms: P_11  and  O_14
REMARK    8  A    between atoms: O_14  and  P_15
REMARK    9  A    between atoms: P_15  and  O_17
REMARK   10  A    between atoms: P_15  and  O_18
REMARK   11  A    between atoms: O_18  and  P_19
REMARK   12  A    between atoms: P_19  and  O_21
REMARK   13  A    between atoms: P_19  and  O_22
REMARK                            x       y       z     vdW  Elec       q    Type
REMARK                         _______ _______ _______ _____ _____    ______ ____
ROOT
ATOM      1  O   UNL     1       1.757   7.489  18.366  0.00  0.00    +0.000 OA
ENDROOT
BRANCH   1   2
ATOM      2  P   UNL     1       3.093   6.500  18.847  0.00  0.00    +0.000 P 
ATOM      3  O   UNL     1       2.388   6.149  20.157  0.00  0.00    +0.000 OA
BRANCH   2   4
ATOM      4  O   UNL     1       2.613   5.350  17.796  0.00  0.00    +0.000 OA
ATOM      5  H   UNL     1       1.683   5.133  18.014  0.00  0.00    +0.000 HD
ENDBRANCH   2   4
BRANCH   2   6
ATOM      6  O   UNL     1       4.430   5.513  19.326  0.00  0.00    +0.000 OA
BRANCH   6   7
ATOM      7  P   UNL     1       5.405   4.448  18.171  0.00  0.00    +0.000 P 
ATOM      8  O   UNL     1       6.779   4.275  18.769  0.00  0.00    +0.000 OA
BRANCH   7   9
ATOM      9  O   UNL     1       4.576   3.089  18.520  0.00  0.00    +0.000 OA
ATOM     10  H   UNL     1       4.668   2.406  17.839  0.00  0.00    +0.000 HD
ENDBRANCH   7   9
BRANCH   7  11
ATOM     11  O   UNL     1       5.550   4.103  16.371  0.00  0.00    +0.000 OA
BRANCH  11  12
ATOM     12  P   UNL     1       6.665   4.840  15.275  0.00  0.00    +0.000 P 
ATOM     13  O   UNL     1       5.622   5.905  14.921  0.00  0.00    +0.000 OA
BRANCH  12  14
ATOM     14  O   UNL     1       7.553   5.403  16.509  0.00  0.00    +0.000 OA
ATOM     15  H   UNL     1       7.807   4.675  17.101  0.00  0.00    +0.000 HD
ENDBRANCH  12  14
BRANCH  12  16
ATOM     16  O   UNL     1       7.779   5.578  14.177  0.00  0.00    +0.000 OA
ATOM     17  H   UNL     1       7.353   6.297  13.679  0.00  0.00    +0.000 HD
ENDBRANCH  12  16
ENDBRANCH  11  12
ENDBRANCH   7  11
ENDBRANCH   6   7
ENDBRANCH   2   6
ENDBRANCH   1   2
BRANCH   1  18
ATOM     18  C   UNL     1       2.142   8.822  18.024  0.00  0.00    +0.000 C 
BRANCH  18  22
ATOM     19  C   UNL     1      -0.321  11.011  19.331  0.00  0.00    +0.000 C 
ATOM     20  C   UNL     1      -0.326   9.823  20.227  0.00  0.00    +0.000 C 
ATOM     21  C   UNL     1       0.832   9.171  20.118  0.00  0.00    +0.000 C 
ATOM     22  C   UNL     1       1.679   9.826  19.080  0.00  0.00    +0.000 C 
ATOM     23  O   UNL     1       0.819  10.817  18.473  0.00  0.00    +0.000 OA
BRANCH  19  27
ATOM     24  C   UNL     1      -3.100   9.838  15.351  0.00  0.00    +0.000 C 
ATOM     25  C   UNL     1      -2.854  10.536  16.650  0.00  0.00    +0.000 A 
ATOM     26  C   UNL     1      -1.739  10.420  17.382  0.00  0.00    +0.000 A 
ATOM     27  N   UNL     1      -1.554  11.111  18.567  0.00  0.00    +0.000 N 
ATOM     28  C   UNL     1      -2.534  11.945  19.077  0.00  0.00    +0.000 A 
ATOM     29  O   UNL     1      -2.436  12.552  20.144  0.00  0.00    +0.000 OA
ATOM     30  N   UNL     1      -3.667  12.072  18.323  0.00  0.00    +0.000 N 
ATOM     31  C   UNL     1      -3.923  11.435  17.145  0.00  0.00    +0.000 A 
ATOM     32  O   UNL     1      -4.977  11.594  16.539  0.00  0.00    +0.000 OA
ATOM     33  H   UNL     1      -4.383  12.685  18.678  0.00  0.00    +0.000 HD
ENDBRANCH  19  27
ENDBRANCH  18  22
ENDBRANCH   1  18
TORSDOF 12
ENDMDL
MODEL 4
REMARK VINA RESULT:      -7.2      2.498      4.578
REMARK  Name = 
REMARK  13 active torsions:
REMARK  status: ('A' for Active; 'I' for Inactive)
REMARK    1  A    between atoms: C_1  and  C_2
REMARK    2  A    between atoms: N_4  and  C_5
REMARK    3  A    between atoms: C_8  and  C_9
REMARK    4  A    between atoms: C_9  and  O_10
REMARK    5  A    between atoms: O_10  and  P_11
REMARK    6  A    between atoms: P_11  and  O_13
REMARK    7  A    between atoms: P_11  and  O_14
REMARK    8  A    between atoms: O_14  and  P_15
REMARK    9  A    between atoms: P_15  and  O_17
REMARK   10  A    between atoms: P_15  and  O_18
REMARK   11  A    between atoms: O_18  and  P_19
REMARK   12  A    between atoms: P_19  and  O_21
REMARK   13  A    between atoms: P_19  and  O_22
REMARK                            x       y       z     vdW  Elec       q    Type
REMARK                         _______ _______ _______ _____ _____    ______ ____
ROOT
ATOM      1  O   UNL     1       3.295   7.981  17.644  0.00  0.00    +0.000 OA
ENDROOT
BRANCH   1   2
ATOM      2  P   UNL     1       4.009   6.517  18.228  0.00  0.00    +0.000 P 
ATOM      3  O   UNL     1       2.650   5.818  18.200  0.00  0.00    +0.000 OA
BRANCH   2   4
ATOM      4  O   UNL     1       4.645   6.246  16.752  0.00  0.00    +0.000 OA
ATOM      5  H   UNL     1       4.150   5.497  16.360  0.00  0.00    +0.000 HD
ENDBRANCH   2   4
BRANCH   2   6
ATOM      6  O   UNL     1       4.724   5.055  18.812  0.00  0.00    +0.000 OA
BRANCH   6   7
ATOM      7  P   UNL     1       3.971   3.377  18.617  0.00  0.00    +0.000 P 
ATOM      8  O   UNL     1       4.217   2.935  17.196  0.00  0.00    +0.000 OA
BRANCH   7   9
ATOM      9  O   UNL     1       5.092   2.628  19.533  0.00  0.00    +0.000 OA
ATOM     10  H   UNL     1       5.693   3.248  19.974  0.00  0.00    +0.000 HD
ENDBRANCH   7   9
BRANCH   7  11
ATOM     11  O   UNL     1       2.551   2.398  19.252  0.00  0.00    +0.000 OA
BRANCH  11  12
ATOM     12  P   UNL     1       1.835   2.533  20.820  0.00  0.00    +0.000 P 
ATOM     13  O   UNL     1       2.737   3.731  21.134  0.00  0.00    +0.000 OA
BRANCH  12  14
ATOM     14  O   UNL     1       0.459   3.100  20.176  0.00  0.00    +0.000 OA
ATOM     15  H   UNL     1       0.518   3.106  19.206  0.00  0.00    +0.000 HD
ENDBRANCH  12  14
BRANCH  12  16
ATOM     16  O   UNL     1       1.120   2.669  22.389  0.00  0.00    +0.000 OA
ATOM     17  H   UNL     1       0.183   2.411  22.368  0.00  0.00    +0.000 HD
ENDBRANCH  12  16
ENDBRANCH  11  12
ENDBRANCH   7  11
ENDBRANCH   6   7
ENDBRANCH   2   6
ENDBRANCH   1   2
BRANCH   1  18
ATOM     18  C   UNL     1       1.917   8.112  18.002  0.00  0.00    +0.000 C 
BRANCH  18  22
ATOM     19  C   UNL     1      -0.107  10.798  19.123  0.00  0.00    +0.000 C 
ATOM     20  C   UNL     1      -0.185   9.765  20.192  0.00  0.00    +0.000 C 
ATOM     21  C   UNL     1       0.862   8.945  20.104  0.00  0.00    +0.000 C 
ATOM     22  C   UNL     1       1.689   9.314  18.918  0.00  0.00    +0.000 C 
ATOM     23  O   UNL     1       0.913  10.320  18.227  0.00  0.00    +0.000 OA
BRANCH  19  27
ATOM     24  C   UNL     1      -3.200   9.780  15.337  0.00  0.00    +0.000 C 
ATOM     25  C   UNL     1      -2.833  10.460  16.616  0.00  0.00    +0.000 A 
ATOM     26  C   UNL     1      -1.679  10.285  17.272  0.00  0.00    +0.000 A 
ATOM     27  N   UNL     1      -1.381  10.962  18.443  0.00  0.00    +0.000 N 
ATOM     28  C   UNL     1      -2.282  11.843  19.017  0.00  0.00    +0.000 A 
ATOM     29  O   UNL     1      -2.083  12.441  20.075  0.00  0.00    +0.000 OA
ATOM     30  N   UNL     1      -3.454  12.029  18.340  0.00  0.00    +0.000 N 
ATOM     31  C   UNL     1      -3.820  11.410  17.182  0.00  0.00    +0.000 A 
ATOM     32  O   UNL     1      -4.903  11.624  16.646  0.00  0.00    +0.000 OA
ATOM     33  H   UNL     1      -4.114  12.676  18.742  0.00  0.00    +0.000 HD
ENDBRANCH  19  27
ENDBRANCH  18  22
ENDBRANCH   1  18
TORSDOF 12
ENDMDL
MODEL 5
REMARK VINA RESULT:      -7.2      1.735      3.284
REMARK  Name = 
REMARK  13 active torsions:
REMARK  status: ('A' for Active; 'I' for Inactive)
REMARK    1  A    between atoms: C_1  and  C_2
REMARK    2  A    between atoms: N_4  and  C_5
REMARK    3  A    between atoms: C_8  and  C_9
REMARK    4  A    between atoms: C_9  and  O_10
REMARK    5  A    between atoms: O_10  and  P_11
REMARK    6  A    between atoms: P_11  and  O_13
REMARK    7  A    between atoms: P_11  and  O_14
REMARK    8  A    between atoms: O_14  and  P_15
REMARK    9  A    between atoms: P_15  and  O_17
REMARK   10  A    between atoms: P_15  and  O_18
REMARK   11  A    between atoms: O_18  and  P_19
REMARK   12  A    between atoms: P_19  and  O_21
REMARK   13  A    between atoms: P_19  and  O_22
REMARK                            x       y       z     vdW  Elec       q    Type
REMARK                         _______ _______ _______ _____ _____    ______ ____
ROOT
ATOM      1  O   UNL     1       2.075   7.616  20.028  0.00  0.00    +0.000 OA
ENDROOT
BRANCH   1   2
ATOM      2  P   UNL     1       2.373   5.953  19.655  0.00  0.00    +0.000 P 
ATOM      3  O   UNL     1       3.837   6.264  19.341  0.00  0.00    +0.000 OA
BRANCH   2   4
ATOM      4  O   UNL     1       2.357   5.599  21.246  0.00  0.00    +0.000 OA
ATOM      5  H   UNL     1       3.002   6.195  21.679  0.00  0.00    +0.000 HD
ENDBRANCH   2   4
BRANCH   2   6
ATOM      6  O   UNL     1       2.669   4.290  19.282  0.00  0.00    +0.000 OA
BRANCH   6   7
ATOM      7  P   UNL     1       4.178   3.671  18.409  0.00  0.00    +0.000 P 
ATOM      8  O   UNL     1       3.967   2.204  18.130  0.00  0.00    +0.000 OA
BRANCH   7   9
ATOM      9  O   UNL     1       3.850   4.456  17.018  0.00  0.00    +0.000 OA
ATOM     10  H   UNL     1       3.964   3.898  16.234  0.00  0.00    +0.000 HD
ENDBRANCH   7   9
BRANCH   7  11
ATOM     11  O   UNL     1       5.989   3.979  18.355  0.00  0.00    +0.000 OA
BRANCH  11  12
ATOM     12  P   UNL     1       6.809   5.077  17.300  0.00  0.00    +0.000 P 
ATOM     13  O   UNL     1       6.992   6.063  18.458  0.00  0.00    +0.000 OA
BRANCH  12  14
ATOM     14  O   UNL     1       8.111   4.111  17.258  0.00  0.00    +0.000 OA
ATOM     15  H   UNL     1       8.185   3.684  16.388  0.00  0.00    +0.000 HD
ENDBRANCH  12  14
BRANCH  12  16
ATOM     16  O   UNL     1       7.629   6.175  16.245  0.00  0.00    +0.000 OA
ATOM     17  H   UNL     1       7.863   5.743  15.406  0.00  0.00    +0.000 HD
ENDBRANCH  12  16
ENDBRANCH  11  12
ENDBRANCH   7  11
ENDBRANCH   6   7
ENDBRANCH   2   6
ENDBRANCH   1   2
BRANCH   1  18
ATOM     18  C   UNL     1       1.262   7.791  21.190  0.00  0.00    +0.000 C 
BRANCH  18  22
ATOM     19  C   UNL     1      -0.145  11.033  20.922  0.00  0.00    +0.000 C 
ATOM     20  C   UNL     1      -0.669  10.475  22.198  0.00  0.00    +0.000 C 
ATOM     21  C   UNL     1       0.126   9.491  22.620  0.00  0.00    +0.000 C 
ATOM     22  C   UNL     1       1.207   9.258  21.618  0.00  0.00    +0.000 C 
ATOM     23  O   UNL     1       0.849  10.087  20.489  0.00  0.00    +0.000 OA
BRANCH  19  27
ATOM     24  C   UNL     1      -2.448   9.602  16.728  0.00  0.00    +0.000 C 
ATOM     25  C   UNL     1      -2.274  10.485  17.922  0.00  0.00    +0.000 A 
ATOM     26  C   UNL     1      -1.331  10.326  18.860  0.00  0.00    +0.000 A 
ATOM     27  N   UNL     1      -1.200  11.190  19.934  0.00  0.00    +0.000 N 
ATOM     28  C   UNL     1      -2.063  12.259  20.110  0.00  0.00    +0.000 A 
ATOM     29  O   UNL     1      -2.013  13.034  21.065  0.00  0.00    +0.000 OA
ATOM     30  N   UNL     1      -3.016  12.426  19.145  0.00  0.00    +0.000 N 
ATOM     31  C   UNL     1      -3.207  11.628  18.057  0.00  0.00    +0.000 A 
ATOM     32  O   UNL     1      -4.101  11.842  17.245  0.00  0.00    +0.000 OA
ATOM     33  H   UNL     1      -3.643  13.207  19.256  0.00  0.00    +0.000 HD
ENDBRANCH  19  27
ENDBRANCH  18  22
ENDBRANCH   1  18
TORSDOF 12
ENDMDL
MODEL 6
REMARK VINA RESULT:      -7.1      4.574      8.362
REMARK  Name = 
REMARK  13 active torsions:
REMARK  status: ('A' for Active; 'I' for Inactive)
REMARK    1  A    between atoms: C_1  and  C_2
REMARK    2  A    between atoms: N_4  and  C_5
REMARK    3  A    between atoms: C_8  and  C_9
REMARK    4  A    between atoms: C_9  and  O_10
REMARK    5  A    between atoms: O_10  and  P_11
REMARK    6  A    between atoms: P_11  and  O_13
REMARK    7  A    between atoms: P_11  and  O_14
REMARK    8  A    between atoms: O_14  and  P_15
REMARK    9  A    between atoms: P_15  and  O_17
REMARK   10  A    between atoms: P_15  and  O_18
REMARK   11  A    between atoms: O_18  and  P_19
REMARK   12  A    between atoms: P_19  and  O_21
REMARK   13  A    between atoms: P_19  and  O_22
REMARK                            x       y       z     vdW  Elec       q    Type
REMARK                         _______ _______ _______ _____ _____    ______ ____
ROOT
ATOM      1  O   UNL     1       2.277   5.589  20.189  0.00  0.00    +0.000 OA
ENDROOT
BRANCH   1   2
ATOM      2  P   UNL     1       1.978   7.003  19.238  0.00  0.00    +0.000 P 
ATOM      3  O   UNL     1       2.232   7.898  20.451  0.00  0.00    +0.000 OA
BRANCH   2   4
ATOM      4  O   UNL     1       3.440   6.833  18.536  0.00  0.00    +0.000 OA
ATOM      5  H   UNL     1       4.044   6.468  19.215  0.00  0.00    +0.000 HD
ENDBRANCH   2   4
BRANCH   2   6
ATOM      6  O   UNL     1       1.679   8.416  18.286  0.00  0.00    +0.000 OA
BRANCH   6   7
ATOM      7  P   UNL     1       0.755   9.900  18.887  0.00  0.00    +0.000 P 
ATOM      8  O   UNL     1       1.660  11.095  18.716  0.00  0.00    +0.000 OA
BRANCH   7   9
ATOM      9  O   UNL     1      -0.281   9.923  17.629  0.00  0.00    +0.000 OA
ATOM     10  H   UNL     1       0.166  10.014  16.774  0.00  0.00    +0.000 HD
ENDBRANCH   7   9
BRANCH   7  11
ATOM     11  O   UNL     1      -0.502  10.349  20.152  0.00  0.00    +0.000 OA
BRANCH  11  12
ATOM     12  P   UNL     1      -0.295  10.284  21.867  0.00  0.00    +0.000 P 
ATOM     13  O   UNL     1      -0.611   8.785  21.854  0.00  0.00    +0.000 OA
BRANCH  12  14
ATOM     14  O   UNL     1       1.309  10.458  21.711  0.00  0.00    +0.000 OA
ATOM     15  H   UNL     1       1.769   9.691  22.092  0.00  0.00    +0.000 HD
ENDBRANCH  12  14
BRANCH  12  16
ATOM     16  O   UNL     1      -0.090  10.219  23.583  0.00  0.00    +0.000 OA
ATOM     17  H   UNL     1      -0.440  11.021  24.007  0.00  0.00    +0.000 HD
ENDBRANCH  12  16
ENDBRANCH  11  12
ENDBRANCH   7  11
ENDBRANCH   6   7
ENDBRANCH   2   6
ENDBRANCH   1   2
BRANCH   1  18
ATOM     18  C   UNL     1       1.391   4.511  19.882  0.00  0.00    +0.000 C 
BRANCH  18  22
ATOM     19  C   UNL     1       4.188   3.190  18.150  0.00  0.00    +0.000 C 
ATOM     20  C   UNL     1       4.367   2.780  19.570  0.00  0.00    +0.000 C 
ATOM     21  C   UNL     1       3.193   2.815  20.201  0.00  0.00    +0.000 C 
ATOM     22  C   UNL     1       2.142   3.326  19.273  0.00  0.00    +0.000 C 
ATOM     23  O   UNL     1       2.864   3.754  18.097  0.00  0.00    +0.000 OA
BRANCH  19  27
ATOM     24  C   UNL     1       8.012   6.224  19.200  0.00  0.00    +0.000 C 
ATOM     25  C   UNL     1       7.018   5.599  18.275  0.00  0.00    +0.000 A 
ATOM     26  C   UNL     1       6.112   4.681  18.634  0.00  0.00    +0.000 A 
ATOM     27  N   UNL     1       5.196   4.153  17.740  0.00  0.00    +0.000 N 
ATOM     28  C   UNL     1       5.189   4.530  16.407  0.00  0.00    +0.000 A 
ATOM     29  O   UNL     1       4.422   4.064  15.564  0.00  0.00    +0.000 OA
ATOM     30  N   UNL     1       6.107   5.475  16.046  0.00  0.00    +0.000 N 
ATOM     31  C   UNL     1       7.035   6.049  16.864  0.00  0.00    +0.000 A 
ATOM     32  O   UNL     1       7.835   6.882  16.452  0.00  0.00    +0.000 OA
ATOM     33  H   UNL     1       6.104   5.766  15.081  0.00  0.00    +0.000 HD
ENDBRANCH  19  27
ENDBRANCH  18  22
ENDBRANCH   1  18
TORSDOF 12
ENDMDL
MODEL 7
REMARK VINA RESULT:      -7.0      1.787      3.268
REMARK  Name = 
REMARK  13 active torsions:
REMARK  status: ('A' for Active; 'I' for Inactive)
REMARK    1  A    between atoms: C_1  and  C_2
REMARK    2  A    between atoms: N_4  and  C_5
REMARK    3  A    between atoms: C_8  and  C_9
REMARK    4  A    between atoms: C_9  and  O_10
REMARK    5  A    between atoms: O_10  and  P_11
REMARK    6  A    between atoms: P_11  and  O_13
REMARK    7  A    between atoms: P_11  and  O_14
REMARK    8  A    between atoms: O_14  and  P_15
REMARK    9  A    between atoms: P_15  and  O_17
REMARK   10  A    between atoms: P_15  and  O_18
REMARK   11  A    between atoms: O_18  and  P_19
REMARK   12  A    between atoms: P_19  and  O_21
REMARK   13  A    between atoms: P_19  and  O_22
REMARK                            x       y       z     vdW  Elec       q    Type
REMARK                         _______ _______ _______ _____ _____    ______ ____
ROOT
ATOM      1  O   UNL     1       2.199   7.611  20.015  0.00  0.00    +0.000 OA
ENDROOT
BRANCH   1   2
ATOM      2  P   UNL     1       2.411   5.931  19.657  0.00  0.00    +0.000 P 
ATOM      3  O   UNL     1       3.903   6.153  19.403  0.00  0.00    +0.000 OA
BRANCH   2   4
ATOM      4  O   UNL     1       2.309   5.585  21.247  0.00  0.00    +0.000 OA
ATOM      5  H   UNL     1       2.086   6.420  21.708  0.00  0.00    +0.000 HD
ENDBRANCH   2   4
BRANCH   2   6
ATOM      6  O   UNL     1       2.622   4.252  19.298  0.00  0.00    +0.000 OA
BRANCH   6   7
ATOM      7  P   UNL     1       4.102   3.548  18.442  0.00  0.00    +0.000 P 
ATOM      8  O   UNL     1       3.880   2.062  18.307  0.00  0.00    +0.000 OA
BRANCH   7   9
ATOM      9  O   UNL     1       3.735   4.203  16.995  0.00  0.00    +0.000 OA
ATOM     10  H   UNL     1       3.208   5.013  17.072  0.00  0.00    +0.000 HD
ENDBRANCH   7   9
BRANCH   7  11
ATOM     11  O   UNL     1       5.912   3.841  18.308  0.00  0.00    +0.000 OA
BRANCH  11  12
ATOM     12  P   UNL     1       6.706   4.809  17.115  0.00  0.00    +0.000 P 
ATOM     13  O   UNL     1       6.199   3.875  16.012  0.00  0.00    +0.000 OA
BRANCH  12  14
ATOM     14  O   UNL     1       5.615   5.993  17.307  0.00  0.00    +0.000 OA
ATOM     15  H   UNL     1       6.046   6.862  17.245  0.00  0.00    +0.000 HD
ENDBRANCH  12  14
BRANCH  12  16
ATOM     16  O   UNL     1       7.500   5.776  15.922  0.00  0.00    +0.000 OA
ATOM     17  H   UNL     1       6.925   5.918  15.150  0.00  0.00    +0.000 HD
ENDBRANCH  12  16
ENDBRANCH  11  12
ENDBRANCH   7  11
ENDBRANCH   6   7
ENDBRANCH   2   6
ENDBRANCH   1   2
BRANCH   1  18
ATOM     18  C   UNL     1       1.334   7.840  21.130  0.00  0.00    +0.000 C 
BRANCH  18  22
ATOM     19  C   UNL     1       0.079  11.085  20.453  0.00  0.00    +0.000 C 
ATOM     20  C   UNL     1      -0.679  10.603  21.639  0.00  0.00    +0.000 C 
ATOM     21  C   UNL     1       0.002   9.630  22.245  0.00  0.00    +0.000 C 
ATOM     22  C   UNL     1       1.239   9.327  21.468  0.00  0.00    +0.000 C 
ATOM     23  O   UNL     1       1.111  10.101  20.254  0.00  0.00    +0.000 OA
BRANCH  19  27
ATOM     24  C   UNL     1      -3.513   9.319  17.467  0.00  0.00    +0.000 C 
ATOM     25  C   UNL     1      -2.491  10.332  17.873  0.00  0.00    +0.000 A 
ATOM     26  C   UNL     1      -1.727  10.250  18.969  0.00  0.00    +0.000 A 
ATOM     27  N   UNL     1      -0.776  11.206  19.284  0.00  0.00    +0.000 N 
ATOM     28  C   UNL     1      -0.585  12.323  18.488  0.00  0.00    +0.000 A 
ATOM     29  O   UNL     1       0.219  13.221  18.741  0.00  0.00    +0.000 OA
ATOM     30  N   UNL     1      -1.358  12.399  17.363  0.00  0.00    +0.000 N 
ATOM     31  C   UNL     1      -2.307  11.499  16.979  0.00  0.00    +0.000 A 
ATOM     32  O   UNL     1      -2.970  11.652  15.958  0.00  0.00    +0.000 OA
ATOM     33  H   UNL     1      -1.220  13.201  16.770  0.00  0.00    +0.000 HD
ENDBRANCH  19  27
ENDBRANCH  18  22
ENDBRANCH   1  18
TORSDOF 12
ENDMDL
MODEL 8
REMARK VINA RESULT:      -6.9      2.835      3.964
REMARK  Name = 
REMARK  13 active torsions:
REMARK  status: ('A' for Active; 'I' for Inactive)
REMARK    1  A    between atoms: C_1  and  C_2
REMARK    2  A    between atoms: N_4  and  C_5
REMARK    3  A    between atoms: C_8  and  C_9
REMARK    4  A    between atoms: C_9  and  O_10
REMARK    5  A    between atoms: O_10  and  P_11
REMARK    6  A    between atoms: P_11  and  O_13
REMARK    7  A    between atoms: P_11  and  O_14
REMARK    8  A    between atoms: O_14  and  P_15
REMARK    9  A    between atoms: P_15  and  O_17
REMARK   10  A    between atoms: P_15  and  O_18
REMARK   11  A    between atoms: O_18  and  P_19
REMARK   12  A    between atoms: P_19  and  O_21
REMARK   13  A    between atoms: P_19  and  O_22
REMARK                            x       y       z     vdW  Elec       q    Type
REMARK                         _______ _______ _______ _____ _____    ______ ____
ROOT
ATOM      1  O   UNL     1       1.692   7.863  17.808  0.00  0.00    +0.000 OA
ENDROOT
BRANCH   1   2
ATOM      2  P   UNL     1       2.864   6.821  18.540  0.00  0.00    +0.000 P 
ATOM      3  O   UNL     1       2.192   5.596  17.922  0.00  0.00    +0.000 OA
BRANCH   2   4
ATOM      4  O   UNL     1       3.965   7.293  17.434  0.00  0.00    +0.000 OA
ATOM      5  H   UNL     1       3.514   7.914  16.827  0.00  0.00    +0.000 HD
ENDBRANCH   2   4
BRANCH   2   6
ATOM      6  O   UNL     1       4.036   5.781  19.273  0.00  0.00    +0.000 OA
BRANCH   6   7
ATOM      7  P   UNL     1       5.082   4.573  18.343  0.00  0.00    +0.000 P 
ATOM      8  O   UNL     1       6.331   4.339  19.156  0.00  0.00    +0.000 OA
BRANCH   7   9
ATOM      9  O   UNL     1       4.099   3.305  18.633  0.00  0.00    +0.000 OA
ATOM     10  H   UNL     1       3.888   3.200  19.573  0.00  0.00    +0.000 HD
ENDBRANCH   7   9
BRANCH   7  11
ATOM     11  O   UNL     1       5.466   4.098  16.609  0.00  0.00    +0.000 OA
BRANCH  11  12
ATOM     12  P   UNL     1       6.657   4.826  15.590  0.00  0.00    +0.000 P 
ATOM     13  O   UNL     1       6.165   6.218  15.999  0.00  0.00    +0.000 OA
BRANCH  12  14
ATOM     14  O   UNL     1       7.840   4.395  16.612  0.00  0.00    +0.000 OA
ATOM     15  H   UNL     1       8.572   5.033  16.569  0.00  0.00    +0.000 HD
ENDBRANCH  12  14
BRANCH  12  16
ATOM     16  O   UNL     1       7.848   5.556  14.569  0.00  0.00    +0.000 OA
ATOM     17  H   UNL     1       8.526   6.012  15.097  0.00  0.00    +0.000 HD
ENDBRANCH  12  16
ENDBRANCH  11  12
ENDBRANCH   7  11
ENDBRANCH   6   7
ENDBRANCH   2   6
ENDBRANCH   1   2
BRANCH   1  18
ATOM     18  C   UNL     1       1.881   9.239  18.143  0.00  0.00    +0.000 C 
BRANCH  18  22
ATOM     19  C   UNL     1       0.064  11.941  19.545  0.00  0.00    +0.000 C 
ATOM     20  C   UNL     1      -0.792  11.409  18.450  0.00  0.00    +0.000 C 
ATOM     21  C   UNL     1      -0.440  10.154  18.172  0.00  0.00    +0.000 C 
ATOM     22  C   UNL     1       0.735   9.767  19.006  0.00  0.00    +0.000 C 
ATOM     23  O   UNL     1       1.137  10.990  19.665  0.00  0.00    +0.000 OA
BRANCH  19  27
ATOM     24  C   UNL     1       3.624  14.975  17.795  0.00  0.00    +0.000 C 
ATOM     25  C   UNL     1       2.286  14.695  18.399  0.00  0.00    +0.000 A 
ATOM     26  C   UNL     1       1.800  13.472  18.650  0.00  0.00    +0.000 A 
ATOM     27  N   UNL     1       0.562  13.272  19.236  0.00  0.00    +0.000 N 
ATOM     28  C   UNL     1      -0.259  14.335  19.570  0.00  0.00    +0.000 A 
ATOM     29  O   UNL     1      -1.383  14.211  20.058  0.00  0.00    +0.000 OA
ATOM     30  N   UNL     1       0.243  15.582  19.324  0.00  0.00    +0.000 N 
ATOM     31  C   UNL     1       1.451  15.865  18.760  0.00  0.00    +0.000 A 
ATOM     32  O   UNL     1       1.819  17.018  18.559  0.00  0.00    +0.000 OA
ATOM     33  H   UNL     1      -0.341  16.365  19.573  0.00  0.00    +0.000 HD
ENDBRANCH  19  27
ENDBRANCH  18  22
ENDBRANCH   1  18
TORSDOF 12
ENDMDL
MODEL 9
REMARK VINA RESULT:      -6.9      2.454      4.219
REMARK  Name = 
REMARK  13 active torsions:
REMARK  status: ('A' for Active; 'I' for Inactive)
REMARK    1  A    between atoms: C_1  and  C_2
REMARK    2  A    between atoms: N_4  and  C_5
REMARK    3  A    between atoms: C_8  and  C_9
REMARK    4  A    between atoms: C_9  and  O_10
REMARK    5  A    between atoms: O_10  and  P_11
REMARK    6  A    between atoms: P_11  and  O_13
REMARK    7  A    between atoms: P_11  and  O_14
REMARK    8  A    between atoms: O_14  and  P_15
REMARK    9  A    between atoms: P_15  and  O_17
REMARK   10  A    between atoms: P_15  and  O_18
REMARK   11  A    between atoms: O_18  and  P_19
REMARK   12  A    between atoms: P_19  and  O_21
REMARK   13  A    between atoms: P_19  and  O_22
REMARK                            x       y       z     vdW  Elec       q    Type
REMARK                         _______ _______ _______ _____ _____    ______ ____
ROOT
ATOM      1  O   UNL     1       1.842   7.797  19.085  0.00  0.00    +0.000 OA
ENDROOT
BRANCH   1   2
ATOM      2  P   UNL     1       3.212   6.834  18.651  0.00  0.00    +0.000 P 
ATOM      3  O   UNL     1       2.298   5.776  18.032  0.00  0.00    +0.000 OA
BRANCH   2   4
ATOM      4  O   UNL     1       3.541   7.863  17.429  0.00  0.00    +0.000 OA
ATOM      5  H   UNL     1       4.514   7.882  17.325  0.00  0.00    +0.000 HD
ENDBRANCH   2   4
BRANCH   2   6
ATOM      6  O   UNL     1       4.583   5.872  18.217  0.00  0.00    +0.000 OA
BRANCH   6   7
ATOM      7  P   UNL     1       4.531   4.041  17.964  0.00  0.00    +0.000 P 
ATOM      8  O   UNL     1       4.768   3.782  16.497  0.00  0.00    +0.000 OA
BRANCH   7   9
ATOM      9  O   UNL     1       5.952   3.769  18.715  0.00  0.00    +0.000 OA
ATOM     10  H   UNL     1       5.875   3.785  19.681  0.00  0.00    +0.000 HD
ENDBRANCH   7   9
BRANCH   7  11
ATOM     11  O   UNL     1       3.689   2.556  18.647  0.00  0.00    +0.000 OA
BRANCH  11  12
ATOM     12  P   UNL     1       2.001   2.199  18.540  0.00  0.00    +0.000 P 
ATOM     13  O   UNL     1       1.739   3.036  19.796  0.00  0.00    +0.000 OA
BRANCH  12  14
ATOM     14  O   UNL     1       1.846   3.170  17.251  0.00  0.00    +0.000 OA
ATOM     15  H   UNL     1       2.546   3.844  17.251  0.00  0.00    +0.000 HD
ENDBRANCH  12  14
BRANCH  12  16
ATOM     16  O   UNL     1       0.312   1.840  18.435  0.00  0.00    +0.000 OA
ATOM     17  H   UNL     1      -0.184   2.290  19.141  0.00  0.00    +0.000 HD
ENDBRANCH  12  16
ENDBRANCH  11  12
ENDBRANCH   7  11
ENDBRANCH   6   7
ENDBRANCH   2   6
ENDBRANCH   1   2
BRANCH   1  18
ATOM     18  C   UNL     1       1.781   9.036  18.374  0.00  0.00    +0.000 C 
BRANCH  18  22
ATOM     19  C   UNL     1      -0.630  11.420  19.407  0.00  0.00    +0.000 C 
ATOM     20  C   UNL     1      -0.629  10.370  20.461  0.00  0.00    +0.000 C 
ATOM     21  C   UNL     1       0.519   9.693  20.423  0.00  0.00    +0.000 C 
ATOM     22  C   UNL     1       1.352  10.185  19.286  0.00  0.00    +0.000 C 
ATOM     23  O   UNL     1       0.489  11.092  18.562  0.00  0.00    +0.000 OA
BRANCH  19  27
ATOM     24  C   UNL     1      -3.325  10.178  15.390  0.00  0.00    +0.000 C 
ATOM     25  C   UNL     1      -3.137  10.825  16.725  0.00  0.00    +0.000 A 
ATOM     26  C   UNL     1      -2.004  10.789  17.439  0.00  0.00    +0.000 A 
ATOM     27  N   UNL     1      -1.877  11.429  18.661  0.00  0.00    +0.000 N 
ATOM     28  C   UNL     1      -2.934  12.122  19.226  0.00  0.00    +0.000 A 
ATOM     29  O   UNL     1      -2.886  12.676  20.324  0.00  0.00    +0.000 OA
ATOM     30  N   UNL     1      -4.085  12.168  18.490  0.00  0.00    +0.000 N 
ATOM     31  C   UNL     1      -4.288  11.574  17.280  0.00  0.00    +0.000 A 
ATOM     32  O   UNL     1      -5.362  11.652  16.692  0.00  0.00    +0.000 OA
ATOM     33  H   UNL     1      -4.857  12.679  18.885  0.00  0.00    +0.000 HD
ENDBRANCH  19  27
ENDBRANCH  18  22
ENDBRANCH   1  18
TORSDOF 12
ENDMDL
