MODEL 1
REMARK VINA RESULT:      -7.4      0.000      0.000
REMARK  Name = 
REMARK  7 active torsions:
REMARK  status: ('A' for Active; 'I' for Inactive)
REMARK    1  A    between atoms: C_1  and  C_2
REMARK    2  A    between atoms: C_2  and  O_3
REMARK    3  A    between atoms: O_3  and  C_4
REMARK    4  A    between atoms: C_8  and  C_9
REMARK    5  A    between atoms: C_14  and  C_15
REMARK    6  A    between atoms: C_24  and  O_25
REMARK    7  A    between atoms: O_25  and  C_26
REMARK                            x       y       z     vdW  Elec       q    Type
REMARK                         _______ _______ _______ _____ _____    ______ ____
ROOT
ATOM      1  C   UNL     1       4.023   5.486  17.192  0.00  0.00    +0.000 C 
ATOM      2  C   UNL     1       5.426   5.518  17.682  0.00  0.00    +0.000 A 
ATOM      3  C   UNL     1       6.100   4.373  18.155  0.00  0.00    +0.000 A 
ATOM      4  N   UNL     1       7.352   4.604  18.519  0.00  0.00    +0.000 NA
ATOM      5  N   UNL     1       7.502   5.916  18.279  0.00  0.00    +0.000 N 
ATOM      6  C   UNL     1       6.387   6.516  17.753  0.00  0.00    +0.000 A 
ATOM      7  C   UNL     1       6.359   7.957  17.411  0.00  0.00    +0.000 C 
ATOM      8  N   UNL     1       5.528   3.122  18.321  0.00  0.00    +0.000 NA
ATOM      9  C   UNL     1       4.332   3.035  17.839  0.00  0.00    +0.000 C 
ATOM     10  C   UNL     1       3.485   1.821  18.022  0.00  0.00    +0.000 C 
ATOM     11  O   UNL     1       2.159   2.386  17.934  0.00  0.00    +0.000 OA
ATOM     12  C   UNL     1       2.153   3.656  17.417  0.00  0.00    +0.000 C 
ATOM     13  O   UNL     1       1.137   4.308  17.228  0.00  0.00    +0.000 OA
ATOM     14  C   UNL     1       3.554   4.046  17.045  0.00  0.00    +0.000 C 
ATOM     15  H   UNL     1       8.397   6.339  18.503  0.00  0.00    +0.000 HD
ENDROOT
BRANCH   1  20
ATOM     16  C   UNL     1       1.689   8.104  19.843  0.00  0.00    +0.000 A 
ATOM     17  C   UNL     1       2.171   8.566  18.583  0.00  0.00    +0.000 A 
ATOM     18 BR   UNL     1       1.805  10.340  17.972  0.00  0.00    +0.000 Br
ATOM     19  C   UNL     1       2.916   7.757  17.698  0.00  0.00    +0.000 A 
ATOM     20  C   UNL     1       3.227   6.449  18.050  0.00  0.00    +0.000 A 
ATOM     21  C   UNL     1       2.772   6.005  19.303  0.00  0.00    +0.000 A 
ATOM     22  C   UNL     1       2.010   6.789  20.206  0.00  0.00    +0.000 A 
BRANCH  22  23
ATOM     23  O   UNL     1       1.740   6.003  21.286  0.00  0.00    +0.000 OA
ATOM     24  C   UNL     1       1.979   4.617  21.361  0.00  0.00    +0.000 C 
ENDBRANCH  22  23
BRANCH  16  25
ATOM     25  O   UNL     1       1.002   9.055  20.560  0.00  0.00    +0.000 OA
BRANCH  25  27
ATOM     26  C   UNL     1      -0.006   9.328  22.774  0.00  0.00    +0.000 C 
ATOM     27  C   UNL     1       1.260   9.174  21.950  0.00  0.00    +0.000 C 
ENDBRANCH  25  27
ENDBRANCH  16  25
ENDBRANCH   1  20
TORSDOF 4
ENDMDL
MODEL 2
REMARK VINA RESULT:      -7.0      5.375      8.594
REMARK  Name = 
REMARK  7 active torsions:
REMARK  status: ('A' for Active; 'I' for Inactive)
REMARK    1  A    between atoms: C_1  and  C_2
REMARK    2  A    between atoms: C_2  and  O_3
REMARK    3  A    between atoms: O_3  and  C_4
REMARK    4  A    between atoms: C_8  and  C_9
REMARK    5  A    between atoms: C_14  and  C_15
REMARK    6  A    between atoms: C_24  and  O_25
REMARK    7  A    between atoms: O_25  and  C_26
REMARK                            x       y       z     vdW  Elec       q    Type
REMARK                         _______ _______ _______ _____ _____    ______ ____
ROOT
ATOM      1  C   UNL     1      -0.237  11.917  18.995  0.00  0.00    +0.000 C 
ATOM      2  C   UNL     1      -1.690  11.665  18.804  0.00  0.00    +0.000 A 
ATOM      3  C   UNL     1      -2.689  12.325  19.550  0.00  0.00    +0.000 A 
ATOM      4  N   UNL     1      -3.922  11.983  19.210  0.00  0.00    +0.000 NA
ATOM      5  N   UNL     1      -3.730  11.090  18.227  0.00  0.00    +0.000 N 
ATOM      6  C   UNL     1      -2.411  10.874  17.921  0.00  0.00    +0.000 A 
ATOM      7  C   UNL     1      -1.997   9.932  16.856  0.00  0.00    +0.000 C 
ATOM      8  N   UNL     1      -2.454  13.193  20.604  0.00  0.00    +0.000 NA
ATOM      9  C   UNL     1      -1.206  13.495  20.754  0.00  0.00    +0.000 C 
ATOM     10  C   UNL     1      -0.716  14.310  21.903  0.00  0.00    +0.000 C 
ATOM     11  O   UNL     1       0.648  13.848  22.016  0.00  0.00    +0.000 OA
ATOM     12  C   UNL     1       1.066  13.148  20.914  0.00  0.00    +0.000 C 
ATOM     13  O   UNL     1       2.194  12.692  20.785  0.00  0.00    +0.000 OA
ATOM     14  C   UNL     1      -0.032  13.130  19.891  0.00  0.00    +0.000 C 
ATOM     15  H   UNL     1      -4.550  10.662  17.810  0.00  0.00    +0.000 HD
ENDROOT
BRANCH   1  20
ATOM     16  C   UNL     1       1.503   8.092  20.285  0.00  0.00    +0.000 A 
ATOM     17  C   UNL     1       1.816   8.656  19.014  0.00  0.00    +0.000 A 
ATOM     18 BR   UNL     1       3.028   7.791  17.818  0.00  0.00    +0.000 Br
ATOM     19  C   UNL     1       1.287   9.885  18.565  0.00  0.00    +0.000 A 
ATOM     20  C   UNL     1       0.401  10.594  19.367  0.00  0.00    +0.000 A 
ATOM     21  C   UNL     1       0.075  10.023  20.608  0.00  0.00    +0.000 A 
ATOM     22  C   UNL     1       0.601   8.799  21.093  0.00  0.00    +0.000 A 
BRANCH  22  23
ATOM     23  O   UNL     1       0.072   8.601  22.333  0.00  0.00    +0.000 OA
ATOM     24  C   UNL     1      -0.241   9.620  23.254  0.00  0.00    +0.000 C 
ENDBRANCH  22  23
BRANCH  16  25
ATOM     25  O   UNL     1       2.107   6.880  20.522  0.00  0.00    +0.000 OA
BRANCH  25  27
ATOM     26  C   UNL     1       2.081   4.467  20.928  0.00  0.00    +0.000 C 
ATOM     27  C   UNL     1       1.302   5.713  20.549  0.00  0.00    +0.000 C 
ENDBRANCH  25  27
ENDBRANCH  16  25
ENDBRANCH   1  20
TORSDOF 4
ENDMDL
MODEL 3
REMARK VINA RESULT:      -6.9      7.022     11.218
REMARK  Name = 
REMARK  7 active torsions:
REMARK  status: ('A' for Active; 'I' for Inactive)
REMARK    1  A    between atoms: C_1  and  C_2
REMARK    2  A    between atoms: C_2  and  O_3
REMARK    3  A    between atoms: O_3  and  C_4
REMARK    4  A    between atoms: C_8  and  C_9
REMARK    5  A    between atoms: C_14  and  C_15
REMARK    6  A    between atoms: C_24  and  O_25
REMARK    7  A    between atoms: O_25  and  C_26
REMARK                            x       y       z     vdW  Elec       q    Type
REMARK                         _______ _______ _______ _____ _____    ______ ____
ROOT
ATOM      1  C   UNL     1      -2.613  14.001  21.847  0.00  0.00    +0.000 C 
ATOM      2  C   UNL     1      -3.927  13.317  21.969  0.00  0.00    +0.000 A 
ATOM      3  C   UNL     1      -4.674  13.297  23.165  0.00  0.00    +0.000 A 
ATOM      4  N   UNL     1      -5.830  12.661  23.061  0.00  0.00    +0.000 NA
ATOM      5  N   UNL     1      -5.844  12.262  21.780  0.00  0.00    +0.000 N 
ATOM      6  C   UNL     1      -4.739  12.647  21.066  0.00  0.00    +0.000 A 
ATOM      7  C   UNL     1      -4.575  12.310  19.632  0.00  0.00    +0.000 C 
ATOM      8  N   UNL     1      -4.247  13.805  24.381  0.00  0.00    +0.000 NA
ATOM      9  C   UNL     1      -3.142  14.472  24.301  0.00  0.00    +0.000 C 
ATOM     10  C   UNL     1      -2.438  14.996  25.507  0.00  0.00    +0.000 C 
ATOM     11  O   UNL     1      -1.073  15.047  25.036  0.00  0.00    +0.000 OA
ATOM     12  C   UNL     1      -0.974  14.937  23.674  0.00  0.00    +0.000 C 
ATOM     13  O   UNL     1       0.084  14.985  23.062  0.00  0.00    +0.000 OA
ATOM     14  C   UNL     1      -2.351  14.852  23.082  0.00  0.00    +0.000 C 
ATOM     15  H   UNL     1      -6.643  11.725  21.460  0.00  0.00    +0.000 HD
ENDROOT
BRANCH   1  20
ATOM     16  C   UNL     1       0.365  11.089  20.441  0.00  0.00    +0.000 A 
ATOM     17  C   UNL     1      -0.339  10.895  21.665  0.00  0.00    +0.000 A 
ATOM     18 BR   UNL     1      -0.042   9.346  22.745  0.00  0.00    +0.000 Br
ATOM     19  C   UNL     1      -1.309  11.800  22.149  0.00  0.00    +0.000 A 
ATOM     20  C   UNL     1      -1.600  12.954  21.431  0.00  0.00    +0.000 A 
ATOM     21  C   UNL     1      -0.887  13.153  20.237  0.00  0.00    +0.000 A 
ATOM     22  C   UNL     1       0.081  12.257  19.719  0.00  0.00    +0.000 A 
BRANCH  22  23
ATOM     23  O   UNL     1       0.522  12.783  18.542  0.00  0.00    +0.000 OA
ATOM     24  C   UNL     1       1.832  13.242  18.299  0.00  0.00    +0.000 C 
ENDBRANCH  22  23
BRANCH  16  25
ATOM     25  O   UNL     1       1.280  10.101  20.161  0.00  0.00    +0.000 OA
BRANCH  25  27
ATOM     26  C   UNL     1       1.974   9.524  17.887  0.00  0.00    +0.000 C 
ATOM     27  C   UNL     1       1.042   9.249  19.052  0.00  0.00    +0.000 C 
ENDBRANCH  25  27
ENDBRANCH  16  25
ENDBRANCH   1  20
TORSDOF 4
ENDMDL
MODEL 4
REMARK VINA RESULT:      -6.6      7.149     11.343
REMARK  Name = 
REMARK  7 active torsions:
REMARK  status: ('A' for Active; 'I' for Inactive)
REMARK    1  A    between atoms: C_1  and  C_2
REMARK    2  A    between atoms: C_2  and  O_3
REMARK    3  A    between atoms: O_3  and  C_4
REMARK    4  A    between atoms: C_8  and  C_9
REMARK    5  A    between atoms: C_14  and  C_15
REMARK    6  A    between atoms: C_24  and  O_25
REMARK    7  A    between atoms: O_25  and  C_26
REMARK                            x       y       z     vdW  Elec       q    Type
REMARK                         _______ _______ _______ _____ _____    ______ ____
ROOT
ATOM      1  C   UNL     1      -3.016  13.888  21.952  0.00  0.00    +0.000 C 
ATOM      2  C   UNL     1      -4.266  13.268  22.463  0.00  0.00    +0.000 A 
ATOM      3  C   UNL     1      -4.670  13.354  23.812  0.00  0.00    +0.000 A 
ATOM      4  N   UNL     1      -5.827  12.762  24.061  0.00  0.00    +0.000 NA
ATOM      5  N   UNL     1      -6.189  12.283  22.860  0.00  0.00    +0.000 N 
ATOM      6  C   UNL     1      -5.304  12.576  21.856  0.00  0.00    +0.000 A 
ATOM      7  C   UNL     1      -5.533  12.143  20.458  0.00  0.00    +0.000 C 
ATOM      8  N   UNL     1      -3.925  13.920  24.834  0.00  0.00    +0.000 NA
ATOM      9  C   UNL     1      -2.866  14.534  24.419  0.00  0.00    +0.000 C 
ATOM     10  C   UNL     1      -1.855  15.103  25.357  0.00  0.00    +0.000 C 
ATOM     11  O   UNL     1      -0.663  15.068  24.542  0.00  0.00    +0.000 OA
ATOM     12  C   UNL     1      -0.930  14.868  23.213  0.00  0.00    +0.000 C 
ATOM     13  O   UNL     1      -0.071  14.834  22.343  0.00  0.00    +0.000 OA
ATOM     14  C   UNL     1      -2.416  14.803  23.010  0.00  0.00    +0.000 C 
ATOM     15  H   UNL     1      -7.057  11.760  22.801  0.00  0.00    +0.000 HD
ENDROOT
BRANCH   1  20
ATOM     16  C   UNL     1      -0.629  10.742  20.020  0.00  0.00    +0.000 A 
ATOM     17  C   UNL     1      -0.756  10.809  21.438  0.00  0.00    +0.000 A 
ATOM     18 BR   UNL     1       0.085   9.519  22.570  0.00  0.00    +0.000 Br
ATOM     19  C   UNL     1      -1.519  11.796  22.099  0.00  0.00    +0.000 A 
ATOM     20  C   UNL     1      -2.174  12.775  21.361  0.00  0.00    +0.000 A 
ATOM     21  C   UNL     1      -2.027  12.720  19.965  0.00  0.00    +0.000 A 
ATOM     22  C   UNL     1      -1.280  11.734  19.273  0.00  0.00    +0.000 A 
BRANCH  22  23
ATOM     23  O   UNL     1      -1.402  12.002  17.942  0.00  0.00    +0.000 OA
ATOM     24  C   UNL     1      -2.248  11.315  17.051  0.00  0.00    +0.000 C 
ENDBRANCH  22  23
BRANCH  16  25
ATOM     25  O   UNL     1       0.174   9.716  19.579  0.00  0.00    +0.000 OA
BRANCH  25  27
ATOM     26  C   UNL     1       1.687   8.945  17.818  0.00  0.00    +0.000 C 
ATOM     27  C   UNL     1       1.321  10.035  18.808  0.00  0.00    +0.000 C 
ENDBRANCH  25  27
ENDBRANCH  16  25
ENDBRANCH   1  20
TORSDOF 4
ENDMDL
MODEL 5
REMARK VINA RESULT:      -6.5      6.925     11.071
REMARK  Name = 
REMARK  7 active torsions:
REMARK  status: ('A' for Active; 'I' for Inactive)
REMARK    1  A    between atoms: C_1  and  C_2
REMARK    2  A    between atoms: C_2  and  O_3
REMARK    3  A    between atoms: O_3  and  C_4
REMARK    4  A    between atoms: C_8  and  C_9
REMARK    5  A    between atoms: C_14  and  C_15
REMARK    6  A    between atoms: C_24  and  O_25
REMARK    7  A    between atoms: O_25  and  C_26
REMARK                            x       y       z     vdW  Elec       q    Type
REMARK                         _______ _______ _______ _____ _____    ______ ____
ROOT
ATOM      1  C   UNL     1      -2.658  14.203  21.959  0.00  0.00    +0.000 C 
ATOM      2  C   UNL     1      -3.913  13.415  22.077  0.00  0.00    +0.000 A 
ATOM      3  C   UNL     1      -4.603  13.247  23.297  0.00  0.00    +0.000 A 
ATOM      4  N   UNL     1      -5.714  12.537  23.188  0.00  0.00    +0.000 NA
ATOM      5  N   UNL     1      -5.757  12.237  21.880  0.00  0.00    +0.000 N 
ATOM      6  C   UNL     1      -4.716  12.757  21.156  0.00  0.00    +0.000 A 
ATOM      7  C   UNL     1      -4.593  12.545  19.695  0.00  0.00    +0.000 C 
ATOM      8  N   UNL     1      -4.158  13.691  24.531  0.00  0.00    +0.000 NA
ATOM      9  C   UNL     1      -3.108  14.442  24.461  0.00  0.00    +0.000 C 
ATOM     10  C   UNL     1      -2.389  14.923  25.677  0.00  0.00    +0.000 C 
ATOM     11  O   UNL     1      -1.054  15.112  25.158  0.00  0.00    +0.000 OA
ATOM     12  C   UNL     1      -1.009  15.114  23.788  0.00  0.00    +0.000 C 
ATOM     13  O   UNL     1       0.014  15.289  23.142  0.00  0.00    +0.000 OA
ATOM     14  C   UNL     1      -2.402  14.973  23.246  0.00  0.00    +0.000 C 
ATOM     15  H   UNL     1      -6.530  11.668  21.550  0.00  0.00    +0.000 HD
ENDROOT
BRANCH   1  20
ATOM     16  C   UNL     1       0.363  11.332  20.560  0.00  0.00    +0.000 A 
ATOM     17  C   UNL     1       0.240  12.623  19.969  0.00  0.00    +0.000 A 
ATOM     18 BR   UNL     1       1.398  13.180  18.555  0.00  0.00    +0.000 Br
ATOM     19  C   UNL     1      -0.710  13.578  20.393  0.00  0.00    +0.000 A 
ATOM     20  C   UNL     1      -1.594  13.268  21.420  0.00  0.00    +0.000 A 
ATOM     21  C   UNL     1      -1.485  11.986  21.984  0.00  0.00    +0.000 A 
ATOM     22  C   UNL     1      -0.534  11.012  21.590  0.00  0.00    +0.000 A 
BRANCH  22  23
ATOM     23  O   UNL     1      -0.727   9.921  22.384  0.00  0.00    +0.000 OA
ATOM     24  C   UNL     1       0.184   9.450  23.349  0.00  0.00    +0.000 C 
ENDBRANCH  22  23
BRANCH  16  25
ATOM     25  O   UNL     1       1.337  10.547  19.989  0.00  0.00    +0.000 OA
BRANCH  25  27
ATOM     26  C   UNL     1       1.571   9.342  17.872  0.00  0.00    +0.000 C 
ATOM     27  C   UNL     1       0.940   9.402  19.251  0.00  0.00    +0.000 C 
ENDBRANCH  25  27
ENDBRANCH  16  25
ENDBRANCH   1  20
TORSDOF 4
ENDMDL
MODEL 6
REMARK VINA RESULT:      -6.4      8.032     10.546
REMARK  Name = 
REMARK  7 active torsions:
REMARK  status: ('A' for Active; 'I' for Inactive)
REMARK    1  A    between atoms: C_1  and  C_2
REMARK    2  A    between atoms: C_2  and  O_3
REMARK    3  A    between atoms: O_3  and  C_4
REMARK    4  A    between atoms: C_8  and  C_9
REMARK    5  A    between atoms: C_14  and  C_15
REMARK    6  A    between atoms: C_24  and  O_25
REMARK    7  A    between atoms: O_25  and  C_26
REMARK                            x       y       z     vdW  Elec       q    Type
REMARK                         _______ _______ _______ _____ _____    ______ ____
ROOT
ATOM      1  C   UNL     1      -1.071  13.539  21.371  0.00  0.00    +0.000 C 
ATOM      2  C   UNL     1      -1.590  14.838  20.868  0.00  0.00    +0.000 A 
ATOM      3  C   UNL     1      -2.674  15.516  21.465  0.00  0.00    +0.000 A 
ATOM      4  N   UNL     1      -2.965  16.670  20.887  0.00  0.00    +0.000 NA
ATOM      5  N   UNL     1      -2.058  16.754  19.900  0.00  0.00    +0.000 N 
ATOM      6  C   UNL     1      -1.189  15.695  19.853  0.00  0.00    +0.000 A 
ATOM      7  C   UNL     1      -0.110  15.610  18.841  0.00  0.00    +0.000 C 
ATOM      8  N   UNL     1      -3.446  15.024  22.504  0.00  0.00    +0.000 NA
ATOM      9  C   UNL     1      -2.984  13.931  23.018  0.00  0.00    +0.000 C 
ATOM     10  C   UNL     1      -3.725  13.164  24.060  0.00  0.00    +0.000 C 
ATOM     11  O   UNL     1      -3.220  11.829  23.840  0.00  0.00    +0.000 OA
ATOM     12  C   UNL     1      -2.093  11.807  23.060  0.00  0.00    +0.000 C 
ATOM     13  O   UNL     1      -1.483  10.786  22.774  0.00  0.00    +0.000 OA
ATOM     14  C   UNL     1      -1.697  13.214  22.720  0.00  0.00    +0.000 C 
ATOM     15  H   UNL     1      -2.094  17.565  19.292  0.00  0.00    +0.000 HD
ENDROOT
BRANCH   1  20
ATOM     16  C   UNL     1      -1.619  10.717  18.045  0.00  0.00    +0.000 A 
ATOM     17  C   UNL     1      -0.381  10.805  18.745  0.00  0.00    +0.000 A 
ATOM     18 BR   UNL     1       1.096   9.681  18.289  0.00  0.00    +0.000 Br
ATOM     19  C   UNL     1      -0.165  11.690  19.823  0.00  0.00    +0.000 A 
ATOM     20  C   UNL     1      -1.182  12.543  20.235  0.00  0.00    +0.000 A 
ATOM     21  C   UNL     1      -2.393  12.472  19.526  0.00  0.00    +0.000 A 
ATOM     22  C   UNL     1      -2.644  11.585  18.450  0.00  0.00    +0.000 A 
BRANCH  22  23
ATOM     23  O   UNL     1      -3.930  11.796  18.050  0.00  0.00    +0.000 OA
ATOM     24  C   UNL     1      -5.076  11.463  18.798  0.00  0.00    +0.000 C 
ENDBRANCH  22  23
BRANCH  16  25
ATOM     25  O   UNL     1      -1.615   9.807  17.015  0.00  0.00    +0.000 OA
BRANCH  25  27
ATOM     26  C   UNL     1      -2.880  10.247  14.966  0.00  0.00    +0.000 C 
ATOM     27  C   UNL     1      -2.827   9.562  16.319  0.00  0.00    +0.000 C 
ENDBRANCH  25  27
ENDBRANCH  16  25
ENDBRANCH   1  20
TORSDOF 4
ENDMDL
MODEL 7
REMARK VINA RESULT:      -6.3      1.703      2.565
REMARK  Name = 
REMARK  7 active torsions:
REMARK  status: ('A' for Active; 'I' for Inactive)
REMARK    1  A    between atoms: C_1  and  C_2
REMARK    2  A    between atoms: C_2  and  O_3
REMARK    3  A    between atoms: O_3  and  C_4
REMARK    4  A    between atoms: C_8  and  C_9
REMARK    5  A    between atoms: C_14  and  C_15
REMARK    6  A    between atoms: C_24  and  O_25
REMARK    7  A    between atoms: O_25  and  C_26
REMARK                            x       y       z     vdW  Elec       q    Type
REMARK                         _______ _______ _______ _____ _____    ______ ____
ROOT
ATOM      1  C   UNL     1       3.957   5.622  17.366  0.00  0.00    +0.000 C 
ATOM      2  C   UNL     1       5.332   5.646  17.931  0.00  0.00    +0.000 A 
ATOM      3  C   UNL     1       5.935   4.522  18.532  0.00  0.00    +0.000 A 
ATOM      4  N   UNL     1       7.172   4.738  18.948  0.00  0.00    +0.000 NA
ATOM      5  N   UNL     1       7.386   6.020  18.612  0.00  0.00    +0.000 N 
ATOM      6  C   UNL     1       6.326   6.613  17.977  0.00  0.00    +0.000 A 
ATOM      7  C   UNL     1       6.373   8.021  17.519  0.00  0.00    +0.000 C 
ATOM      8  N   UNL     1       5.306   3.309  18.766  0.00  0.00    +0.000 NA
ATOM      9  C   UNL     1       4.135   3.223  18.224  0.00  0.00    +0.000 C 
ATOM     10  C   UNL     1       3.233   2.058  18.456  0.00  0.00    +0.000 C 
ATOM     11  O   UNL     1       1.936   2.660  18.248  0.00  0.00    +0.000 OA
ATOM     12  C   UNL     1       2.008   3.882  17.631  0.00  0.00    +0.000 C 
ATOM     13  O   UNL     1       1.029   4.551  17.332  0.00  0.00    +0.000 OA
ATOM     14  C   UNL     1       3.441   4.191  17.309  0.00  0.00    +0.000 C 
ATOM     15  H   UNL     1       8.284   6.429  18.852  0.00  0.00    +0.000 HD
ENDROOT
BRANCH   1  20
ATOM     16  C   UNL     1       1.681   8.841  19.311  0.00  0.00    +0.000 A 
ATOM     17  C   UNL     1       1.801   7.553  19.910  0.00  0.00    +0.000 A 
ATOM     18 BR   UNL     1       0.999   7.168  21.601  0.00  0.00    +0.000 Br
ATOM     19  C   UNL     1       2.529   6.495  19.324  0.00  0.00    +0.000 A 
ATOM     20  C   UNL     1       3.154   6.679  18.097  0.00  0.00    +0.000 A 
ATOM     21  C   UNL     1       3.013   7.942  17.498  0.00  0.00    +0.000 A 
ATOM     22  C   UNL     1       2.301   9.027  18.068  0.00  0.00    +0.000 A 
BRANCH  22  23
ATOM     23  O   UNL     1       2.418  10.077  17.206  0.00  0.00    +0.000 OA
ATOM     24  C   UNL     1       2.590  11.422  17.587  0.00  0.00    +0.000 C 
ENDBRANCH  22  23
BRANCH  16  25
ATOM     25  O   UNL     1       0.913   9.724  20.034  0.00  0.00    +0.000 OA
BRANCH  25  27
ATOM     26  C   UNL     1      -0.600  11.607  19.640  0.00  0.00    +0.000 C 
ATOM     27  C   UNL     1      -0.345  10.116  19.510  0.00  0.00    +0.000 C 
ENDBRANCH  25  27
ENDBRANCH  16  25
ENDBRANCH   1  20
TORSDOF 4
ENDMDL
MODEL 8
REMARK VINA RESULT:      -6.3      9.799     12.043
REMARK  Name = 
REMARK  7 active torsions:
REMARK  status: ('A' for Active; 'I' for Inactive)
REMARK    1  A    between atoms: C_1  and  C_2
REMARK    2  A    between atoms: C_2  and  O_3
REMARK    3  A    between atoms: O_3  and  C_4
REMARK    4  A    between atoms: C_8  and  C_9
REMARK    5  A    between atoms: C_14  and  C_15
REMARK    6  A    between atoms: C_24  and  O_25
REMARK    7  A    between atoms: O_25  and  C_26
REMARK                            x       y       z     vdW  Elec       q    Type
REMARK                         _______ _______ _______ _____ _____    ______ ____
ROOT
ATOM      1  C   UNL     1      11.672  15.063  19.822  0.00  0.00    +0.000 C 
ATOM      2  C   UNL     1      11.897  14.053  18.755  0.00  0.00    +0.000 A 
ATOM      3  C   UNL     1      12.127  14.400  17.406  0.00  0.00    +0.000 A 
ATOM      4  N   UNL     1      12.333  13.359  16.616  0.00  0.00    +0.000 NA
ATOM      5  N   UNL     1      12.242  12.316  17.456  0.00  0.00    +0.000 N 
ATOM      6  C   UNL     1      12.005  12.670  18.759  0.00  0.00    +0.000 A 
ATOM      7  C   UNL     1      11.883  11.662  19.837  0.00  0.00    +0.000 C 
ATOM      8  N   UNL     1      12.068  15.685  16.892  0.00  0.00    +0.000 NA
ATOM      9  C   UNL     1      11.947  16.598  17.799  0.00  0.00    +0.000 C 
ATOM     10  C   UNL     1      11.737  18.035  17.461  0.00  0.00    +0.000 C 
ATOM     11  O   UNL     1      11.043  18.504  18.638  0.00  0.00    +0.000 OA
ATOM     12  C   UNL     1      11.125  17.628  19.690  0.00  0.00    +0.000 C 
ATOM     13  O   UNL     1      10.635  17.839  20.790  0.00  0.00    +0.000 OA
ATOM     14  C   UNL     1      11.978  16.458  19.295  0.00  0.00    +0.000 C 
ATOM     15  H   UNL     1      12.350  11.384  17.068  0.00  0.00    +0.000 HD
ENDROOT
BRANCH   1  20
ATOM     16  C   UNL     1       7.640  14.246  21.373  0.00  0.00    +0.000 A 
ATOM     17  C   UNL     1       8.772  14.287  22.239  0.00  0.00    +0.000 A 
ATOM     18 BR   UNL     1       8.590  14.014  24.121  0.00  0.00    +0.000 Br
ATOM     19  C   UNL     1      10.081  14.554  21.784  0.00  0.00    +0.000 A 
ATOM     20  C   UNL     1      10.315  14.773  20.432  0.00  0.00    +0.000 A 
ATOM     21  C   UNL     1       9.201  14.708  19.578  0.00  0.00    +0.000 A 
ATOM     22  C   UNL     1       7.874  14.456  20.006  0.00  0.00    +0.000 A 
BRANCH  22  23
ATOM     23  O   UNL     1       7.082  14.500  18.898  0.00  0.00    +0.000 OA
ATOM     24  C   UNL     1       7.316  15.304  17.766  0.00  0.00    +0.000 C 
ENDBRANCH  22  23
BRANCH  16  25
ATOM     25  O   UNL     1       6.459  13.951  22.012  0.00  0.00    +0.000 OA
BRANCH  25  27
ATOM     26  C   UNL     1       5.642  16.209  22.482  0.00  0.00    +0.000 C 
ATOM     27  C   UNL     1       5.368  14.847  21.872  0.00  0.00    +0.000 C 
ENDBRANCH  25  27
ENDBRANCH  16  25
ENDBRANCH   1  20
TORSDOF 4
ENDMDL
MODEL 9
REMARK VINA RESULT:      -6.2      7.077     10.749
REMARK  Name = 
REMARK  7 active torsions:
REMARK  status: ('A' for Active; 'I' for Inactive)
REMARK    1  A    between atoms: C_1  and  C_2
REMARK    2  A    between atoms: C_2  and  O_3
REMARK    3  A    between atoms: O_3  and  C_4
REMARK    4  A    between atoms: C_8  and  C_9
REMARK    5  A    between atoms: C_14  and  C_15
REMARK    6  A    between atoms: C_24  and  O_25
REMARK    7  A    between atoms: O_25  and  C_26
REMARK                            x       y       z     vdW  Elec       q    Type
REMARK                         _______ _______ _______ _____ _____    ______ ____
ROOT
ATOM      1  C   UNL     1      -2.000  14.103  22.051  0.00  0.00    +0.000 C 
ATOM      2  C   UNL     1      -2.278  15.253  21.151  0.00  0.00    +0.000 A 
ATOM      3  C   UNL     1      -3.551  15.852  21.041  0.00  0.00    +0.000 A 
ATOM      4  N   UNL     1      -3.587  16.880  20.209  0.00  0.00    +0.000 NA
ATOM      5  N   UNL     1      -2.321  16.960  19.769  0.00  0.00    +0.000 N 
ATOM      6  C   UNL     1      -1.482  16.024  20.316  0.00  0.00    +0.000 A 
ATOM      7  C   UNL     1      -0.045  15.957  19.964  0.00  0.00    +0.000 C 
ATOM      8  N   UNL     1      -4.704  15.394  21.659  0.00  0.00    +0.000 NA
ATOM      9  C   UNL     1      -4.490  14.442  22.507  0.00  0.00    +0.000 C 
ATOM     10  C   UNL     1      -5.601  13.717  23.189  0.00  0.00    +0.000 C 
ATOM     11  O   UNL     1      -4.980  12.442  23.463  0.00  0.00    +0.000 OA
ATOM     12  C   UNL     1      -3.617  12.471  23.324  0.00  0.00    +0.000 C 
ATOM     13  O   UNL     1      -2.891  11.511  23.537  0.00  0.00    +0.000 OA
ATOM     14  C   UNL     1      -3.184  13.866  22.977  0.00  0.00    +0.000 C 
ATOM     15  H   UNL     1      -2.102  17.679  19.088  0.00  0.00    +0.000 HD
ENDROOT
BRANCH   1  20
ATOM     16  C   UNL     1      -0.351  10.774  19.701  0.00  0.00    +0.000 A 
ATOM     17  C   UNL     1      -1.451  11.544  19.222  0.00  0.00    +0.000 A 
ATOM     18 BR   UNL     1      -2.248  11.184  17.523  0.00  0.00    +0.000 Br
ATOM     19  C   UNL     1      -2.005  12.626  19.940  0.00  0.00    +0.000 A 
ATOM     20  C   UNL     1      -1.489  12.970  21.184  0.00  0.00    +0.000 A 
ATOM     21  C   UNL     1      -0.422  12.193  21.663  0.00  0.00    +0.000 A 
ATOM     22  C   UNL     1       0.165  11.111  20.960  0.00  0.00    +0.000 A 
BRANCH  22  23
ATOM     23  O   UNL     1       1.181  10.635  21.735  0.00  0.00    +0.000 OA
ATOM     24  C   UNL     1       1.272   9.322  22.234  0.00  0.00    +0.000 C 
ENDBRANCH  22  23
BRANCH  16  25
ATOM     25  O   UNL     1       0.024   9.753  18.859  0.00  0.00    +0.000 OA
BRANCH  25  27
ATOM     26  C   UNL     1       1.983   8.488  18.117  0.00  0.00    +0.000 C 
ATOM     27  C   UNL     1       1.285   9.832  18.215  0.00  0.00    +0.000 C 
ENDBRANCH  25  27
ENDBRANCH  16  25
ENDBRANCH   1  20
TORSDOF 4
ENDMDL
