MODEL 1
REMARK VINA RESULT:      -6.6      0.000      0.000
REMARK  Name = 
REMARK  4 active torsions:
REMARK  status: ('A' for Active; 'I' for Inactive)
REMARK    1  A    between atoms: S_2  and  N_4
REMARK    2  A    between atoms: S_2  and  C_13
REMARK    3  A    between atoms: N_4  and  C_5
REMARK    4  A    between atoms: C_5  and  C_6
REMARK                            x       y       z     vdW  Elec       q    Type
REMARK                         _______ _______ _______ _____ _____    ______ ____
ROOT
ATOM      1  N   UNL     1       5.563   3.441  19.371  0.00  0.00    +0.000 NA
ATOM      2  H   UNL     1       5.515   3.386  20.387  0.00  0.00    +0.000 HD
ENDROOT
BRANCH   1   4
ATOM      3  O   UNL     1       4.797   5.851  19.170  0.00  0.00    +0.000 OA
ATOM      4  S   UNL     1       5.964   5.022  18.936  0.00  0.00    +0.000 S 
ATOM      5  O   UNL     1       7.241   5.314  19.532  0.00  0.00    +0.000 OA
BRANCH   4   6
ATOM      6  C   UNL     1       6.211   5.043  17.180  0.00  0.00    +0.000 A 
ATOM      7  C   UNL     1       7.152   4.451  16.360  0.00  0.00    +0.000 A 
ATOM      8  C   UNL     1       6.945   4.763  14.985  0.00  0.00    +0.000 A 
ATOM      9  C   UNL     1       5.855   5.584  14.801  0.00  0.00    +0.000 A 
ATOM     10  S   UNL     1       5.089   5.973  16.280  0.00  0.00    +0.000 S 
ENDBRANCH   4   6
ENDBRANCH   1   4
BRANCH   1  11
ATOM     11  C   UNL     1       4.349   2.934  18.723  0.00  0.00    +0.000 C 
BRANCH  11  12
ATOM     12  C   UNL     1       3.166   2.976  19.656  0.00  0.00    +0.000 A 
ATOM     13  C   UNL     1       3.313   2.460  20.955  0.00  0.00    +0.000 A 
ATOM     14  C   UNL     1       2.245   2.461  21.853  0.00  0.00    +0.000 A 
ATOM     15  C   UNL     1       1.014   2.986  21.472  0.00  0.00    +0.000 A 
ATOM     16  C   UNL     1       0.855   3.523  20.196  0.00  0.00    +0.000 A 
ATOM     17  C   UNL     1       1.925   3.527  19.294  0.00  0.00    +0.000 A 
ATOM     18 BR   UNL     1       1.622   4.317  17.593  0.00  0.00    +0.000 Br
ENDBRANCH  11  12
ENDBRANCH   1  11
TORSDOF 4
ENDMDL
MODEL 2
REMARK VINA RESULT:      -6.6      2.392      2.894
REMARK  Name = 
REMARK  4 active torsions:
REMARK  status: ('A' for Active; 'I' for Inactive)
REMARK    1  A    between atoms: S_2  and  N_4
REMARK    2  A    between atoms: S_2  and  C_13
REMARK    3  A    between atoms: N_4  and  C_5
REMARK    4  A    between atoms: C_5  and  C_6
REMARK                            x       y       z     vdW  Elec       q    Type
REMARK                         _______ _______ _______ _____ _____    ______ ____
ROOT
ATOM      1  N   UNL     1       5.446   4.165  17.051  0.00  0.00    +0.000 NA
ATOM      2  H   UNL     1       5.823   3.868  17.950  0.00  0.00    +0.000 HD
ENDROOT
BRANCH   1   4
ATOM      3  O   UNL     1       6.384   6.352  16.170  0.00  0.00    +0.000 OA
ATOM      4  S   UNL     1       6.673   4.930  16.180  0.00  0.00    +0.000 S 
ATOM      5  O   UNL     1       7.925   4.408  16.664  0.00  0.00    +0.000 OA
BRANCH   4   6
ATOM      6  C   UNL     1       6.530   4.408  14.491  0.00  0.00    +0.000 A 
ATOM      7  C   UNL     1       5.627   3.591  13.837  0.00  0.00    +0.000 A 
ATOM      8  C   UNL     1       5.923   3.461  12.449  0.00  0.00    +0.000 A 
ATOM      9  C   UNL     1       7.041   4.180  12.091  0.00  0.00    +0.000 A 
ATOM     10  S   UNL     1       7.727   5.006  13.422  0.00  0.00    +0.000 S 
ENDBRANCH   4   6
ENDBRANCH   1   4
BRANCH   1  11
ATOM     11  C   UNL     1       4.226   4.966  17.191  0.00  0.00    +0.000 C 
BRANCH  11  12
ATOM     12  C   UNL     1       3.140   4.200  17.902  0.00  0.00    +0.000 A 
ATOM     13  C   UNL     1       2.950   2.845  17.581  0.00  0.00    +0.000 A 
ATOM     14  C   UNL     1       1.949   2.094  18.198  0.00  0.00    +0.000 A 
ATOM     15  C   UNL     1       1.126   2.682  19.154  0.00  0.00    +0.000 A 
ATOM     16  C   UNL     1       1.313   4.018  19.503  0.00  0.00    +0.000 A 
ATOM     17  C   UNL     1       2.319   4.772  18.888  0.00  0.00    +0.000 A 
ATOM     18 BR   UNL     1       2.522   6.574  19.459  0.00  0.00    +0.000 Br
ENDBRANCH  11  12
ENDBRANCH   1  11
TORSDOF 4
ENDMDL
MODEL 3
REMARK VINA RESULT:      -6.5      1.657      1.956
REMARK  Name = 
REMARK  4 active torsions:
REMARK  status: ('A' for Active; 'I' for Inactive)
REMARK    1  A    between atoms: S_2  and  N_4
REMARK    2  A    between atoms: S_2  and  C_13
REMARK    3  A    between atoms: N_4  and  C_5
REMARK    4  A    between atoms: C_5  and  C_6
REMARK                            x       y       z     vdW  Elec       q    Type
REMARK                         _______ _______ _______ _____ _____    ______ ____
ROOT
ATOM      1  N   UNL     1       6.187   3.846  18.654  0.00  0.00    +0.000 NA
ATOM      2  H   UNL     1       6.706   3.170  19.212  0.00  0.00    +0.000 HD
ENDROOT
BRANCH   1   4
ATOM      3  O   UNL     1       7.090   6.148  18.084  0.00  0.00    +0.000 OA
ATOM      4  S   UNL     1       7.286   4.751  17.746  0.00  0.00    +0.000 S 
ATOM      5  O   UNL     1       8.568   4.108  17.869  0.00  0.00    +0.000 OA
BRANCH   4   6
ATOM      6  C   UNL     1       6.812   4.608  16.043  0.00  0.00    +0.000 A 
ATOM      7  C   UNL     1       7.430   4.983  14.865  0.00  0.00    +0.000 A 
ATOM      8  C   UNL     1       6.649   4.658  13.718  0.00  0.00    +0.000 A 
ATOM      9  C   UNL     1       5.462   4.049  14.058  0.00  0.00    +0.000 A 
ATOM     10  S   UNL     1       5.294   3.871  15.751  0.00  0.00    +0.000 S 
ENDBRANCH   4   6
ENDBRANCH   1   4
BRANCH   1  11
ATOM     11  C   UNL     1       5.273   4.657  19.464  0.00  0.00    +0.000 C 
BRANCH  11  12
ATOM     12  C   UNL     1       3.844   4.202  19.308  0.00  0.00    +0.000 A 
ATOM     13  C   UNL     1       3.466   2.966  19.861  0.00  0.00    +0.000 A 
ATOM     14  C   UNL     1       2.160   2.492  19.732  0.00  0.00    +0.000 A 
ATOM     15  C   UNL     1       1.207   3.247  19.056  0.00  0.00    +0.000 A 
ATOM     16  C   UNL     1       1.557   4.486  18.520  0.00  0.00    +0.000 A 
ATOM     17  C   UNL     1       2.865   4.966  18.651  0.00  0.00    +0.000 A 
ATOM     18 BR   UNL     1       3.235   6.682  17.923  0.00  0.00    +0.000 Br
ENDBRANCH  11  12
ENDBRANCH   1  11
TORSDOF 4
ENDMDL
MODEL 4
REMARK VINA RESULT:      -6.5      0.908      1.036
REMARK  Name = 
REMARK  4 active torsions:
REMARK  status: ('A' for Active; 'I' for Inactive)
REMARK    1  A    between atoms: S_2  and  N_4
REMARK    2  A    between atoms: S_2  and  C_13
REMARK    3  A    between atoms: N_4  and  C_5
REMARK    4  A    between atoms: C_5  and  C_6
REMARK                            x       y       z     vdW  Elec       q    Type
REMARK                         _______ _______ _______ _____ _____    ______ ____
ROOT
ATOM      1  N   UNL     1       5.520   3.263  19.056  0.00  0.00    +0.000 NA
ATOM      2  H   UNL     1       5.539   3.305  20.074  0.00  0.00    +0.000 HD
ENDROOT
BRANCH   1   4
ATOM      3  O   UNL     1       4.896   5.706  18.771  0.00  0.00    +0.000 OA
ATOM      4  S   UNL     1       5.961   4.775  18.448  0.00  0.00    +0.000 S 
ATOM      5  O   UNL     1       7.326   5.009  18.842  0.00  0.00    +0.000 OA
BRANCH   4   6
ATOM      6  C   UNL     1       5.962   4.656  16.678  0.00  0.00    +0.000 A 
ATOM      7  C   UNL     1       4.975   4.349  15.761  0.00  0.00    +0.000 A 
ATOM      8  C   UNL     1       5.456   4.377  14.420  0.00  0.00    +0.000 A 
ATOM      9  C   UNL     1       6.793   4.702  14.358  0.00  0.00    +0.000 A 
ATOM     10  S   UNL     1       7.459   4.972  15.910  0.00  0.00    +0.000 S 
ENDBRANCH   4   6
ENDBRANCH   1   4
BRANCH   1  11
ATOM     11  C   UNL     1       4.244   2.762  18.538  0.00  0.00    +0.000 C 
BRANCH  11  12
ATOM     12  C   UNL     1       3.140   2.906  19.555  0.00  0.00    +0.000 A 
ATOM     13  C   UNL     1       3.339   2.384  20.845  0.00  0.00    +0.000 A 
ATOM     14  C   UNL     1       2.343   2.478  21.818  0.00  0.00    +0.000 A 
ATOM     15  C   UNL     1       1.135   3.102  21.523  0.00  0.00    +0.000 A 
ATOM     16  C   UNL     1       0.928   3.646  20.256  0.00  0.00    +0.000 A 
ATOM     17  C   UNL     1       1.926   3.557  19.280  0.00  0.00    +0.000 A 
ATOM     18 BR   UNL     1       1.565   4.364  17.597  0.00  0.00    +0.000 Br
ENDBRANCH  11  12
ENDBRANCH   1  11
TORSDOF 4
ENDMDL
MODEL 5
REMARK VINA RESULT:      -6.4      2.763      5.734
REMARK  Name = 
REMARK  4 active torsions:
REMARK  status: ('A' for Active; 'I' for Inactive)
REMARK    1  A    between atoms: S_2  and  N_4
REMARK    2  A    between atoms: S_2  and  C_13
REMARK    3  A    between atoms: N_4  and  C_5
REMARK    4  A    between atoms: C_5  and  C_6
REMARK                            x       y       z     vdW  Elec       q    Type
REMARK                         _______ _______ _______ _____ _____    ______ ____
ROOT
ATOM      1  N   UNL     1       3.297   3.746  16.986  0.00  0.00    +0.000 NA
ATOM      2  H   UNL     1       3.631   4.309  16.205  0.00  0.00    +0.000 HD
ENDROOT
BRANCH   1   4
ATOM      3  O   UNL     1       2.590   5.991  17.934  0.00  0.00    +0.000 OA
ATOM      4  S   UNL     1       2.118   4.624  17.815  0.00  0.00    +0.000 S 
ATOM      5  O   UNL     1       0.850   4.304  17.214  0.00  0.00    +0.000 OA
BRANCH   4   6
ATOM      6  C   UNL     1       2.061   4.002  19.474  0.00  0.00    +0.000 A 
ATOM      7  C   UNL     1       2.511   4.506  20.680  0.00  0.00    +0.000 A 
ATOM      8  C   UNL     1       2.235   3.630  21.769  0.00  0.00    +0.000 A 
ATOM      9  C   UNL     1       1.587   2.487  21.360  0.00  0.00    +0.000 A 
ATOM     10  S   UNL     1       1.314   2.473  19.672  0.00  0.00    +0.000 S 
ENDBRANCH   4   6
ENDBRANCH   1   4
BRANCH   1  11
ATOM     11  C   UNL     1       4.389   3.263  17.836  0.00  0.00    +0.000 C 
BRANCH  11  12
ATOM     12  C   UNL     1       5.508   4.269  17.926  0.00  0.00    +0.000 A 
ATOM     13  C   UNL     1       5.832   4.806  19.184  0.00  0.00    +0.000 A 
ATOM     14  C   UNL     1       6.849   5.752  19.320  0.00  0.00    +0.000 A 
ATOM     15  C   UNL     1       7.565   6.172  18.203  0.00  0.00    +0.000 A 
ATOM     16  C   UNL     1       7.273   5.634  16.950  0.00  0.00    +0.000 A 
ATOM     17  C   UNL     1       6.257   4.683  16.812  0.00  0.00    +0.000 A 
ATOM     18 BR   UNL     1       5.961   3.979  15.071  0.00  0.00    +0.000 Br
ENDBRANCH  11  12
ENDBRANCH   1  11
TORSDOF 4
ENDMDL
MODEL 6
REMARK VINA RESULT:      -6.4      2.489      3.212
REMARK  Name = 
REMARK  4 active torsions:
REMARK  status: ('A' for Active; 'I' for Inactive)
REMARK    1  A    between atoms: S_2  and  N_4
REMARK    2  A    between atoms: S_2  and  C_13
REMARK    3  A    between atoms: N_4  and  C_5
REMARK    4  A    between atoms: C_5  and  C_6
REMARK                            x       y       z     vdW  Elec       q    Type
REMARK                         _______ _______ _______ _____ _____    ______ ____
ROOT
ATOM      1  N   UNL     1       4.458   4.111  16.624  0.00  0.00    +0.000 NA
ATOM      2  H   UNL     1       4.848   3.379  17.215  0.00  0.00    +0.000 HD
ENDROOT
BRANCH   1   4
ATOM      3  O   UNL     1       6.578   3.835  15.259  0.00  0.00    +0.000 OA
ATOM      4  S   UNL     1       5.723   4.872  15.806  0.00  0.00    +0.000 S 
ATOM      5  O   UNL     1       5.139   5.895  14.980  0.00  0.00    +0.000 OA
BRANCH   4   6
ATOM      6  C   UNL     1       6.714   5.707  17.017  0.00  0.00    +0.000 A 
ATOM      7  C   UNL     1       7.132   7.018  17.141  0.00  0.00    +0.000 A 
ATOM      8  C   UNL     1       7.931   7.223  18.304  0.00  0.00    +0.000 A 
ATOM      9  C   UNL     1       8.097   6.063  19.026  0.00  0.00    +0.000 A 
ATOM     10  S   UNL     1       7.293   4.737  18.304  0.00  0.00    +0.000 S 
ENDBRANCH   4   6
ENDBRANCH   1   4
BRANCH   1  11
ATOM     11  C   UNL     1       3.592   5.030  17.368  0.00  0.00    +0.000 C 
BRANCH  11  12
ATOM     12  C   UNL     1       2.605   4.284  18.230  0.00  0.00    +0.000 A 
ATOM     13  C   UNL     1       2.315   2.945  17.918  0.00  0.00    +0.000 A 
ATOM     14  C   UNL     1       1.398   2.214  18.674  0.00  0.00    +0.000 A 
ATOM     15  C   UNL     1       0.761   2.805  19.761  0.00  0.00    +0.000 A 
ATOM     16  C   UNL     1       1.053   4.125  20.101  0.00  0.00    +0.000 A 
ATOM     17  C   UNL     1       1.975   4.859  19.346  0.00  0.00    +0.000 A 
ATOM     18 BR   UNL     1       2.336   6.638  19.912  0.00  0.00    +0.000 Br
ENDBRANCH  11  12
ENDBRANCH   1  11
TORSDOF 4
ENDMDL
MODEL 7
REMARK VINA RESULT:      -6.4      2.835      5.980
REMARK  Name = 
REMARK  4 active torsions:
REMARK  status: ('A' for Active; 'I' for Inactive)
REMARK    1  A    between atoms: S_2  and  N_4
REMARK    2  A    between atoms: S_2  and  C_13
REMARK    3  A    between atoms: N_4  and  C_5
REMARK    4  A    between atoms: C_5  and  C_6
REMARK                            x       y       z     vdW  Elec       q    Type
REMARK                         _______ _______ _______ _____ _____    ______ ____
ROOT
ATOM      1  N   UNL     1       5.456   3.236  19.261  0.00  0.00    +0.000 NA
ATOM      2  H   UNL     1       6.221   2.783  18.765  0.00  0.00    +0.000 HD
ENDROOT
BRANCH   1   4
ATOM      3  O   UNL     1       4.380   0.974  18.854  0.00  0.00    +0.000 OA
ATOM      4  S   UNL     1       4.407   2.044  19.834  0.00  0.00    +0.000 S 
ATOM      5  O   UNL     1       4.746   1.808  21.213  0.00  0.00    +0.000 OA
BRANCH   4   6
ATOM      6  C   UNL     1       2.771   2.728  19.828  0.00  0.00    +0.000 A 
ATOM      7  C   UNL     1       1.689   2.561  18.984  0.00  0.00    +0.000 A 
ATOM      8  C   UNL     1       0.563   3.335  19.387  0.00  0.00    +0.000 A 
ATOM      9  C   UNL     1       0.822   4.068  20.523  0.00  0.00    +0.000 A 
ATOM     10  S   UNL     1       2.415   3.821  21.097  0.00  0.00    +0.000 S 
ENDBRANCH   4   6
ENDBRANCH   1   4
BRANCH   1  11
ATOM     11  C   UNL     1       4.800   4.271  18.457  0.00  0.00    +0.000 C 
BRANCH  11  12
ATOM     12  C   UNL     1       5.515   4.491  17.149  0.00  0.00    +0.000 A 
ATOM     13  C   UNL     1       4.943   3.976  15.972  0.00  0.00    +0.000 A 
ATOM     14  C   UNL     1       5.572   4.139  14.738  0.00  0.00    +0.000 A 
ATOM     15  C   UNL     1       6.779   4.827  14.655  0.00  0.00    +0.000 A 
ATOM     16  C   UNL     1       7.350   5.365  15.806  0.00  0.00    +0.000 A 
ATOM     17  C   UNL     1       6.720   5.206  17.045  0.00  0.00    +0.000 A 
ATOM     18 BR   UNL     1       7.556   6.010  18.552  0.00  0.00    +0.000 Br
ENDBRANCH  11  12
ENDBRANCH   1  11
TORSDOF 4
ENDMDL
MODEL 8
REMARK VINA RESULT:      -6.3      2.836      5.791
REMARK  Name = 
REMARK  4 active torsions:
REMARK  status: ('A' for Active; 'I' for Inactive)
REMARK    1  A    between atoms: S_2  and  N_4
REMARK    2  A    between atoms: S_2  and  C_13
REMARK    3  A    between atoms: N_4  and  C_5
REMARK    4  A    between atoms: C_5  and  C_6
REMARK                            x       y       z     vdW  Elec       q    Type
REMARK                         _______ _______ _______ _____ _____    ______ ____
ROOT
ATOM      1  N   UNL     1       4.312   5.988  19.548  0.00  0.00    +0.000 NA
ATOM      2  H   UNL     1       4.518   6.267  20.505  0.00  0.00    +0.000 HD
ENDROOT
BRANCH   1   4
ATOM      3  O   UNL     1       2.151   7.081  20.304  0.00  0.00    +0.000 OA
ATOM      4  S   UNL     1       2.661   6.200  19.269  0.00  0.00    +0.000 S 
ATOM      5  O   UNL     1       2.501   6.494  17.869  0.00  0.00    +0.000 OA
BRANCH   4   6
ATOM      6  C   UNL     1       1.869   4.638  19.550  0.00  0.00    +0.000 A 
ATOM      7  C   UNL     1       1.527   3.956  20.702  0.00  0.00    +0.000 A 
ATOM      8  C   UNL     1       0.895   2.709  20.424  0.00  0.00    +0.000 A 
ATOM      9  C   UNL     1       0.779   2.480  19.072  0.00  0.00    +0.000 A 
ATOM     10  S   UNL     1       1.427   3.764  18.146  0.00  0.00    +0.000 S 
ENDBRANCH   4   6
ENDBRANCH   1   4
BRANCH   1  11
ATOM     11  C   UNL     1       4.800   4.640  19.239  0.00  0.00    +0.000 C 
BRANCH  11  12
ATOM     12  C   UNL     1       5.493   4.597  17.900  0.00  0.00    +0.000 A 
ATOM     13  C   UNL     1       4.780   4.118  16.787  0.00  0.00    +0.000 A 
ATOM     14  C   UNL     1       5.379   4.043  15.530  0.00  0.00    +0.000 A 
ATOM     15  C   UNL     1       6.699   4.452  15.360  0.00  0.00    +0.000 A 
ATOM     16  C   UNL     1       7.415   4.951  16.447  0.00  0.00    +0.000 A 
ATOM     17  C   UNL     1       6.815   5.031  17.708  0.00  0.00    +0.000 A 
ATOM     18 BR   UNL     1       7.859   5.762  19.118  0.00  0.00    +0.000 Br
ENDBRANCH  11  12
ENDBRANCH   1  11
TORSDOF 4
ENDMDL
MODEL 9
REMARK VINA RESULT:      -6.3      2.296      2.860
REMARK  Name = 
REMARK  4 active torsions:
REMARK  status: ('A' for Active; 'I' for Inactive)
REMARK    1  A    between atoms: S_2  and  N_4
REMARK    2  A    between atoms: S_2  and  C_13
REMARK    3  A    between atoms: N_4  and  C_5
REMARK    4  A    between atoms: C_5  and  C_6
REMARK                            x       y       z     vdW  Elec       q    Type
REMARK                         _______ _______ _______ _____ _____    ______ ____
ROOT
ATOM      1  N   UNL     1       4.628   3.398  17.078  0.00  0.00    +0.000 NA
ATOM      2  H   UNL     1       4.952   3.326  18.041  0.00  0.00    +0.000 HD
ENDROOT
BRANCH   1   4
ATOM      3  O   UNL     1       6.541   3.666  15.433  0.00  0.00    +0.000 OA
ATOM      4  S   UNL     1       5.641   4.462  16.247  0.00  0.00    +0.000 S 
ATOM      5  O   UNL     1       4.805   5.489  15.682  0.00  0.00    +0.000 OA
BRANCH   4   6
ATOM      6  C   UNL     1       6.674   5.259  17.449  0.00  0.00    +0.000 A 
ATOM      7  C   UNL     1       7.229   4.828  18.639  0.00  0.00    +0.000 A 
ATOM      8  C   UNL     1       8.002   5.843  19.274  0.00  0.00    +0.000 A 
ATOM      9  C   UNL     1       8.009   7.014  18.550  0.00  0.00    +0.000 A 
ATOM     10  S   UNL     1       7.089   6.886  17.113  0.00  0.00    +0.000 S 
ENDBRANCH   4   6
ENDBRANCH   1   4
BRANCH   1  11
ATOM     11  C   UNL     1       3.204   3.738  16.989  0.00  0.00    +0.000 C 
BRANCH  11  12
ATOM     12  C   UNL     1       2.554   3.754  18.349  0.00  0.00    +0.000 A 
ATOM     13  C   UNL     1       2.146   2.534  18.916  0.00  0.00    +0.000 A 
ATOM     14  C   UNL     1       1.526   2.495  20.165  0.00  0.00    +0.000 A 
ATOM     15  C   UNL     1       1.309   3.673  20.874  0.00  0.00    +0.000 A 
ATOM     16  C   UNL     1       1.727   4.890  20.338  0.00  0.00    +0.000 A 
ATOM     17  C   UNL     1       2.352   4.932  19.088  0.00  0.00    +0.000 A 
ATOM     18 BR   UNL     1       2.922   6.634  18.461  0.00  0.00    +0.000 Br
ENDBRANCH  11  12
ENDBRANCH   1  11
TORSDOF 4
ENDMDL
