MODEL 1
REMARK VINA RESULT:      -8.4      0.000      0.000
REMARK  Name = 
REMARK  10 active torsions:
REMARK  status: ('A' for Active; 'I' for Inactive)
REMARK    1  A    between atoms: C_1  and  C_2
REMARK    2  A    between atoms: C_2  and  C_3
REMARK    3  A    between atoms: C_4  and  C_5
REMARK    4  A    between atoms: C_5  and  C_6
REMARK    5  A    between atoms: C_7  and  O_8
REMARK    6  A    between atoms: C_10  and  O_11
REMARK    7  A    between atoms: C_12  and  C_13
REMARK    8  A    between atoms: C_13  and  C_15
REMARK    9  A    between atoms: C_16  and  C_17
REMARK   10  A    between atoms: C_23  and  O_24
REMARK                            x       y       z     vdW  Elec       q    Type
REMARK                         _______ _______ _______ _____ _____    ______ ____
ROOT
ATOM      1  C   UNL     1       5.613   4.685  15.595  0.00  0.00    +0.000 A 
ATOM      2  C   UNL     1       6.910   5.158  15.849  0.00  0.00    +0.000 A 
ATOM      3  C   UNL     1       7.380   5.336  17.148  0.00  0.00    +0.000 A 
ATOM      4  C   UNL     1       6.556   5.055  18.235  0.00  0.00    +0.000 A 
ATOM      5  C   UNL     1       5.247   4.602  18.035  0.00  0.00    +0.000 A 
ATOM      6  C   UNL     1       4.799   4.398  16.709  0.00  0.00    +0.000 A 
ENDROOT
BRANCH   2   7
ATOM      7  O   UNL     1       7.810   5.460  14.868  0.00  0.00    +0.000 OA
ATOM      8  H   UNL     1       8.263   4.649  14.590  0.00  0.00    +0.000 HD
ENDBRANCH   2   7
BRANCH   4   9
ATOM      9  O   UNL     1       7.071   5.189  19.495  0.00  0.00    +0.000 OA
ATOM     10  H   UNL     1       7.861   5.754  19.465  0.00  0.00    +0.000 HD
ENDBRANCH   4   9
BRANCH   5  11
ATOM     11  C   UNL     1       4.340   4.266  19.172  0.00  0.00    +0.000 C 
ATOM     12  O   UNL     1       4.304   3.106  19.581  0.00  0.00    +0.000 OA
BRANCH  11  13
ATOM     13  C   UNL     1       3.448   5.326  19.720  0.00  0.00    +0.000 C 
ATOM     14  C   UNL     1       3.107   6.391  18.980  0.00  0.00    +0.000 C 
BRANCH  14  15
ATOM     15  C   UNL     1       2.215   7.429  19.501  0.00  0.00    +0.000 A 
ATOM     16  C   UNL     1       1.897   8.539  18.710  0.00  0.00    +0.000 A 
ATOM     17  C   UNL     1       1.056   9.541  19.199  0.00  0.00    +0.000 A 
ATOM     18  C   UNL     1       0.527   9.444  20.487  0.00  0.00    +0.000 A 
ATOM     19  C   UNL     1       0.839   8.343  21.282  0.00  0.00    +0.000 A 
ATOM     20  C   UNL     1       1.681   7.338  20.794  0.00  0.00    +0.000 A 
ENDBRANCH  14  15
ENDBRANCH  11  13
ENDBRANCH   5  11
BRANCH   6  21
ATOM     21  O   UNL     1       3.550   3.882  16.453  0.00  0.00    +0.000 OA
ATOM     22  H   UNL     1       2.931   4.636  16.325  0.00  0.00    +0.000 HD
ENDBRANCH   6  21
BRANCH   1  23
ATOM     23  C   UNL     1       5.093   4.481  14.183  0.00  0.00    +0.000 C 
BRANCH  23  27
ATOM     24  C   UNL     1       6.803   2.236  11.463  0.00  0.00    +0.000 C 
ATOM     25  C   UNL     1       5.741   3.054  12.153  0.00  0.00    +0.000 C 
ATOM     26  C   UNL     1       4.432   3.209  11.432  0.00  0.00    +0.000 C 
ATOM     27  C   UNL     1       6.008   3.623  13.346  0.00  0.00    +0.000 C 
ENDBRANCH  23  27
ENDBRANCH   1  23
TORSDOF 8
ENDMDL
MODEL 2
REMARK VINA RESULT:      -7.8      1.518      7.533
REMARK  Name = 
REMARK  10 active torsions:
REMARK  status: ('A' for Active; 'I' for Inactive)
REMARK    1  A    between atoms: C_1  and  C_2
REMARK    2  A    between atoms: C_2  and  C_3
REMARK    3  A    between atoms: C_4  and  C_5
REMARK    4  A    between atoms: C_5  and  C_6
REMARK    5  A    between atoms: C_7  and  O_8
REMARK    6  A    between atoms: C_10  and  O_11
REMARK    7  A    between atoms: C_12  and  C_13
REMARK    8  A    between atoms: C_13  and  C_15
REMARK    9  A    between atoms: C_16  and  C_17
REMARK   10  A    between atoms: C_23  and  O_24
REMARK                            x       y       z     vdW  Elec       q    Type
REMARK                         _______ _______ _______ _____ _____    ______ ____
ROOT
ATOM      1  C   UNL     1       3.060   5.966  18.697  0.00  0.00    +0.000 A 
ATOM      2  C   UNL     1       2.499   4.838  19.317  0.00  0.00    +0.000 A 
ATOM      3  C   UNL     1       3.258   3.700  19.583  0.00  0.00    +0.000 A 
ATOM      4  C   UNL     1       4.603   3.655  19.225  0.00  0.00    +0.000 A 
ATOM      5  C   UNL     1       5.204   4.746  18.586  0.00  0.00    +0.000 A 
ATOM      6  C   UNL     1       4.425   5.903  18.352  0.00  0.00    +0.000 A 
ENDROOT
BRANCH   2   7
ATOM      7  O   UNL     1       1.197   4.766  19.719  0.00  0.00    +0.000 OA
ATOM      8  H   UNL     1       0.647   5.283  19.111  0.00  0.00    +0.000 HD
ENDBRANCH   2   7
BRANCH   4   9
ATOM      9  O   UNL     1       5.328   2.543  19.554  0.00  0.00    +0.000 OA
ATOM     10  H   UNL     1       5.920   2.312  18.819  0.00  0.00    +0.000 HD
ENDBRANCH   4   9
BRANCH   5  11
ATOM     11  C   UNL     1       6.648   4.748  18.209  0.00  0.00    +0.000 C 
ATOM     12  O   UNL     1       7.492   4.906  19.089  0.00  0.00    +0.000 OA
BRANCH  11  13
ATOM     13  C   UNL     1       7.017   4.642  16.769  0.00  0.00    +0.000 C 
ATOM     14  C   UNL     1       6.078   4.466  15.828  0.00  0.00    +0.000 C 
BRANCH  14  15
ATOM     15  C   UNL     1       6.427   4.381  14.408  0.00  0.00    +0.000 A 
ATOM     16  C   UNL     1       5.730   3.504  13.569  0.00  0.00    +0.000 A 
ATOM     17  C   UNL     1       6.060   3.405  12.215  0.00  0.00    +0.000 A 
ATOM     18  C   UNL     1       7.093   4.182  11.688  0.00  0.00    +0.000 A 
ATOM     19  C   UNL     1       7.793   5.057  12.517  0.00  0.00    +0.000 A 
ATOM     20  C   UNL     1       7.464   5.158  13.873  0.00  0.00    +0.000 A 
ENDBRANCH  14  15
ENDBRANCH  11  13
ENDBRANCH   5  11
BRANCH   6  21
ATOM     21  O   UNL     1       4.982   7.032  17.797  0.00  0.00    +0.000 OA
ATOM     22  H   UNL     1       4.555   7.816  18.212  0.00  0.00    +0.000 HD
ENDBRANCH   6  21
BRANCH   1  23
ATOM     23  C   UNL     1       2.246   7.213  18.407  0.00  0.00    +0.000 C 
BRANCH  23  27
ATOM     24  C   UNL     1       0.950   9.746  21.103  0.00  0.00    +0.000 C 
ATOM     25  C   UNL     1       1.198   9.132  19.749  0.00  0.00    +0.000 C 
ATOM     26  C   UNL     1       0.602   9.840  18.566  0.00  0.00    +0.000 C 
ATOM     27  C   UNL     1       1.903   7.986  19.657  0.00  0.00    +0.000 C 
ENDBRANCH  23  27
ENDBRANCH   1  23
TORSDOF 8
ENDMDL
MODEL 3
REMARK VINA RESULT:      -7.7      4.436      6.946
REMARK  Name = 
REMARK  10 active torsions:
REMARK  status: ('A' for Active; 'I' for Inactive)
REMARK    1  A    between atoms: C_1  and  C_2
REMARK    2  A    between atoms: C_2  and  C_3
REMARK    3  A    between atoms: C_4  and  C_5
REMARK    4  A    between atoms: C_5  and  C_6
REMARK    5  A    between atoms: C_7  and  O_8
REMARK    6  A    between atoms: C_10  and  O_11
REMARK    7  A    between atoms: C_12  and  C_13
REMARK    8  A    between atoms: C_13  and  C_15
REMARK    9  A    between atoms: C_16  and  C_17
REMARK   10  A    between atoms: C_23  and  O_24
REMARK                            x       y       z     vdW  Elec       q    Type
REMARK                         _______ _______ _______ _____ _____    ______ ____
ROOT
ATOM      1  C   UNL     1       2.260   6.889  19.509  0.00  0.00    +0.000 A 
ATOM      2  C   UNL     1       2.908   7.052  18.275  0.00  0.00    +0.000 A 
ATOM      3  C   UNL     1       2.868   8.262  17.584  0.00  0.00    +0.000 A 
ATOM      4  C   UNL     1       2.165   9.343  18.109  0.00  0.00    +0.000 A 
ATOM      5  C   UNL     1       1.484   9.226  19.326  0.00  0.00    +0.000 A 
ATOM      6  C   UNL     1       1.563   7.999  20.026  0.00  0.00    +0.000 A 
ENDROOT
BRANCH   2   7
ATOM      7  O   UNL     1       3.633   6.069  17.665  0.00  0.00    +0.000 OA
ATOM      8  H   UNL     1       3.595   6.195  16.705  0.00  0.00    +0.000 HD
ENDBRANCH   2   7
BRANCH   4   9
ATOM      9  O   UNL     1       2.195  10.530  17.430  0.00  0.00    +0.000 OA
ATOM     10  H   UNL     1       1.311  10.934  17.441  0.00  0.00    +0.000 HD
ENDBRANCH   4   9
BRANCH   5  11
ATOM     11  C   UNL     1       0.740  10.367  19.934  0.00  0.00    +0.000 C 
ATOM     12  O   UNL     1       1.138  10.836  20.999  0.00  0.00    +0.000 OA
BRANCH  11  13
ATOM     13  C   UNL     1      -0.507  10.848  19.276  0.00  0.00    +0.000 C 
ATOM     14  C   UNL     1      -1.137  10.096  18.360  0.00  0.00    +0.000 C 
BRANCH  14  15
ATOM     15  C   UNL     1      -2.375  10.550  17.721  0.00  0.00    +0.000 A 
ATOM     16  C   UNL     1      -2.608  10.266  16.370  0.00  0.00    +0.000 A 
ATOM     17  C   UNL     1      -3.778  10.701  15.746  0.00  0.00    +0.000 A 
ATOM     18  C   UNL     1      -4.727  11.429  16.467  0.00  0.00    +0.000 A 
ATOM     19  C   UNL     1      -4.502  11.717  17.812  0.00  0.00    +0.000 A 
ATOM     20  C   UNL     1      -3.331  11.282  18.439  0.00  0.00    +0.000 A 
ENDBRANCH  14  15
ENDBRANCH  11  13
ENDBRANCH   5  11
BRANCH   6  21
ATOM     21  O   UNL     1       0.978   7.849  21.262  0.00  0.00    +0.000 OA
ATOM     22  H   UNL     1       1.667   8.014  21.946  0.00  0.00    +0.000 HD
ENDBRANCH   6  21
BRANCH   1  23
ATOM     23  C   UNL     1       2.303   5.578  20.273  0.00  0.00    +0.000 C 
BRANCH  23  27
ATOM     24  C   UNL     1       0.673   2.228  19.054  0.00  0.00    +0.000 C 
ATOM     25  C   UNL     1       1.304   3.233  19.983  0.00  0.00    +0.000 C 
ATOM     26  C   UNL     1       1.455   2.823  21.420  0.00  0.00    +0.000 C 
ATOM     27  C   UNL     1       1.673   4.440  19.508  0.00  0.00    +0.000 C 
ENDBRANCH  23  27
ENDBRANCH   1  23
TORSDOF 8
ENDMDL
MODEL 4
REMARK VINA RESULT:      -7.7      1.610      7.756
REMARK  Name = 
REMARK  10 active torsions:
REMARK  status: ('A' for Active; 'I' for Inactive)
REMARK    1  A    between atoms: C_1  and  C_2
REMARK    2  A    between atoms: C_2  and  C_3
REMARK    3  A    between atoms: C_4  and  C_5
REMARK    4  A    between atoms: C_5  and  C_6
REMARK    5  A    between atoms: C_7  and  O_8
REMARK    6  A    between atoms: C_10  and  O_11
REMARK    7  A    between atoms: C_12  and  C_13
REMARK    8  A    between atoms: C_13  and  C_15
REMARK    9  A    between atoms: C_16  and  C_17
REMARK   10  A    between atoms: C_23  and  O_24
REMARK                            x       y       z     vdW  Elec       q    Type
REMARK                         _______ _______ _______ _____ _____    ______ ____
ROOT
ATOM      1  C   UNL     1       2.414   5.232  19.585  0.00  0.00    +0.000 A 
ATOM      2  C   UNL     1       2.070   3.987  20.135  0.00  0.00    +0.000 A 
ATOM      3  C   UNL     1       2.967   2.921  20.144  0.00  0.00    +0.000 A 
ATOM      4  C   UNL     1       4.236   3.069  19.590  0.00  0.00    +0.000 A 
ATOM      5  C   UNL     1       4.620   4.283  19.010  0.00  0.00    +0.000 A 
ATOM      6  C   UNL     1       3.707   5.363  19.039  0.00  0.00    +0.000 A 
ENDROOT
BRANCH   2   7
ATOM      7  O   UNL     1       0.861   3.724  20.712  0.00  0.00    +0.000 OA
ATOM      8  H   UNL     1       0.981   3.618  21.668  0.00  0.00    +0.000 HD
ENDBRANCH   2   7
BRANCH   4   9
ATOM      9  O   UNL     1       5.107   2.018  19.668  0.00  0.00    +0.000 OA
ATOM     10  H   UNL     1       4.689   1.283  20.147  0.00  0.00    +0.000 HD
ENDBRANCH   4   9
BRANCH   5  11
ATOM     11  C   UNL     1       5.979   4.491  18.428  0.00  0.00    +0.000 C 
ATOM     12  O   UNL     1       6.850   5.012  19.123  0.00  0.00    +0.000 OA
BRANCH  11  13
ATOM     13  C   UNL     1       6.213   4.138  17.000  0.00  0.00    +0.000 C 
ATOM     14  C   UNL     1       6.242   5.085  16.051  0.00  0.00    +0.000 C 
BRANCH  14  15
ATOM     15  C   UNL     1       6.491   4.752  14.647  0.00  0.00    +0.000 A 
ATOM     16  C   UNL     1       5.684   3.811  13.998  0.00  0.00    +0.000 A 
ATOM     17  C   UNL     1       5.918   3.476  12.662  0.00  0.00    +0.000 A 
ATOM     18  C   UNL     1       6.965   4.079  11.963  0.00  0.00    +0.000 A 
ATOM     19  C   UNL     1       7.774   5.016  12.602  0.00  0.00    +0.000 A 
ATOM     20  C   UNL     1       7.542   5.353  13.939  0.00  0.00    +0.000 A 
ENDBRANCH  14  15
ENDBRANCH  11  13
ENDBRANCH   5  11
BRANCH   6  21
ATOM     21  O   UNL     1       4.057   6.602  18.553  0.00  0.00    +0.000 OA
ATOM     22  H   UNL     1       5.021   6.589  18.356  0.00  0.00    +0.000 HD
ENDBRANCH   6  21
BRANCH   1  23
ATOM     23  C   UNL     1       1.448   6.402  19.575  0.00  0.00    +0.000 C 
BRANCH  23  27
ATOM     24  C   UNL     1       1.320   9.135  22.382  0.00  0.00    +0.000 C 
ATOM     25  C   UNL     1       1.230   8.517  21.010  0.00  0.00    +0.000 C 
ATOM     26  C   UNL     1       0.812   9.423  19.887  0.00  0.00    +0.000 C 
ATOM     27  C   UNL     1       1.494   7.204  20.852  0.00  0.00    +0.000 C 
ENDBRANCH  23  27
ENDBRANCH   1  23
TORSDOF 8
ENDMDL
MODEL 5
REMARK VINA RESULT:      -7.6      3.663      6.991
REMARK  Name = 
REMARK  10 active torsions:
REMARK  status: ('A' for Active; 'I' for Inactive)
REMARK    1  A    between atoms: C_1  and  C_2
REMARK    2  A    between atoms: C_2  and  C_3
REMARK    3  A    between atoms: C_4  and  C_5
REMARK    4  A    between atoms: C_5  and  C_6
REMARK    5  A    between atoms: C_7  and  O_8
REMARK    6  A    between atoms: C_10  and  O_11
REMARK    7  A    between atoms: C_12  and  C_13
REMARK    8  A    between atoms: C_13  and  C_15
REMARK    9  A    between atoms: C_16  and  C_17
REMARK   10  A    between atoms: C_23  and  O_24
REMARK                            x       y       z     vdW  Elec       q    Type
REMARK                         _______ _______ _______ _____ _____    ______ ____
ROOT
ATOM      1  C   UNL     1       3.782   5.899  18.427  0.00  0.00    +0.000 A 
ATOM      2  C   UNL     1       4.018   4.614  18.941  0.00  0.00    +0.000 A 
ATOM      3  C   UNL     1       5.285   4.036  18.905  0.00  0.00    +0.000 A 
ATOM      4  C   UNL     1       6.354   4.727  18.341  0.00  0.00    +0.000 A 
ATOM      5  C   UNL     1       6.168   6.003  17.797  0.00  0.00    +0.000 A 
ATOM      6  C   UNL     1       4.880   6.585  17.871  0.00  0.00    +0.000 A 
ENDROOT
BRANCH   2   7
ATOM      7  O   UNL     1       3.053   3.844  19.522  0.00  0.00    +0.000 OA
ATOM      8  H   UNL     1       3.277   2.908  19.401  0.00  0.00    +0.000 HD
ENDBRANCH   2   7
BRANCH   4   9
ATOM      9  O   UNL     1       7.594   4.150  18.376  0.00  0.00    +0.000 OA
ATOM     10  H   UNL     1       7.502   3.185  18.447  0.00  0.00    +0.000 HD
ENDBRANCH   4   9
BRANCH   5  11
ATOM     11  C   UNL     1       7.291   6.787  17.206  0.00  0.00    +0.000 C 
ATOM     12  O   UNL     1       7.725   6.465  16.101  0.00  0.00    +0.000 OA
BRANCH  11  13
ATOM     13  C   UNL     1       7.906   7.882  18.008  0.00  0.00    +0.000 C 
ATOM     14  C   UNL     1       8.076   9.107  17.487  0.00  0.00    +0.000 C 
BRANCH  14  15
ATOM     15  C   UNL     1       8.661  10.196  18.271  0.00  0.00    +0.000 A 
ATOM     16  C   UNL     1       9.204   9.934  19.534  0.00  0.00    +0.000 A 
ATOM     17  C   UNL     1       9.756  10.965  20.297  0.00  0.00    +0.000 A 
ATOM     18  C   UNL     1       9.766  12.272  19.805  0.00  0.00    +0.000 A 
ATOM     19  C   UNL     1       9.226  12.542  18.549  0.00  0.00    +0.000 A 
ATOM     20  C   UNL     1       8.673  11.510  17.783  0.00  0.00    +0.000 A 
ENDBRANCH  14  15
ENDBRANCH  11  13
ENDBRANCH   5  11
BRANCH   6  21
ATOM     21  O   UNL     1       4.654   7.866  17.421  0.00  0.00    +0.000 OA
ATOM     22  H   UNL     1       5.279   8.466  17.887  0.00  0.00    +0.000 HD
ENDBRANCH   6  21
BRANCH   1  23
ATOM     23  C   UNL     1       2.408   6.542  18.466  0.00  0.00    +0.000 C 
BRANCH  23  27
ATOM     24  C   UNL     1       1.273   8.689  21.542  0.00  0.00    +0.000 C 
ATOM     25  C   UNL     1       1.558   8.318  20.109  0.00  0.00    +0.000 C 
ATOM     26  C   UNL     1       1.219   9.343  19.065  0.00  0.00    +0.000 C 
ATOM     27  C   UNL     1       2.068   7.103  19.824  0.00  0.00    +0.000 C 
ENDBRANCH  23  27
ENDBRANCH   1  23
TORSDOF 8
ENDMDL
MODEL 6
REMARK VINA RESULT:      -7.6      4.309      6.777
REMARK  Name = 
REMARK  10 active torsions:
REMARK  status: ('A' for Active; 'I' for Inactive)
REMARK    1  A    between atoms: C_1  and  C_2
REMARK    2  A    between atoms: C_2  and  C_3
REMARK    3  A    between atoms: C_4  and  C_5
REMARK    4  A    between atoms: C_5  and  C_6
REMARK    5  A    between atoms: C_7  and  O_8
REMARK    6  A    between atoms: C_10  and  O_11
REMARK    7  A    between atoms: C_12  and  C_13
REMARK    8  A    between atoms: C_13  and  C_15
REMARK    9  A    between atoms: C_16  and  C_17
REMARK   10  A    between atoms: C_23  and  O_24
REMARK                            x       y       z     vdW  Elec       q    Type
REMARK                         _______ _______ _______ _____ _____    ______ ____
ROOT
ATOM      1  C   UNL     1       2.283   6.741  19.639  0.00  0.00    +0.000 A 
ATOM      2  C   UNL     1       2.906   6.854  18.387  0.00  0.00    +0.000 A 
ATOM      3  C   UNL     1       2.853   8.035  17.650  0.00  0.00    +0.000 A 
ATOM      4  C   UNL     1       2.163   9.138  18.145  0.00  0.00    +0.000 A 
ATOM      5  C   UNL     1       1.507   9.071  19.379  0.00  0.00    +0.000 A 
ATOM      6  C   UNL     1       1.598   7.873  20.126  0.00  0.00    +0.000 A 
ENDROOT
BRANCH   2   7
ATOM      7  O   UNL     1       3.616   5.845  17.802  0.00  0.00    +0.000 OA
ATOM      8  H   UNL     1       3.426   5.832  16.852  0.00  0.00    +0.000 HD
ENDBRANCH   2   7
BRANCH   4   9
ATOM      9  O   UNL     1       2.181  10.297  17.419  0.00  0.00    +0.000 OA
ATOM     10  H   UNL     1       1.360  10.793  17.577  0.00  0.00    +0.000 HD
ENDBRANCH   4   9
BRANCH   5  11
ATOM     11  C   UNL     1       0.777  10.238  19.956  0.00  0.00    +0.000 C 
ATOM     12  O   UNL     1       1.169  10.717  21.019  0.00  0.00    +0.000 OA
BRANCH  11  13
ATOM     13  C   UNL     1      -0.450  10.732  19.271  0.00  0.00    +0.000 C 
ATOM     14  C   UNL     1      -1.044  10.006  18.312  0.00  0.00    +0.000 C 
BRANCH  14  15
ATOM     15  C   UNL     1      -2.262  10.472  17.645  0.00  0.00    +0.000 A 
ATOM     16  C   UNL     1      -3.176  11.271  18.341  0.00  0.00    +0.000 A 
ATOM     17  C   UNL     1      -4.346  11.714  17.720  0.00  0.00    +0.000 A 
ATOM     18  C   UNL     1      -4.615  11.358  16.397  0.00  0.00    +0.000 A 
ATOM     19  C   UNL     1      -3.710  10.562  15.698  0.00  0.00    +0.000 A 
ATOM     20  C   UNL     1      -2.537  10.117  16.317  0.00  0.00    +0.000 A 
ENDBRANCH  14  15
ENDBRANCH  11  13
ENDBRANCH   5  11
BRANCH   6  21
ATOM     21  O   UNL     1       1.039   7.773  21.379  0.00  0.00    +0.000 OA
ATOM     22  H   UNL     1       1.432   8.477  21.943  0.00  0.00    +0.000 HD
ENDBRANCH   6  21
BRANCH   1  23
ATOM     23  C   UNL     1       2.339   5.461  20.454  0.00  0.00    +0.000 C 
BRANCH  23  27
ATOM     24  C   UNL     1       0.629   2.269  18.955  0.00  0.00    +0.000 C 
ATOM     25  C   UNL     1       1.723   3.201  19.410  0.00  0.00    +0.000 C 
ATOM     26  C   UNL     1       3.134   2.706  19.273  0.00  0.00    +0.000 C 
ATOM     27  C   UNL     1       1.400   4.401  19.934  0.00  0.00    +0.000 C 
ENDBRANCH  23  27
ENDBRANCH   1  23
TORSDOF 8
ENDMDL
MODEL 7
REMARK VINA RESULT:      -7.6      2.152      7.429
REMARK  Name = 
REMARK  10 active torsions:
REMARK  status: ('A' for Active; 'I' for Inactive)
REMARK    1  A    between atoms: C_1  and  C_2
REMARK    2  A    between atoms: C_2  and  C_3
REMARK    3  A    between atoms: C_4  and  C_5
REMARK    4  A    between atoms: C_5  and  C_6
REMARK    5  A    between atoms: C_7  and  O_8
REMARK    6  A    between atoms: C_10  and  O_11
REMARK    7  A    between atoms: C_12  and  C_13
REMARK    8  A    between atoms: C_13  and  C_15
REMARK    9  A    between atoms: C_16  and  C_17
REMARK   10  A    between atoms: C_23  and  O_24
REMARK                            x       y       z     vdW  Elec       q    Type
REMARK                         _______ _______ _______ _____ _____    ______ ____
ROOT
ATOM      1  C   UNL     1       3.090   5.490  17.808  0.00  0.00    +0.000 A 
ATOM      2  C   UNL     1       3.215   6.882  17.937  0.00  0.00    +0.000 A 
ATOM      3  C   UNL     1       4.403   7.540  17.625  0.00  0.00    +0.000 A 
ATOM      4  C   UNL     1       5.508   6.816  17.183  0.00  0.00    +0.000 A 
ATOM      5  C   UNL     1       5.442   5.424  17.057  0.00  0.00    +0.000 A 
ATOM      6  C   UNL     1       4.217   4.779  17.350  0.00  0.00    +0.000 A 
ENDROOT
BRANCH   2   7
ATOM      7  O   UNL     1       2.202   7.697  18.353  0.00  0.00    +0.000 OA
ATOM      8  H   UNL     1       2.095   7.607  19.312  0.00  0.00    +0.000 HD
ENDBRANCH   2   7
BRANCH   4   9
ATOM      9  O   UNL     1       6.638   7.503  16.832  0.00  0.00    +0.000 OA
ATOM     10  H   UNL     1       7.060   7.864  17.630  0.00  0.00    +0.000 HD
ENDBRANCH   4   9
BRANCH   5  11
ATOM     11  C   UNL     1       6.594   4.615  16.564  0.00  0.00    +0.000 C 
ATOM     12  O   UNL     1       7.674   4.702  17.147  0.00  0.00    +0.000 OA
BRANCH  11  13
ATOM     13  C   UNL     1       6.424   3.792  15.334  0.00  0.00    +0.000 C 
ATOM     14  C   UNL     1       6.118   4.363  14.159  0.00  0.00    +0.000 C 
BRANCH  14  15
ATOM     15  C   UNL     1       5.968   3.567  12.939  0.00  0.00    +0.000 A 
ATOM     16  C   UNL     1       4.708   3.430  12.345  0.00  0.00    +0.000 A 
ATOM     17  C   UNL     1       4.549   2.665  11.187  0.00  0.00    +0.000 A 
ATOM     18  C   UNL     1       5.651   2.026  10.614  0.00  0.00    +0.000 A 
ATOM     19  C   UNL     1       6.908   2.156  11.200  0.00  0.00    +0.000 A 
ATOM     20  C   UNL     1       7.070   2.922  12.359  0.00  0.00    +0.000 A 
ENDBRANCH  14  15
ENDBRANCH  11  13
ENDBRANCH   5  11
BRANCH   6  21
ATOM     21  O   UNL     1       4.070   3.422  17.172  0.00  0.00    +0.000 OA
ATOM     22  H   UNL     1       3.500   3.081  17.899  0.00  0.00    +0.000 HD
ENDBRANCH   6  21
BRANCH   1  23
ATOM     23  C   UNL     1       1.799   4.764  18.139  0.00  0.00    +0.000 C 
BRANCH  23  27
ATOM     24  C   UNL     1       1.611   2.888  21.576  0.00  0.00    +0.000 C 
ATOM     25  C   UNL     1       1.672   3.096  20.084  0.00  0.00    +0.000 C 
ATOM     26  C   UNL     1       1.703   1.861  19.230  0.00  0.00    +0.000 C 
ATOM     27  C   UNL     1       1.722   4.348  19.588  0.00  0.00    +0.000 C 
ENDBRANCH  23  27
ENDBRANCH   1  23
TORSDOF 8
ENDMDL
MODEL 8
REMARK VINA RESULT:      -7.6      1.773      7.825
REMARK  Name = 
REMARK  10 active torsions:
REMARK  status: ('A' for Active; 'I' for Inactive)
REMARK    1  A    between atoms: C_1  and  C_2
REMARK    2  A    between atoms: C_2  and  C_3
REMARK    3  A    between atoms: C_4  and  C_5
REMARK    4  A    between atoms: C_5  and  C_6
REMARK    5  A    between atoms: C_7  and  O_8
REMARK    6  A    between atoms: C_10  and  O_11
REMARK    7  A    between atoms: C_12  and  C_13
REMARK    8  A    between atoms: C_13  and  C_15
REMARK    9  A    between atoms: C_16  and  C_17
REMARK   10  A    between atoms: C_23  and  O_24
REMARK                            x       y       z     vdW  Elec       q    Type
REMARK                         _______ _______ _______ _____ _____    ______ ____
ROOT
ATOM      1  C   UNL     1       2.309   4.809  20.062  0.00  0.00    +0.000 A 
ATOM      2  C   UNL     1       1.600   3.611  19.885  0.00  0.00    +0.000 A 
ATOM      3  C   UNL     1       2.131   2.550  19.154  0.00  0.00    +0.000 A 
ATOM      4  C   UNL     1       3.389   2.664  18.569  0.00  0.00    +0.000 A 
ATOM      5  C   UNL     1       4.128   3.845  18.698  0.00  0.00    +0.000 A 
ATOM      6  C   UNL     1       3.585   4.899  19.470  0.00  0.00    +0.000 A 
ENDROOT
BRANCH   2   7
ATOM      7  O   UNL     1       0.364   3.379  20.415  0.00  0.00    +0.000 OA
ATOM      8  H   UNL     1       0.271   3.880  21.239  0.00  0.00    +0.000 HD
ENDBRANCH   2   7
BRANCH   4   9
ATOM      9  O   UNL     1       3.901   1.582  17.907  0.00  0.00    +0.000 OA
ATOM     10  H   UNL     1       4.371   1.879  17.111  0.00  0.00    +0.000 HD
ENDBRANCH   4   9
BRANCH   5  11
ATOM     11  C   UNL     1       5.490   3.999  18.108  0.00  0.00    +0.000 C 
ATOM     12  O   UNL     1       6.430   4.286  18.848  0.00  0.00    +0.000 OA
BRANCH  11  13
ATOM     13  C   UNL     1       5.654   3.883  16.632  0.00  0.00    +0.000 C 
ATOM     14  C   UNL     1       6.539   4.647  15.974  0.00  0.00    +0.000 C 
BRANCH  14  15
ATOM     15  C   UNL     1       6.723   4.527  14.525  0.00  0.00    +0.000 A 
ATOM     16  C   UNL     1       7.666   5.329  13.872  0.00  0.00    +0.000 A 
ATOM     17  C   UNL     1       7.844   5.232  12.491  0.00  0.00    +0.000 A 
ATOM     18  C   UNL     1       7.076   4.333  11.747  0.00  0.00    +0.000 A 
ATOM     19  C   UNL     1       6.134   3.532  12.390  0.00  0.00    +0.000 A 
ATOM     20  C   UNL     1       5.955   3.627  13.773  0.00  0.00    +0.000 A 
ENDBRANCH  14  15
ENDBRANCH  11  13
ENDBRANCH   5  11
BRANCH   6  21
ATOM     21  O   UNL     1       4.298   6.054  19.695  0.00  0.00    +0.000 OA
ATOM     22  H   UNL     1       5.150   5.985  19.207  0.00  0.00    +0.000 HD
ENDBRANCH   6  21
BRANCH   1  23
ATOM     23  C   UNL     1       1.743   5.969  20.861  0.00  0.00    +0.000 C 
BRANCH  23  27
ATOM     24  C   UNL     1       1.227   9.610  19.506  0.00  0.00    +0.000 C 
ATOM     25  C   UNL     1       1.198   8.443  20.459  0.00  0.00    +0.000 C 
ATOM     26  C   UNL     1       0.655   8.706  21.834  0.00  0.00    +0.000 C 
ATOM     27  C   UNL     1       1.673   7.245  20.060  0.00  0.00    +0.000 C 
ENDBRANCH  23  27
ENDBRANCH   1  23
TORSDOF 8
ENDMDL
MODEL 9
REMARK VINA RESULT:      -7.5      2.157      7.366
REMARK  Name = 
REMARK  10 active torsions:
REMARK  status: ('A' for Active; 'I' for Inactive)
REMARK    1  A    between atoms: C_1  and  C_2
REMARK    2  A    between atoms: C_2  and  C_3
REMARK    3  A    between atoms: C_4  and  C_5
REMARK    4  A    between atoms: C_5  and  C_6
REMARK    5  A    between atoms: C_7  and  O_8
REMARK    6  A    between atoms: C_10  and  O_11
REMARK    7  A    between atoms: C_12  and  C_13
REMARK    8  A    between atoms: C_13  and  C_15
REMARK    9  A    between atoms: C_16  and  C_17
REMARK   10  A    between atoms: C_23  and  O_24
REMARK                            x       y       z     vdW  Elec       q    Type
REMARK                         _______ _______ _______ _____ _____    ______ ____
ROOT
ATOM      1  C   UNL     1       3.146   5.603  17.815  0.00  0.00    +0.000 A 
ATOM      2  C   UNL     1       3.346   6.987  17.935  0.00  0.00    +0.000 A 
ATOM      3  C   UNL     1       4.569   7.577  17.622  0.00  0.00    +0.000 A 
ATOM      4  C   UNL     1       5.634   6.792  17.188  0.00  0.00    +0.000 A 
ATOM      5  C   UNL     1       5.492   5.404  17.071  0.00  0.00    +0.000 A 
ATOM      6  C   UNL     1       4.233   4.828  17.365  0.00  0.00    +0.000 A 
ENDROOT
BRANCH   2   7
ATOM      7  O   UNL     1       2.378   7.859  18.343  0.00  0.00    +0.000 OA
ATOM      8  H   UNL     1       2.792   8.596  18.817  0.00  0.00    +0.000 HD
ENDBRANCH   2   7
BRANCH   4   9
ATOM      9  O   UNL     1       6.800   7.413  16.837  0.00  0.00    +0.000 OA
ATOM     10  H   UNL     1       6.626   8.351  16.652  0.00  0.00    +0.000 HD
ENDBRANCH   4   9
BRANCH   5  11
ATOM     11  C   UNL     1       6.600   4.530  16.587  0.00  0.00    +0.000 C 
ATOM     12  O   UNL     1       7.670   4.535  17.194  0.00  0.00    +0.000 OA
BRANCH  11  13
ATOM     13  C   UNL     1       6.404   3.743  15.337  0.00  0.00    +0.000 C 
ATOM     14  C   UNL     1       5.903   4.317  14.233  0.00  0.00    +0.000 C 
BRANCH  14  15
ATOM     15  C   UNL     1       5.724   3.558  12.992  0.00  0.00    +0.000 A 
ATOM     16  C   UNL     1       6.807   2.869  12.433  0.00  0.00    +0.000 A 
ATOM     17  C   UNL     1       6.653   2.151  11.246  0.00  0.00    +0.000 A 
ATOM     18  C   UNL     1       5.414   2.118  10.603  0.00  0.00    +0.000 A 
ATOM     19  C   UNL     1       4.331   2.803  11.153  0.00  0.00    +0.000 A 
ATOM     20  C   UNL     1       4.483   3.522  12.342  0.00  0.00    +0.000 A 
ENDBRANCH  14  15
ENDBRANCH  11  13
ENDBRANCH   5  11
BRANCH   6  21
ATOM     21  O   UNL     1       4.013   3.481  17.195  0.00  0.00    +0.000 OA
ATOM     22  H   UNL     1       4.441   3.007  17.944  0.00  0.00    +0.000 HD
ENDBRANCH   6  21
BRANCH   1  23
ATOM     23  C   UNL     1       1.816   4.950  18.147  0.00  0.00    +0.000 C 
BRANCH  23  27
ATOM     24  C   UNL     1       1.409   2.837  21.423  0.00  0.00    +0.000 C 
ATOM     25  C   UNL     1       1.369   3.190  19.958  0.00  0.00    +0.000 C 
ATOM     26  C   UNL     1       0.900   2.117  19.017  0.00  0.00    +0.000 C 
ATOM     27  C   UNL     1       1.769   4.413  19.556  0.00  0.00    +0.000 C 
ENDBRANCH  23  27
ENDBRANCH   1  23
TORSDOF 8
ENDMDL
