MODEL 1
REMARK VINA RESULT:      -8.7      0.000      0.000
REMARK  Name = 
REMARK  5 active torsions:
REMARK  status: ('A' for Active; 'I' for Inactive)
REMARK    1  A    between atoms: C_1  and  O_2
REMARK    2  A    between atoms: O_2  and  C_3
REMARK    3  A    between atoms: C_6  and  C_7
REMARK    4  A    between atoms: C_7  and  N_8
REMARK    5  A    between atoms: C_13  and  C_14
REMARK                            x       y       z     vdW  Elec       q    Type
REMARK                         _______ _______ _______ _____ _____    ______ ____
ROOT
ATOM      1  N   UNL     1       4.384   2.797  18.736  0.00  0.00    +0.000 N 
ATOM      2  C   UNL     1       3.482   3.490  19.550  0.00  0.00    +0.000 A 
ATOM      3  C   UNL     1       2.968   2.876  20.665  0.00  0.00    +0.000 A 
ATOM      4  C   UNL     1       2.098   3.618  21.431  0.00  0.00    +0.000 A 
ATOM      5  N   UNL     1       1.788   4.903  21.179  0.00  0.00    +0.000 NA
ATOM      6  C   UNL     1       2.397   5.441  20.112  0.00  0.00    +0.000 A 
ATOM      7  N   UNL     1       3.219   4.774  19.279  0.00  0.00    +0.000 NA
ATOM      8  H   UNL     1       5.304   2.897  19.158  0.00  0.00    +0.000 HD
ENDROOT
BRANCH   6   9
ATOM      9  C   UNL     1       2.149   6.845  19.765  0.00  0.00    +0.000 A 
ATOM     10  C   UNL     1       2.456   7.321  18.456  0.00  0.00    +0.000 A 
ATOM     11  C   UNL     1       2.084   8.594  18.022  0.00  0.00    +0.000 A 
ATOM     12  C   UNL     1       1.371   9.363  18.907  0.00  0.00    +0.000 A 
ATOM     13  C   UNL     1       1.113   8.946  20.196  0.00  0.00    +0.000 A 
ATOM     14  C   UNL     1       1.521   7.718  20.667  0.00  0.00    +0.000 A 
ATOM     15  O   UNL     1       0.338   9.839  20.873  0.00  0.00    +0.000 OA
ATOM     16  C   UNL     1      -0.107  10.651  19.766  0.00  0.00    +0.000 C 
ATOM     17  O   UNL     1       0.772  10.553  18.625  0.00  0.00    +0.000 OA
ENDBRANCH   6   9
BRANCH   1  18
ATOM     18  C   UNL     1       4.399   3.280  17.355  0.00  0.00    +0.000 C 
BRANCH  18  22
ATOM     19  C   UNL     1       6.998   6.722  17.091  0.00  0.00    +0.000 A 
ATOM     20  C   UNL     1       5.802   6.689  16.376  0.00  0.00    +0.000 A 
ATOM     21  C   UNL     1       4.956   5.580  16.463  0.00  0.00    +0.000 A 
ATOM     22  C   UNL     1       5.309   4.482  17.255  0.00  0.00    +0.000 A 
ATOM     23  C   UNL     1       6.516   4.520  17.968  0.00  0.00    +0.000 A 
ATOM     24  C   UNL     1       7.356   5.636  17.888  0.00  0.00    +0.000 A 
BRANCH  19  26
ATOM     25  C   UNL     1       8.222   8.476  18.097  0.00  0.00    +0.000 C 
ATOM     26  O   UNL     1       7.748   7.852  16.912  0.00  0.00    +0.000 OA
ENDBRANCH  19  26
ENDBRANCH  18  22
ENDBRANCH   1  18
TORSDOF 4
ENDMDL
MODEL 2
REMARK VINA RESULT:      -8.4      0.772      1.337
REMARK  Name = 
REMARK  5 active torsions:
REMARK  status: ('A' for Active; 'I' for Inactive)
REMARK    1  A    between atoms: C_1  and  O_2
REMARK    2  A    between atoms: O_2  and  C_3
REMARK    3  A    between atoms: C_6  and  C_7
REMARK    4  A    between atoms: C_7  and  N_8
REMARK    5  A    between atoms: C_13  and  C_14
REMARK                            x       y       z     vdW  Elec       q    Type
REMARK                         _______ _______ _______ _____ _____    ______ ____
ROOT
ATOM      1  N   UNL     1       4.987   3.356  18.936  0.00  0.00    +0.000 N 
ATOM      2  C   UNL     1       3.844   3.890  19.542  0.00  0.00    +0.000 A 
ATOM      3  C   UNL     1       3.134   3.128  20.435  0.00  0.00    +0.000 A 
ATOM      4  C   UNL     1       2.030   3.716  21.007  0.00  0.00    +0.000 A 
ATOM      5  N   UNL     1       1.663   4.992  20.785  0.00  0.00    +0.000 NA
ATOM      6  C   UNL     1       2.460   5.682  19.957  0.00  0.00    +0.000 A 
ATOM      7  N   UNL     1       3.528   5.170  19.313  0.00  0.00    +0.000 NA
ATOM      8  H   UNL     1       5.757   3.485  19.587  0.00  0.00    +0.000 HD
ENDROOT
BRANCH   6   9
ATOM      9  C   UNL     1       2.164   7.091  19.668  0.00  0.00    +0.000 A 
ATOM     10  C   UNL     1       2.449   7.629  18.379  0.00  0.00    +0.000 A 
ATOM     11  C   UNL     1       2.034   8.906  17.999  0.00  0.00    +0.000 A 
ATOM     12  C   UNL     1       1.300   9.614  18.917  0.00  0.00    +0.000 A 
ATOM     13  C   UNL     1       1.062   9.137  20.189  0.00  0.00    +0.000 A 
ATOM     14  C   UNL     1       1.513   7.904  20.608  0.00  0.00    +0.000 A 
ATOM     15  O   UNL     1       0.261   9.975  20.904  0.00  0.00    +0.000 OA
ATOM     16  C   UNL     1      -0.215  10.816  19.833  0.00  0.00    +0.000 C 
ATOM     17  O   UNL     1       0.662  10.795  18.687  0.00  0.00    +0.000 OA
ENDBRANCH   6   9
BRANCH   1  18
ATOM     18  C   UNL     1       5.295   3.978  17.647  0.00  0.00    +0.000 C 
BRANCH  18  22
ATOM     19  C   UNL     1       7.909   7.363  18.258  0.00  0.00    +0.000 A 
ATOM     20  C   UNL     1       7.996   6.250  19.092  0.00  0.00    +0.000 A 
ATOM     21  C   UNL     1       7.157   5.150  18.894  0.00  0.00    +0.000 A 
ATOM     22  C   UNL     1       6.205   5.163  17.868  0.00  0.00    +0.000 A 
ATOM     23  C   UNL     1       6.119   6.289  17.037  0.00  0.00    +0.000 A 
ATOM     24  C   UNL     1       6.969   7.384  17.230  0.00  0.00    +0.000 A 
BRANCH  19  26
ATOM     25  C   UNL     1       8.381   9.675  18.120  0.00  0.00    +0.000 C 
ATOM     26  O   UNL     1       8.771   8.382  18.562  0.00  0.00    +0.000 OA
ENDBRANCH  19  26
ENDBRANCH  18  22
ENDBRANCH   1  18
TORSDOF 4
ENDMDL
MODEL 3
REMARK VINA RESULT:      -8.4      1.141      1.557
REMARK  Name = 
REMARK  5 active torsions:
REMARK  status: ('A' for Active; 'I' for Inactive)
REMARK    1  A    between atoms: C_1  and  O_2
REMARK    2  A    between atoms: O_2  and  C_3
REMARK    3  A    between atoms: C_6  and  C_7
REMARK    4  A    between atoms: C_7  and  N_8
REMARK    5  A    between atoms: C_13  and  C_14
REMARK                            x       y       z     vdW  Elec       q    Type
REMARK                         _______ _______ _______ _____ _____    ______ ____
ROOT
ATOM      1  N   UNL     1       4.806   2.916  17.300  0.00  0.00    +0.000 N 
ATOM      2  C   UNL     1       3.709   3.275  18.091  0.00  0.00    +0.000 A 
ATOM      3  C   UNL     1       2.974   2.297  18.712  0.00  0.00    +0.000 A 
ATOM      4  C   UNL     1       1.918   2.718  19.487  0.00  0.00    +0.000 A 
ATOM      5  N   UNL     1       1.621   4.012  19.709  0.00  0.00    +0.000 NA
ATOM      6  C   UNL     1       2.440   4.897  19.121  0.00  0.00    +0.000 A 
ATOM      7  N   UNL     1       3.463   4.573  18.305  0.00  0.00    +0.000 NA
ATOM      8  H   UNL     1       5.595   2.787  17.927  0.00  0.00    +0.000 HD
ENDROOT
BRANCH   6   9
ATOM      9  C   UNL     1       2.221   6.334  19.321  0.00  0.00    +0.000 A 
ATOM     10  C   UNL     1       2.366   7.236  18.225  0.00  0.00    +0.000 A 
ATOM     11  C   UNL     1       2.005   8.581  18.317  0.00  0.00    +0.000 A 
ATOM     12  C   UNL     1       1.465   8.994  19.509  0.00  0.00    +0.000 A 
ATOM     13  C   UNL     1       1.368   8.154  20.598  0.00  0.00    +0.000 A 
ATOM     14  C   UNL     1       1.773   6.838  20.551  0.00  0.00    +0.000 A 
ATOM     15  O   UNL     1       0.744   8.755  21.649  0.00  0.00    +0.000 OA
ATOM     16  C   UNL     1       0.193   9.903  20.970  0.00  0.00    +0.000 C 
ATOM     17  O   UNL     1       0.897  10.208  19.748  0.00  0.00    +0.000 OA
ENDBRANCH   6   9
BRANCH   1  18
ATOM     18  C   UNL     1       5.123   3.910  16.275  0.00  0.00    +0.000 C 
BRANCH  18  22
ATOM     19  C   UNL     1       7.618   7.002  17.973  0.00  0.00    +0.000 A 
ATOM     20  C   UNL     1       7.810   5.669  18.332  0.00  0.00    +0.000 A 
ATOM     21  C   UNL     1       7.009   4.665  17.781  0.00  0.00    +0.000 A 
ATOM     22  C   UNL     1       5.992   4.990  16.876  0.00  0.00    +0.000 A 
ATOM     23  C   UNL     1       5.801   6.334  16.524  0.00  0.00    +0.000 A 
ATOM     24  C   UNL     1       6.611   7.335  17.069  0.00  0.00    +0.000 A 
BRANCH  19  26
ATOM     25  C   UNL     1       8.376   9.235  18.130  0.00  0.00    +0.000 C 
ATOM     26  O   UNL     1       8.451   7.894  18.592  0.00  0.00    +0.000 OA
ENDBRANCH  19  26
ENDBRANCH  18  22
ENDBRANCH   1  18
TORSDOF 4
ENDMDL
MODEL 4
REMARK VINA RESULT:      -8.3      2.141      7.374
REMARK  Name = 
REMARK  5 active torsions:
REMARK  status: ('A' for Active; 'I' for Inactive)
REMARK    1  A    between atoms: C_1  and  O_2
REMARK    2  A    between atoms: O_2  and  C_3
REMARK    3  A    between atoms: C_6  and  C_7
REMARK    4  A    between atoms: C_7  and  N_8
REMARK    5  A    between atoms: C_13  and  C_14
REMARK                            x       y       z     vdW  Elec       q    Type
REMARK                         _______ _______ _______ _____ _____    ______ ____
ROOT
ATOM      1  N   UNL     1       1.133   6.597  20.720  0.00  0.00    +0.000 N 
ATOM      2  C   UNL     1       2.016   5.541  20.468  0.00  0.00    +0.000 A 
ATOM      3  C   UNL     1       1.811   4.329  21.077  0.00  0.00    +0.000 A 
ATOM      4  C   UNL     1       2.706   3.328  20.776  0.00  0.00    +0.000 A 
ATOM      5  N   UNL     1       3.706   3.462  19.885  0.00  0.00    +0.000 NA
ATOM      6  C   UNL     1       3.782   4.659  19.283  0.00  0.00    +0.000 A 
ATOM      7  N   UNL     1       2.983   5.708  19.557  0.00  0.00    +0.000 NA
ATOM      8  H   UNL     1       0.337   6.473  20.101  0.00  0.00    +0.000 HD
ENDROOT
BRANCH   6   9
ATOM      9  C   UNL     1       4.821   4.901  18.275  0.00  0.00    +0.000 A 
ATOM     10  C   UNL     1       6.196   4.889  18.652  0.00  0.00    +0.000 A 
ATOM     11  C   UNL     1       7.225   4.943  17.711  0.00  0.00    +0.000 A 
ATOM     12  C   UNL     1       6.851   4.973  16.391  0.00  0.00    +0.000 A 
ATOM     13  C   UNL     1       5.529   5.042  16.006  0.00  0.00    +0.000 A 
ATOM     14  C   UNL     1       4.497   5.051  16.918  0.00  0.00    +0.000 A 
ATOM     15  O   UNL     1       5.391   4.996  14.651  0.00  0.00    +0.000 OA
ATOM     16  C   UNL     1       6.720   4.562  14.295  0.00  0.00    +0.000 C 
ATOM     17  O   UNL     1       7.689   4.856  15.324  0.00  0.00    +0.000 OA
ENDBRANCH   6   9
BRANCH   1  18
ATOM     18  C   UNL     1       1.741   7.913  20.516  0.00  0.00    +0.000 C 
BRANCH  18  22
ATOM     19  C   UNL     1      -0.672  10.941  22.434  0.00  0.00    +0.000 A 
ATOM     20  C   UNL     1      -0.311   9.787  23.128  0.00  0.00    +0.000 A 
ATOM     21  C   UNL     1       0.474   8.808  22.513  0.00  0.00    +0.000 A 
ATOM     22  C   UNL     1       0.891   8.966  21.187  0.00  0.00    +0.000 A 
ATOM     23  C   UNL     1       0.519  10.127  20.494  0.00  0.00    +0.000 A 
ATOM     24  C   UNL     1      -0.257  11.111  21.115  0.00  0.00    +0.000 A 
BRANCH  19  26
ATOM     25  C   UNL     1      -1.172  13.194  22.940  0.00  0.00    +0.000 C 
ATOM     26  O   UNL     1      -1.455  11.816  23.136  0.00  0.00    +0.000 OA
ENDBRANCH  19  26
ENDBRANCH  18  22
ENDBRANCH   1  18
TORSDOF 4
ENDMDL
MODEL 5
REMARK VINA RESULT:      -8.3      0.710      1.433
REMARK  Name = 
REMARK  5 active torsions:
REMARK  status: ('A' for Active; 'I' for Inactive)
REMARK    1  A    between atoms: C_1  and  O_2
REMARK    2  A    between atoms: O_2  and  C_3
REMARK    3  A    between atoms: C_6  and  C_7
REMARK    4  A    between atoms: C_7  and  N_8
REMARK    5  A    between atoms: C_13  and  C_14
REMARK                            x       y       z     vdW  Elec       q    Type
REMARK                         _______ _______ _______ _____ _____    ______ ____
ROOT
ATOM      1  N   UNL     1       4.595   2.777  18.770  0.00  0.00    +0.000 N 
ATOM      2  C   UNL     1       3.624   3.328  19.612  0.00  0.00    +0.000 A 
ATOM      3  C   UNL     1       3.205   2.624  20.713  0.00  0.00    +0.000 A 
ATOM      4  C   UNL     1       2.260   3.229  21.509  0.00  0.00    +0.000 A 
ATOM      5  N   UNL     1       1.787   4.471  21.298  0.00  0.00    +0.000 NA
ATOM      6  C   UNL     1       2.310   5.111  20.242  0.00  0.00    +0.000 A 
ATOM      7  N   UNL     1       3.199   4.576  19.381  0.00  0.00    +0.000 NA
ATOM      8  H   UNL     1       5.500   2.980  19.186  0.00  0.00    +0.000 HD
ENDROOT
BRANCH   6   9
ATOM      9  C   UNL     1       1.883   6.482  19.938  0.00  0.00    +0.000 A 
ATOM     10  C   UNL     1       1.361   7.312  20.974  0.00  0.00    +0.000 A 
ATOM     11  C   UNL     1       1.101   8.669  20.778  0.00  0.00    +0.000 A 
ATOM     12  C   UNL     1       1.408   9.184  19.544  0.00  0.00    +0.000 A 
ATOM     13  C   UNL     1       1.859   8.389  18.511  0.00  0.00    +0.000 A 
ATOM     14  C   UNL     1       2.067   7.036  18.661  0.00  0.00    +0.000 A 
ATOM     15  O   UNL     1       2.159   9.120  17.401  0.00  0.00    +0.000 OA
ATOM     16  C   UNL     1       2.158  10.441  17.982  0.00  0.00    +0.000 C 
ATOM     17  O   UNL     1       1.391  10.502  19.204  0.00  0.00    +0.000 OA
ENDBRANCH   6   9
BRANCH   1  18
ATOM     18  C   UNL     1       4.530   3.297  17.404  0.00  0.00    +0.000 C 
BRANCH  18  22
ATOM     19  C   UNL     1       6.958   6.860  17.134  0.00  0.00    +0.000 A 
ATOM     20  C   UNL     1       5.685   6.834  16.568  0.00  0.00    +0.000 A 
ATOM     21  C   UNL     1       4.894   5.686  16.658  0.00  0.00    +0.000 A 
ATOM     22  C   UNL     1       5.380   4.542  17.301  0.00  0.00    +0.000 A 
ATOM     23  C   UNL     1       6.664   4.574  17.863  0.00  0.00    +0.000 A 
ATOM     24  C   UNL     1       7.449   5.729  17.782  0.00  0.00    +0.000 A 
BRANCH  19  26
ATOM     25  C   UNL     1       8.241   8.575  18.135  0.00  0.00    +0.000 C 
ATOM     26  O   UNL     1       7.642   8.034  16.965  0.00  0.00    +0.000 OA
ENDBRANCH  19  26
ENDBRANCH  18  22
ENDBRANCH   1  18
TORSDOF 4
ENDMDL
MODEL 6
REMARK VINA RESULT:      -8.2      1.045      2.001
REMARK  Name = 
REMARK  5 active torsions:
REMARK  status: ('A' for Active; 'I' for Inactive)
REMARK    1  A    between atoms: C_1  and  O_2
REMARK    2  A    between atoms: O_2  and  C_3
REMARK    3  A    between atoms: C_6  and  C_7
REMARK    4  A    between atoms: C_7  and  N_8
REMARK    5  A    between atoms: C_13  and  C_14
REMARK                            x       y       z     vdW  Elec       q    Type
REMARK                         _______ _______ _______ _____ _____    ______ ____
ROOT
ATOM      1  N   UNL     1       5.353   3.458  18.852  0.00  0.00    +0.000 N 
ATOM      2  C   UNL     1       4.149   3.774  19.490  0.00  0.00    +0.000 A 
ATOM      3  C   UNL     1       3.580   2.866  20.347  0.00  0.00    +0.000 A 
ATOM      4  C   UNL     1       2.404   3.245  20.954  0.00  0.00    +0.000 A 
ATOM      5  N   UNL     1       1.838   4.456  20.799  0.00  0.00    +0.000 NA
ATOM      6  C   UNL     1       2.507   5.304  20.002  0.00  0.00    +0.000 A 
ATOM      7  N   UNL     1       3.633   4.998  19.328  0.00  0.00    +0.000 NA
ATOM      8  H   UNL     1       6.102   3.674  19.504  0.00  0.00    +0.000 HD
ENDROOT
BRANCH   6   9
ATOM      9  C   UNL     1       1.989   6.660  19.787  0.00  0.00    +0.000 A 
ATOM     10  C   UNL     1       1.368   7.365  20.861  0.00  0.00    +0.000 A 
ATOM     11  C   UNL     1       1.014   8.711  20.759  0.00  0.00    +0.000 A 
ATOM     12  C   UNL     1       1.327   9.343  19.582  0.00  0.00    +0.000 A 
ATOM     13  C   UNL     1       1.875   8.668  18.512  0.00  0.00    +0.000 A 
ATOM     14  C   UNL     1       2.178   7.326  18.566  0.00  0.00    +0.000 A 
ATOM     15  O   UNL     1       2.161   9.505  17.476  0.00  0.00    +0.000 OA
ATOM     16  C   UNL     1       2.038  10.772  18.156  0.00  0.00    +0.000 C 
ATOM     17  O   UNL     1       1.224  10.680  19.345  0.00  0.00    +0.000 OA
ENDBRANCH   6   9
BRANCH   1  18
ATOM     18  C   UNL     1       5.543   4.182  17.595  0.00  0.00    +0.000 C 
BRANCH  18  22
ATOM     19  C   UNL     1       8.058   7.629  18.275  0.00  0.00    +0.000 A 
ATOM     20  C   UNL     1       8.170   6.506  19.093  0.00  0.00    +0.000 A 
ATOM     21  C   UNL     1       7.363   5.387  18.873  0.00  0.00    +0.000 A 
ATOM     22  C   UNL     1       6.418   5.389  17.840  0.00  0.00    +0.000 A 
ATOM     23  C   UNL     1       6.307   6.525  17.025  0.00  0.00    +0.000 A 
ATOM     24  C   UNL     1       7.125   7.639  17.241  0.00  0.00    +0.000 A 
BRANCH  19  26
ATOM     25  C   UNL     1       8.450   9.959  18.204  0.00  0.00    +0.000 C 
ATOM     26  O   UNL     1       8.889   8.667  18.600  0.00  0.00    +0.000 OA
ENDBRANCH  19  26
ENDBRANCH  18  22
ENDBRANCH   1  18
TORSDOF 4
ENDMDL
MODEL 7
REMARK VINA RESULT:      -8.2      2.292      7.387
REMARK  Name = 
REMARK  5 active torsions:
REMARK  status: ('A' for Active; 'I' for Inactive)
REMARK    1  A    between atoms: C_1  and  O_2
REMARK    2  A    between atoms: O_2  and  C_3
REMARK    3  A    between atoms: C_6  and  C_7
REMARK    4  A    between atoms: C_7  and  N_8
REMARK    5  A    between atoms: C_13  and  C_14
REMARK                            x       y       z     vdW  Elec       q    Type
REMARK                         _______ _______ _______ _____ _____    ______ ____
ROOT
ATOM      1  N   UNL     1       1.112   6.770  20.981  0.00  0.00    +0.000 N 
ATOM      2  C   UNL     1       1.901   5.725  20.488  0.00  0.00    +0.000 A 
ATOM      3  C   UNL     1       1.891   4.511  21.126  0.00  0.00    +0.000 A 
ATOM      4  C   UNL     1       2.677   3.521  20.581  0.00  0.00    +0.000 A 
ATOM      5  N   UNL     1       3.385   3.668  19.446  0.00  0.00    +0.000 NA
ATOM      6  C   UNL     1       3.273   4.865  18.851  0.00  0.00    +0.000 A 
ATOM      7  N   UNL     1       2.571   5.905  19.343  0.00  0.00    +0.000 NA
ATOM      8  H   UNL     1       0.175   6.635  20.611  0.00  0.00    +0.000 HD
ENDROOT
BRANCH   6   9
ATOM      9  C   UNL     1       3.984   5.121  17.593  0.00  0.00    +0.000 A 
ATOM     10  C   UNL     1       4.289   6.460  17.206  0.00  0.00    +0.000 A 
ATOM     11  C   UNL     1       5.107   6.748  16.113  0.00  0.00    +0.000 A 
ATOM     12  C   UNL     1       5.639   5.677  15.441  0.00  0.00    +0.000 A 
ATOM     13  C   UNL     1       5.312   4.376  15.762  0.00  0.00    +0.000 A 
ATOM     14  C   UNL     1       4.460   4.066  16.799  0.00  0.00    +0.000 A 
ATOM     15  O   UNL     1       6.006   3.477  15.009  0.00  0.00    +0.000 OA
ATOM     16  C   UNL     1       7.004   4.358  14.452  0.00  0.00    +0.000 C 
ATOM     17  O   UNL     1       6.586   5.739  14.465  0.00  0.00    +0.000 OA
ENDBRANCH   6   9
BRANCH   1  18
ATOM     18  C   UNL     1       1.621   8.093  20.620  0.00  0.00    +0.000 C 
BRANCH  18  22
ATOM     19  C   UNL     1      -0.780  11.112  22.566  0.00  0.00    +0.000 A 
ATOM     20  C   UNL     1      -0.264  11.339  21.292  0.00  0.00    +0.000 A 
ATOM     21  C   UNL     1       0.508  10.363  20.656  0.00  0.00    +0.000 A 
ATOM     22  C   UNL     1       0.789   9.153  21.301  0.00  0.00    +0.000 A 
ATOM     23  C   UNL     1       0.271   8.934  22.586  0.00  0.00    +0.000 A 
ATOM     24  C   UNL     1      -0.512   9.908  23.215  0.00  0.00    +0.000 A 
BRANCH  19  26
ATOM     25  C   UNL     1      -2.660  12.529  22.356  0.00  0.00    +0.000 C 
ATOM     26  O   UNL     1      -1.506  12.147  23.091  0.00  0.00    +0.000 OA
ENDBRANCH  19  26
ENDBRANCH  18  22
ENDBRANCH   1  18
TORSDOF 4
ENDMDL
MODEL 8
REMARK VINA RESULT:      -8.2      2.151      7.392
REMARK  Name = 
REMARK  5 active torsions:
REMARK  status: ('A' for Active; 'I' for Inactive)
REMARK    1  A    between atoms: C_1  and  O_2
REMARK    2  A    between atoms: O_2  and  C_3
REMARK    3  A    between atoms: C_6  and  C_7
REMARK    4  A    between atoms: C_7  and  N_8
REMARK    5  A    between atoms: C_13  and  C_14
REMARK                            x       y       z     vdW  Elec       q    Type
REMARK                         _______ _______ _______ _____ _____    ______ ____
ROOT
ATOM      1  N   UNL     1       1.160   6.725  20.785  0.00  0.00    +0.000 N 
ATOM      2  C   UNL     1       1.990   5.636  20.496  0.00  0.00    +0.000 A 
ATOM      3  C   UNL     1       1.717   4.411  21.051  0.00  0.00    +0.000 A 
ATOM      4  C   UNL     1       2.562   3.379  20.714  0.00  0.00    +0.000 A 
ATOM      5  N   UNL     1       3.577   3.499  19.839  0.00  0.00    +0.000 NA
ATOM      6  C   UNL     1       3.720   4.714  19.289  0.00  0.00    +0.000 A 
ATOM      7  N   UNL     1       2.973   5.791  19.601  0.00  0.00    +0.000 NA
ATOM      8  H   UNL     1       0.364   6.668  20.155  0.00  0.00    +0.000 HD
ENDROOT
BRANCH   6   9
ATOM      9  C   UNL     1       4.780   4.945  18.301  0.00  0.00    +0.000 A 
ATOM     10  C   UNL     1       6.146   4.963  18.712  0.00  0.00    +0.000 A 
ATOM     11  C   UNL     1       7.197   5.007  17.795  0.00  0.00    +0.000 A 
ATOM     12  C   UNL     1       6.857   4.997  16.466  0.00  0.00    +0.000 A 
ATOM     13  C   UNL     1       5.544   5.037  16.047  0.00  0.00    +0.000 A 
ATOM     14  C   UNL     1       4.489   5.054  16.933  0.00  0.00    +0.000 A 
ATOM     15  O   UNL     1       5.441   4.953  14.691  0.00  0.00    +0.000 OA
ATOM     16  C   UNL     1       6.784   4.529  14.379  0.00  0.00    +0.000 C 
ATOM     17  O   UNL     1       7.722   4.865  15.423  0.00  0.00    +0.000 OA
ENDBRANCH   6   9
BRANCH   1  18
ATOM     18  C   UNL     1       1.836   8.014  20.643  0.00  0.00    +0.000 C 
BRANCH  18  22
ATOM     19  C   UNL     1      -0.734  11.131  22.176  0.00  0.00    +0.000 A 
ATOM     20  C   UNL     1      -0.134  11.268  20.926  0.00  0.00    +0.000 A 
ATOM     21  C   UNL     1       0.693  10.260  20.424  0.00  0.00    +0.000 A 
ATOM     22  C   UNL     1       0.944   9.109  21.180  0.00  0.00    +0.000 A 
ATOM     23  C   UNL     1       0.341   8.981  22.440  0.00  0.00    +0.000 A 
ATOM     24  C   UNL     1      -0.496   9.987  22.935  0.00  0.00    +0.000 A 
BRANCH  19  26
ATOM     25  C   UNL     1      -2.626  11.873  23.382  0.00  0.00    +0.000 C 
ATOM     26  O   UNL     1      -1.508  12.191  22.566  0.00  0.00    +0.000 OA
ENDBRANCH  19  26
ENDBRANCH  18  22
ENDBRANCH   1  18
TORSDOF 4
ENDMDL
MODEL 9
REMARK VINA RESULT:      -8.2      2.200      7.316
REMARK  Name = 
REMARK  5 active torsions:
REMARK  status: ('A' for Active; 'I' for Inactive)
REMARK    1  A    between atoms: C_1  and  O_2
REMARK    2  A    between atoms: O_2  and  C_3
REMARK    3  A    between atoms: C_6  and  C_7
REMARK    4  A    between atoms: C_7  and  N_8
REMARK    5  A    between atoms: C_13  and  C_14
REMARK                            x       y       z     vdW  Elec       q    Type
REMARK                         _______ _______ _______ _____ _____    ______ ____
ROOT
ATOM      1  N   UNL     1       1.182   6.567  21.111  0.00  0.00    +0.000 N 
ATOM      2  C   UNL     1       1.890   5.512  20.526  0.00  0.00    +0.000 A 
ATOM      3  C   UNL     1       1.785   4.251  21.058  0.00  0.00    +0.000 A 
ATOM      4  C   UNL     1       2.494   3.255  20.427  0.00  0.00    +0.000 A 
ATOM      5  N   UNL     1       3.214   3.444  19.306  0.00  0.00    +0.000 NA
ATOM      6  C   UNL     1       3.196   4.693  18.816  0.00  0.00    +0.000 A 
ATOM      7  N   UNL     1       2.574   5.737  19.398  0.00  0.00    +0.000 NA
ATOM      8  H   UNL     1       0.238   6.538  20.735  0.00  0.00    +0.000 HD
ENDROOT
BRANCH   6   9
ATOM      9  C   UNL     1       3.927   5.000  17.582  0.00  0.00    +0.000 A 
ATOM     10  C   UNL     1       4.217   6.356  17.244  0.00  0.00    +0.000 A 
ATOM     11  C   UNL     1       5.052   6.692  16.177  0.00  0.00    +0.000 A 
ATOM     12  C   UNL     1       5.615   5.652  15.483  0.00  0.00    +0.000 A 
ATOM     13  C   UNL     1       5.304   4.337  15.756  0.00  0.00    +0.000 A 
ATOM     14  C   UNL     1       4.437   3.980  16.765  0.00  0.00    +0.000 A 
ATOM     15  O   UNL     1       6.028   3.474  14.989  0.00  0.00    +0.000 OA
ATOM     16  C   UNL     1       7.022   4.388  14.481  0.00  0.00    +0.000 C 
ATOM     17  O   UNL     1       6.581   5.761  14.529  0.00  0.00    +0.000 OA
ENDBRANCH   6   9
BRANCH   1  18
ATOM     18  C   UNL     1       1.792   7.874  20.863  0.00  0.00    +0.000 C 
BRANCH  18  22
ATOM     19  C   UNL     1      -0.990  11.005  21.921  0.00  0.00    +0.000 A 
ATOM     20  C   UNL     1      -0.431  10.199  22.911  0.00  0.00    +0.000 A 
ATOM     21  C   UNL     1       0.474   9.189  22.574  0.00  0.00    +0.000 A 
ATOM     22  C   UNL     1       0.814   8.963  21.235  0.00  0.00    +0.000 A 
ATOM     23  C   UNL     1       0.243   9.774  20.244  0.00  0.00    +0.000 A 
ATOM     24  C   UNL     1      -0.653  10.792  20.586  0.00  0.00    +0.000 A 
BRANCH  19  26
ATOM     25  C   UNL     1      -1.315  13.002  23.143  0.00  0.00    +0.000 C 
ATOM     26  O   UNL     1      -1.874  11.947  22.373  0.00  0.00    +0.000 OA
ENDBRANCH  19  26
ENDBRANCH  18  22
ENDBRANCH   1  18
TORSDOF 4
ENDMDL
