MODEL 1
REMARK VINA RESULT:      -8.7      0.000      0.000
REMARK  Name = 
REMARK  0 active torsions:
REMARK  status: ('A' for Active; 'I' for Inactive)
REMARK                            x       y       z     vdW  Elec       q    Type
REMARK                         _______ _______ _______ _____ _____    ______ ____
ROOT
ATOM      1  O   UNL     1       7.878   4.755  15.403  0.00  0.00    +0.000 OA
ATOM      2  C   UNL     1       6.732   4.938  15.819  0.00  0.00    +0.000 C 
ATOM      3  C   UNL     1       6.222   4.149  16.982  0.00  0.00    +0.000 C 
ATOM      4  C   UNL     1       4.788   3.774  16.664  0.00  0.00    +0.000 C 
ATOM      5  C   UNL     1       3.954   4.748  17.431  0.00  0.00    +0.000 A 
ATOM      6  C   UNL     1       3.428   4.328  18.658  0.00  0.00    +0.000 A 
ATOM      7  C   UNL     1       2.727   5.128  19.566  0.00  0.00    +0.000 A 
ATOM      8  C   UNL     1       2.532   6.460  19.159  0.00  0.00    +0.000 A 
ATOM      9  C   UNL     1       3.104   6.931  17.998  0.00  0.00    +0.000 A 
ATOM     10  N   UNL     1       2.709   8.270  18.042  0.00  0.00    +0.000 N 
ATOM     11  C   UNL     1       1.924   8.551  19.174  0.00  0.00    +0.000 A 
ATOM     12  C   UNL     1       1.292   9.737  19.604  0.00  0.00    +0.000 A 
ATOM     13  C   UNL     1       0.576   9.723  20.815  0.00  0.00    +0.000 A 
ATOM     14  C   UNL     1       0.494   8.574  21.584  0.00  0.00    +0.000 A 
ATOM     15  C   UNL     1       1.113   7.408  21.145  0.00  0.00    +0.000 A 
ATOM     16  C   UNL     1       1.828   7.376  19.929  0.00  0.00    +0.000 A 
ATOM     17  C   UNL     1       3.901   6.132  17.108  0.00  0.00    +0.000 A 
ATOM     18  C   UNL     1       4.730   6.705  15.940  0.00  0.00    +0.000 C 
ATOM     19  C   UNL     1       5.765   5.883  15.107  0.00  0.00    +0.000 C 
ATOM     20  C   UNL     1       2.412   4.360  20.725  0.00  0.00    +0.000 C 
ATOM     21  O   UNL     1       1.768   4.540  21.751  0.00  0.00    +0.000 OA
ATOM     22  N   UNL     1       3.031   3.174  20.499  0.00  0.00    +0.000 N 
ATOM     23  C   UNL     1       3.574   3.020  19.277  0.00  0.00    +0.000 C 
ATOM     24  O   UNL     1       4.058   1.960  18.895  0.00  0.00    +0.000 OA
ATOM     25  H   UNL     1       2.931   8.964  17.342  0.00  0.00    +0.000 HD
ATOM     26  H   UNL     1       2.967   2.412  21.148  0.00  0.00    +0.000 HD
ENDROOT
TORSDOF 0
ENDMDL
MODEL 2
REMARK VINA RESULT:      -8.1      1.182      1.423
REMARK  Name = 
REMARK  0 active torsions:
REMARK  status: ('A' for Active; 'I' for Inactive)
REMARK                            x       y       z     vdW  Elec       q    Type
REMARK                         _______ _______ _______ _____ _____    ______ ____
ROOT
ATOM      1  O   UNL     1       8.080   4.343  16.702  0.00  0.00    +0.000 OA
ATOM      2  C   UNL     1       6.914   4.728  16.814  0.00  0.00    +0.000 C 
ATOM      3  C   UNL     1       6.108   4.338  18.012  0.00  0.00    +0.000 C 
ATOM      4  C   UNL     1       4.714   4.009  17.516  0.00  0.00    +0.000 C 
ATOM      5  C   UNL     1       3.898   5.222  17.821  0.00  0.00    +0.000 A 
ATOM      6  C   UNL     1       3.115   5.204  18.980  0.00  0.00    +0.000 A 
ATOM      7  C   UNL     1       2.381   6.280  19.491  0.00  0.00    +0.000 A 
ATOM      8  C   UNL     1       2.441   7.457  18.725  0.00  0.00    +0.000 A 
ATOM      9  C   UNL     1       3.264   7.539  17.624  0.00  0.00    +0.000 A 
ATOM     10  N   UNL     1       3.052   8.866  17.241  0.00  0.00    +0.000 N 
ATOM     11  C   UNL     1       2.126   9.513  18.080  0.00  0.00    +0.000 A 
ATOM     12  C   UNL     1       1.594  10.820  18.053  0.00  0.00    +0.000 A 
ATOM     13  C   UNL     1       0.683  11.202  19.055  0.00  0.00    +0.000 A 
ATOM     14  C   UNL     1       0.315  10.323  20.059  0.00  0.00    +0.000 A 
ATOM     15  C   UNL     1       0.838   9.033  20.070  0.00  0.00    +0.000 A 
ATOM     16  C   UNL     1       1.743   8.607  19.074  0.00  0.00    +0.000 A 
ATOM     17  C   UNL     1       4.089   6.462  17.150  0.00  0.00    +0.000 A 
ATOM     18  C   UNL     1       5.178   6.618  16.068  0.00  0.00    +0.000 C 
ATOM     19  C   UNL     1       6.222   5.515  15.703  0.00  0.00    +0.000 C 
ATOM     20  C   UNL     1       1.769   5.892  20.719  0.00  0.00    +0.000 C 
ATOM     21  O   UNL     1       0.986   6.402  21.510  0.00  0.00    +0.000 OA
ATOM     22  N   UNL     1       2.252   4.643  20.934  0.00  0.00    +0.000 N 
ATOM     23  C   UNL     1       2.974   4.111  19.930  0.00  0.00    +0.000 C 
ATOM     24  O   UNL     1       3.370   2.951  19.939  0.00  0.00    +0.000 OA
ATOM     25  H   UNL     1       3.483   9.318  16.448  0.00  0.00    +0.000 HD
ATOM     26  H   UNL     1       1.974   4.099  21.731  0.00  0.00    +0.000 HD
ENDROOT
TORSDOF 0
ENDMDL
MODEL 3
REMARK VINA RESULT:      -7.7      6.367      9.994
REMARK  Name = 
REMARK  0 active torsions:
REMARK  status: ('A' for Active; 'I' for Inactive)
REMARK                            x       y       z     vdW  Elec       q    Type
REMARK                         _______ _______ _______ _____ _____    ______ ____
ROOT
ATOM      1  O   UNL     1      -4.353  12.526  24.939  0.00  0.00    +0.000 OA
ATOM      2  C   UNL     1      -3.895  12.633  23.800  0.00  0.00    +0.000 C 
ATOM      3  C   UNL     1      -2.665  11.876  23.413  0.00  0.00    +0.000 C 
ATOM      4  C   UNL     1      -1.817  12.813  22.576  0.00  0.00    +0.000 C 
ATOM      5  C   UNL     1      -2.068  12.403  21.161  0.00  0.00    +0.000 A 
ATOM      6  C   UNL     1      -1.128  11.565  20.552  0.00  0.00    +0.000 A 
ATOM      7  C   UNL     1      -1.247  10.985  19.285  0.00  0.00    +0.000 A 
ATOM      8  C   UNL     1      -2.418  11.322  18.584  0.00  0.00    +0.000 A 
ATOM      9  C   UNL     1      -3.403  12.077  19.182  0.00  0.00    +0.000 A 
ATOM     10  N   UNL     1      -4.365  12.095  18.169  0.00  0.00    +0.000 N 
ATOM     11  C   UNL     1      -3.938  11.395  17.026  0.00  0.00    +0.000 A 
ATOM     12  C   UNL     1      -4.555  11.182  15.775  0.00  0.00    +0.000 A 
ATOM     13  C   UNL     1      -3.885  10.405  14.812  0.00  0.00    +0.000 A 
ATOM     14  C   UNL     1      -2.646   9.848  15.079  0.00  0.00    +0.000 A 
ATOM     15  C   UNL     1      -2.043  10.073  16.313  0.00  0.00    +0.000 A 
ATOM     16  C   UNL     1      -2.675  10.858  17.300  0.00  0.00    +0.000 A 
ATOM     17  C   UNL     1      -3.321  12.599  20.518  0.00  0.00    +0.000 A 
ATOM     18  C   UNL     1      -4.506  13.241  21.270  0.00  0.00    +0.000 C 
ATOM     19  C   UNL     1      -4.491  13.610  22.788  0.00  0.00    +0.000 C 
ATOM     20  C   UNL     1      -0.120  10.146  19.043  0.00  0.00    +0.000 C 
ATOM     21  O   UNL     1       0.300   9.489  18.099  0.00  0.00    +0.000 OA
ATOM     22  N   UNL     1       0.561  10.182  20.215  0.00  0.00    +0.000 N 
ATOM     23  C   UNL     1       0.106  11.057  21.131  0.00  0.00    +0.000 C 
ATOM     24  O   UNL     1       0.692  11.280  22.185  0.00  0.00    +0.000 OA
ATOM     25  H   UNL     1      -5.255  12.568  18.222  0.00  0.00    +0.000 HD
ATOM     26  H   UNL     1       1.427   9.691  20.339  0.00  0.00    +0.000 HD
ENDROOT
TORSDOF 0
ENDMDL
MODEL 4
REMARK VINA RESULT:      -7.6      6.683      9.627
REMARK  Name = 
REMARK  0 active torsions:
REMARK  status: ('A' for Active; 'I' for Inactive)
REMARK                            x       y       z     vdW  Elec       q    Type
REMARK                         _______ _______ _______ _____ _____    ______ ____
ROOT
ATOM      1  O   UNL     1       0.104   9.631  23.688  0.00  0.00    +0.000 OA
ATOM      2  C   UNL     1      -0.391  10.327  22.799  0.00  0.00    +0.000 C 
ATOM      3  C   UNL     1      -0.415   9.833  21.388  0.00  0.00    +0.000 C 
ATOM      4  C   UNL     1      -0.077  11.016  20.502  0.00  0.00    +0.000 C 
ATOM      5  C   UNL     1      -1.389  11.490  19.970  0.00  0.00    +0.000 A 
ATOM      6  C   UNL     1      -1.758  11.075  18.686  0.00  0.00    +0.000 A 
ATOM      7  C   UNL     1      -2.988  11.317  18.068  0.00  0.00    +0.000 A 
ATOM      8  C   UNL     1      -3.899  12.072  18.829  0.00  0.00    +0.000 A 
ATOM      9  C   UNL     1      -3.604  12.428  20.127  0.00  0.00    +0.000 A 
ATOM     10  N   UNL     1      -4.785  13.080  20.489  0.00  0.00    +0.000 N 
ATOM     11  C   UNL     1      -5.713  13.114  19.432  0.00  0.00    +0.000 A 
ATOM     12  C   UNL     1      -7.000  13.685  19.335  0.00  0.00    +0.000 A 
ATOM     13  C   UNL     1      -7.718  13.538  18.134  0.00  0.00    +0.000 A 
ATOM     14  C   UNL     1      -7.185  12.841  17.063  0.00  0.00    +0.000 A 
ATOM     15  C   UNL     1      -5.910  12.290  17.167  0.00  0.00    +0.000 A 
ATOM     16  C   UNL     1      -5.152  12.428  18.349  0.00  0.00    +0.000 A 
ATOM     17  C   UNL     1      -2.374  12.102  20.794  0.00  0.00    +0.000 A 
ATOM     18  C   UNL     1      -2.134  12.292  22.306  0.00  0.00    +0.000 C 
ATOM     19  C   UNL     1      -0.892  11.743  23.078  0.00  0.00    +0.000 C 
ATOM     20  C   UNL     1      -3.008  10.681  16.792  0.00  0.00    +0.000 C 
ATOM     21  O   UNL     1      -3.780  10.640  15.842  0.00  0.00    +0.000 OA
ATOM     22  N   UNL     1      -1.834  10.005  16.756  0.00  0.00    +0.000 N 
ATOM     23  C   UNL     1      -0.987  10.244  17.774  0.00  0.00    +0.000 C 
ATOM     24  O   UNL     1       0.154   9.794  17.809  0.00  0.00    +0.000 OA
ATOM     25  H   UNL     1      -4.962  13.503  21.388  0.00  0.00    +0.000 HD
ATOM     26  H   UNL     1      -1.556   9.469  15.953  0.00  0.00    +0.000 HD
ENDROOT
TORSDOF 0
ENDMDL
MODEL 5
REMARK VINA RESULT:      -7.5      6.953     10.131
REMARK  Name = 
REMARK  0 active torsions:
REMARK  status: ('A' for Active; 'I' for Inactive)
REMARK                            x       y       z     vdW  Elec       q    Type
REMARK                         _______ _______ _______ _____ _____    ______ ____
ROOT
ATOM      1  O   UNL     1       1.040   9.626  18.853  0.00  0.00    +0.000 OA
ATOM      2  C   UNL     1       0.115  10.421  19.037  0.00  0.00    +0.000 C 
ATOM      3  C   UNL     1      -1.161  10.274  18.273  0.00  0.00    +0.000 C 
ATOM      4  C   UNL     1      -1.601  11.670  17.877  0.00  0.00    +0.000 C 
ATOM      5  C   UNL     1      -2.662  12.036  18.863  0.00  0.00    +0.000 A 
ATOM      6  C   UNL     1      -3.995  11.879  18.469  0.00  0.00    +0.000 A 
ATOM      7  C   UNL     1      -5.117  12.055  19.286  0.00  0.00    +0.000 A 
ATOM      8  C   UNL     1      -4.837  12.453  20.605  0.00  0.00    +0.000 A 
ATOM      9  C   UNL     1      -3.536  12.538  21.051  0.00  0.00    +0.000 A 
ATOM     10  N   UNL     1      -3.746  12.886  22.388  0.00  0.00    +0.000 N 
ATOM     11  C   UNL     1      -5.113  13.016  22.690  0.00  0.00    +0.000 A 
ATOM     12  C   UNL     1      -5.778  13.377  23.881  0.00  0.00    +0.000 A 
ATOM     13  C   UNL     1      -7.185  13.401  23.892  0.00  0.00    +0.000 A 
ATOM     14  C   UNL     1      -7.915  13.069  22.762  0.00  0.00    +0.000 A 
ATOM     15  C   UNL     1      -7.247  12.724  21.590  0.00  0.00    +0.000 A 
ATOM     16  C   UNL     1      -5.838  12.703  21.534  0.00  0.00    +0.000 A 
ATOM     17  C   UNL     1      -2.383  12.269  20.238  0.00  0.00    +0.000 A 
ATOM     18  C   UNL     1      -0.948  12.136  20.788  0.00  0.00    +0.000 C 
ATOM     19  C   UNL     1       0.274  11.631  19.954  0.00  0.00    +0.000 C 
ATOM     20  C   UNL     1      -6.294  11.741  18.544  0.00  0.00    +0.000 C 
ATOM     21  O   UNL     1      -7.500  11.799  18.744  0.00  0.00    +0.000 OA
ATOM     22  N   UNL     1      -5.812  11.292  17.359  0.00  0.00    +0.000 N 
ATOM     23  C   UNL     1      -4.484  11.420  17.178  0.00  0.00    +0.000 C 
ATOM     24  O   UNL     1      -3.932  11.167  16.113  0.00  0.00    +0.000 OA
ATOM     25  H   UNL     1      -3.016  13.053  23.066  0.00  0.00    +0.000 HD
ATOM     26  H   UNL     1      -6.422  11.012  16.612  0.00  0.00    +0.000 HD
ENDROOT
TORSDOF 0
ENDMDL
MODEL 6
REMARK VINA RESULT:      -7.3      2.248      4.525
REMARK  Name = 
REMARK  0 active torsions:
REMARK  status: ('A' for Active; 'I' for Inactive)
REMARK                            x       y       z     vdW  Elec       q    Type
REMARK                         _______ _______ _______ _____ _____    ______ ____
ROOT
ATOM      1  O   UNL     1       2.006   1.379  18.949  0.00  0.00    +0.000 OA
ATOM      2  C   UNL     1       2.225   2.537  19.310  0.00  0.00    +0.000 C 
ATOM      3  C   UNL     1       2.573   3.583  18.299  0.00  0.00    +0.000 C 
ATOM      4  C   UNL     1       3.673   4.432  18.905  0.00  0.00    +0.000 C 
ATOM      5  C   UNL     1       2.985   5.663  19.399  0.00  0.00    +0.000 A 
ATOM      6  C   UNL     1       3.028   6.801  18.587  0.00  0.00    +0.000 A 
ATOM      7  C   UNL     1       2.350   8.002  18.821  0.00  0.00    +0.000 A 
ATOM      8  C   UNL     1       1.591   8.035  20.004  0.00  0.00    +0.000 A 
ATOM      9  C   UNL     1       1.459   6.909  20.786  0.00  0.00    +0.000 A 
ATOM     10  N   UNL     1       0.593   7.383  21.776  0.00  0.00    +0.000 N 
ATOM     11  C   UNL     1       0.260   8.735  21.579  0.00  0.00    +0.000 A 
ATOM     12  C   UNL     1      -0.542   9.619  22.331  0.00  0.00    +0.000 A 
ATOM     13  C   UNL     1      -0.716  10.937  21.869  0.00  0.00    +0.000 A 
ATOM     14  C   UNL     1      -0.123  11.366  20.693  0.00  0.00    +0.000 A 
ATOM     15  C   UNL     1       0.674  10.487  19.965  0.00  0.00    +0.000 A 
ATOM     16  C   UNL     1       0.885   9.163  20.402  0.00  0.00    +0.000 A 
ATOM     17  C   UNL     1       2.082   5.647  20.498  0.00  0.00    +0.000 A 
ATOM     18  C   UNL     1       1.753   4.331  21.233  0.00  0.00    +0.000 C 
ATOM     19  C   UNL     1       2.258   2.921  20.788  0.00  0.00    +0.000 C 
ATOM     20  C   UNL     1       2.592   8.899  17.740  0.00  0.00    +0.000 C 
ATOM     21  O   UNL     1       2.315  10.064  17.485  0.00  0.00    +0.000 OA
ATOM     22  N   UNL     1       3.312   8.154  16.864  0.00  0.00    +0.000 N 
ATOM     23  C   UNL     1       3.702   6.943  17.305  0.00  0.00    +0.000 C 
ATOM     24  O   UNL     1       4.455   6.216  16.667  0.00  0.00    +0.000 OA
ATOM     25  H   UNL     1       0.255   6.842  22.559  0.00  0.00    +0.000 HD
ATOM     26  H   UNL     1       3.650   8.535  15.999  0.00  0.00    +0.000 HD
ENDROOT
TORSDOF 0
ENDMDL
MODEL 7
REMARK VINA RESULT:      -7.1      2.793      5.149
REMARK  Name = 
REMARK  0 active torsions:
REMARK  status: ('A' for Active; 'I' for Inactive)
REMARK                            x       y       z     vdW  Elec       q    Type
REMARK                         _______ _______ _______ _____ _____    ______ ____
ROOT
ATOM      1  O   UNL     1       1.653   2.676  18.366  0.00  0.00    +0.000 OA
ATOM      2  C   UNL     1       1.841   3.780  18.881  0.00  0.00    +0.000 C 
ATOM      3  C   UNL     1       1.989   4.993  18.019  0.00  0.00    +0.000 C 
ATOM      4  C   UNL     1       3.100   5.829  18.622  0.00  0.00    +0.000 C 
ATOM      5  C   UNL     1       2.403   6.908  19.385  0.00  0.00    +0.000 A 
ATOM      6  C   UNL     1       2.268   8.156  18.768  0.00  0.00    +0.000 A 
ATOM      7  C   UNL     1       1.550   9.246  19.270  0.00  0.00    +0.000 A 
ATOM      8  C   UNL     1       0.948   9.035  20.523  0.00  0.00    +0.000 A 
ATOM      9  C   UNL     1       0.989   7.795  21.122  0.00  0.00    +0.000 A 
ATOM     10  N   UNL     1       0.228   8.039  22.269  0.00  0.00    +0.000 N 
ATOM     11  C   UNL     1      -0.215   9.372  22.333  0.00  0.00    +0.000 A 
ATOM     12  C   UNL     1      -0.969  10.062  23.306  0.00  0.00    +0.000 A 
ATOM     13  C   UNL     1      -1.286  11.415  23.086  0.00  0.00    +0.000 A 
ATOM     14  C   UNL     1      -0.876  12.066  21.934  0.00  0.00    +0.000 A 
ATOM     15  C   UNL     1      -0.124  11.379  20.986  0.00  0.00    +0.000 A 
ATOM     16  C   UNL     1       0.226  10.026  21.177  0.00  0.00    +0.000 A 
ATOM     17  C   UNL     1       1.650   6.649  20.564  0.00  0.00    +0.000 A 
ATOM     18  C   UNL     1       1.504   5.214  21.110  0.00  0.00    +0.000 C 
ATOM     19  C   UNL     1       2.038   3.936  20.387  0.00  0.00    +0.000 C 
ATOM     20  C   UNL     1       1.593  10.314  18.327  0.00  0.00    +0.000 C 
ATOM     21  O   UNL     1       1.212  11.478  18.298  0.00  0.00    +0.000 OA
ATOM     22  N   UNL     1       2.242   9.775  17.265  0.00  0.00    +0.000 N 
ATOM     23  C   UNL     1       2.762   8.548  17.456  0.00  0.00    +0.000 C 
ATOM     24  O   UNL     1       3.473   7.992  16.627  0.00  0.00    +0.000 OA
ATOM     25  H   UNL     1       0.028   7.359  22.988  0.00  0.00    +0.000 HD
ATOM     26  H   UNL     1       2.442  10.310  16.440  0.00  0.00    +0.000 HD
ENDROOT
TORSDOF 0
ENDMDL
MODEL 8
REMARK VINA RESULT:      -7.1      4.811      7.895
REMARK  Name = 
REMARK  0 active torsions:
REMARK  status: ('A' for Active; 'I' for Inactive)
REMARK                            x       y       z     vdW  Elec       q    Type
REMARK                         _______ _______ _______ _____ _____    ______ ____
ROOT
ATOM      1  O   UNL     1       2.291   6.677  20.056  0.00  0.00    +0.000 OA
ATOM      2  C   UNL     1       1.874   7.797  19.751  0.00  0.00    +0.000 C 
ATOM      3  C   UNL     1       1.285   8.687  20.798  0.00  0.00    +0.000 C 
ATOM      4  C   UNL     1       0.075   9.356  20.176  0.00  0.00    +0.000 C 
ATOM      5  C   UNL     1       0.540  10.724  19.799  0.00  0.00    +0.000 A 
ATOM      6  C   UNL     1       0.241  11.776  20.672  0.00  0.00    +0.000 A 
ATOM      7  C   UNL     1       0.689  13.095  20.550  0.00  0.00    +0.000 A 
ATOM      8  C   UNL     1       1.486  13.351  19.420  0.00  0.00    +0.000 A 
ATOM      9  C   UNL     1       1.869  12.326  18.583  0.00  0.00    +0.000 A 
ATOM     10  N   UNL     1       2.677  13.020  17.679  0.00  0.00    +0.000 N 
ATOM     11  C   UNL     1       2.737  14.394  17.974  0.00  0.00    +0.000 A 
ATOM     12  C   UNL     1       3.392  15.462  17.326  0.00  0.00    +0.000 A 
ATOM     13  C   UNL     1       3.290  16.754  17.875  0.00  0.00    +0.000 A 
ATOM     14  C   UNL     1       2.568  16.983  19.035  0.00  0.00    +0.000 A 
ATOM     15  C   UNL     1       1.918  15.922  19.660  0.00  0.00    +0.000 A 
ATOM     16  C   UNL     1       1.984  14.615  19.133  0.00  0.00    +0.000 A 
ATOM     17  C   UNL     1       1.483  10.953  18.758  0.00  0.00    +0.000 A 
ATOM     18  C   UNL     1       2.092   9.776  17.969  0.00  0.00    +0.000 C 
ATOM     19  C   UNL     1       1.843   8.269  18.299  0.00  0.00    +0.000 C 
ATOM     20  C   UNL     1       0.229  13.854  21.665  0.00  0.00    +0.000 C 
ATOM     21  O   UNL     1       0.266  15.030  22.004  0.00  0.00    +0.000 OA
ATOM     22  N   UNL     1      -0.380  12.930  22.450  0.00  0.00    +0.000 N 
ATOM     23  C   UNL     1      -0.510  11.701  21.915  0.00  0.00    +0.000 C 
ATOM     24  O   UNL     1      -1.142  10.803  22.462  0.00  0.00    +0.000 OA
ATOM     25  H   UNL     1       3.150  12.608  16.888  0.00  0.00    +0.000 HD
ATOM     26  H   UNL     1      -0.826  13.180  23.313  0.00  0.00    +0.000 HD
ENDROOT
TORSDOF 0
ENDMDL
MODEL 9
REMARK VINA RESULT:      -6.9      2.008      4.080
REMARK  Name = 
REMARK  0 active torsions:
REMARK  status: ('A' for Active; 'I' for Inactive)
REMARK                            x       y       z     vdW  Elec       q    Type
REMARK                         _______ _______ _______ _____ _____    ______ ____
ROOT
ATOM      1  O   UNL     1       3.630   0.864  18.565  0.00  0.00    +0.000 OA
ATOM      2  C   UNL     1       3.664   2.040  18.934  0.00  0.00    +0.000 C 
ATOM      3  C   UNL     1       3.859   3.134  17.934  0.00  0.00    +0.000 C 
ATOM      4  C   UNL     1       4.808   4.137  18.558  0.00  0.00    +0.000 C 
ATOM      5  C   UNL     1       3.934   5.244  19.050  0.00  0.00    +0.000 A 
ATOM      6  C   UNL     1       3.811   6.382  18.245  0.00  0.00    +0.000 A 
ATOM      7  C   UNL     1       2.954   7.462  18.477  0.00  0.00    +0.000 A 
ATOM      8  C   UNL     1       2.185   7.370  19.651  0.00  0.00    +0.000 A 
ATOM      9  C   UNL     1       2.218   6.231  20.425  0.00  0.00    +0.000 A 
ATOM     10  N   UNL     1       1.279   6.559  21.406  0.00  0.00    +0.000 N 
ATOM     11  C   UNL     1       0.744   7.845  21.212  0.00  0.00    +0.000 A 
ATOM     12  C   UNL     1      -0.193   8.591  21.959  0.00  0.00    +0.000 A 
ATOM     13  C   UNL     1      -0.562   9.869  21.502  0.00  0.00    +0.000 A 
ATOM     14  C   UNL     1      -0.028  10.393  20.336  0.00  0.00    +0.000 A 
ATOM     15  C   UNL     1       0.903   9.652  19.613  0.00  0.00    +0.000 A 
ATOM     16  C   UNL     1       1.310   8.373  20.046  0.00  0.00    +0.000 A 
ATOM     17  C   UNL     1       3.031   5.082  20.137  0.00  0.00    +0.000 A 
ATOM     18  C   UNL     1       2.900   3.726  20.861  0.00  0.00    +0.000 C 
ATOM     19  C   UNL     1       3.620   2.413  20.415  0.00  0.00    +0.000 C 
ATOM     20  C   UNL     1       3.067   8.393  17.404  0.00  0.00    +0.000 C 
ATOM     21  O   UNL     1       2.618   9.504  17.152  0.00  0.00    +0.000 OA
ATOM     22  N   UNL     1       3.904   7.775  16.533  0.00  0.00    +0.000 N 
ATOM     23  C   UNL     1       4.470   6.635  16.972  0.00  0.00    +0.000 C 
ATOM     24  O   UNL     1       5.333   6.036  16.340  0.00  0.00    +0.000 OA
ATOM     25  H   UNL     1       1.019   5.968  22.181  0.00  0.00    +0.000 HD
ATOM     26  H   UNL     1       4.189   8.209  15.675  0.00  0.00    +0.000 HD
ENDROOT
TORSDOF 0
ENDMDL
