MODEL 1
REMARK VINA RESULT:      -9.7      0.000      0.000
REMARK  Name = 
REMARK  2 active torsions:
REMARK  status: ('A' for Active; 'I' for Inactive)
REMARK    1  A    between atoms: C_2  and  C_3
REMARK    2  A    between atoms: C_24  and  C_25
REMARK                            x       y       z     vdW  Elec       q    Type
REMARK                         _______ _______ _______ _____ _____    ______ ____
ROOT
ATOM      1  O   UNL     1       4.449   7.328  17.854  0.00  0.00    +0.000 OA
ATOM      2  C   UNL     1       3.362   6.783  18.039  0.00  0.00    +0.000 C 
ATOM      3  N   UNL     1       3.149   5.450  17.683  0.00  0.00    +0.000 N 
ATOM      4  C   UNL     1       1.925   4.669  17.829  0.00  0.00    +0.000 C 
ATOM      5  C   UNL     1       2.367   3.302  18.314  0.00  0.00    +0.000 C 
ATOM      6  C   UNL     1       3.714   3.133  17.653  0.00  0.00    +0.000 C 
ATOM      7  C   UNL     1       4.314   4.554  17.685  0.00  0.00    +0.000 C 
ENDROOT
BRANCH   2   8
ATOM      8  C   UNL     1       2.361   7.554  18.850  0.00  0.00    +0.000 A 
ATOM      9  C   UNL     1       2.145   7.451  20.228  0.00  0.00    +0.000 A 
ATOM     10  C   UNL     1       1.278   8.347  20.881  0.00  0.00    +0.000 A 
ATOM     11  C   UNL     1       0.547   9.286  20.137  0.00  0.00    +0.000 A 
ATOM     12  C   UNL     1      -0.386  10.252  20.751  0.00  0.00    +0.000 A 
ATOM     13  O   UNL     1      -0.405  10.315  21.981  0.00  0.00    +0.000 OA
ATOM     14  N   UNL     1      -1.219  11.035  19.898  0.00  0.00    +0.000 N 
ATOM     15  C   UNL     1      -1.150  10.742  18.518  0.00  0.00    +0.000 A 
ATOM     16  N   UNL     1      -0.230  10.012  17.974  0.00  0.00    +0.000 NA
ATOM     17  C   UNL     1       0.648   9.296  18.764  0.00  0.00    +0.000 A 
ATOM     18  C   UNL     1       1.566   8.458  18.127  0.00  0.00    +0.000 A 
ATOM     19  C   UNL     1      -2.213  11.155  17.457  0.00  0.00    +0.000 C 
ATOM     20  C   UNL     1      -3.378  11.450  18.298  0.00  0.00    +0.000 C 
ATOM     21  C   UNL     1      -4.611  12.271  18.336  0.00  0.00    +0.000 C 
ATOM     22  C   UNL     1      -4.616  12.733  19.834  0.00  0.00    +0.000 C 
ATOM     23  C   UNL     1      -3.188  13.110  20.425  0.00  0.00    +0.000 C 
ATOM     24  C   UNL     1      -2.149  11.934  20.782  0.00  0.00    +0.000 C 
ENDBRANCH   2   8
BRANCH   7  25
ATOM     25  C   UNL     1       5.379   4.663  16.616  0.00  0.00    +0.000 A 
ATOM     26  C   UNL     1       6.447   5.570  16.620  0.00  0.00    +0.000 A 
ATOM     27  C   UNL     1       7.282   5.687  15.496  0.00  0.00    +0.000 A 
ATOM     28  C   UNL     1       7.041   4.920  14.356  0.00  0.00    +0.000 A 
ATOM     29  C   UNL     1       6.044   3.953  14.386  0.00  0.00    +0.000 A 
ATOM     30  C   UNL     1       5.227   3.821  15.498  0.00  0.00    +0.000 A 
ATOM     31  O   UNL     1       5.794   3.125  13.326  0.00  0.00    +0.000 OA
ATOM     32  C   UNL     1       5.925   3.894  12.137  0.00  0.00    +0.000 C 
ATOM     33  C   UNL     1       7.291   4.568  12.039  0.00  0.00    +0.000 C 
ATOM     34  O   UNL     1       7.778   5.189  13.238  0.00  0.00    +0.000 OA
ENDBRANCH   7  25
TORSDOF 2
ENDMDL
MODEL 2
REMARK VINA RESULT:      -9.3      1.030      1.201
REMARK  Name = 
REMARK  2 active torsions:
REMARK  status: ('A' for Active; 'I' for Inactive)
REMARK    1  A    between atoms: C_2  and  C_3
REMARK    2  A    between atoms: C_24  and  C_25
REMARK                            x       y       z     vdW  Elec       q    Type
REMARK                         _______ _______ _______ _____ _____    ______ ____
ROOT
ATOM      1  O   UNL     1       4.471   6.903  18.538  0.00  0.00    +0.000 OA
ATOM      2  C   UNL     1       3.330   6.442  18.539  0.00  0.00    +0.000 C 
ATOM      3  N   UNL     1       3.028   5.254  17.871  0.00  0.00    +0.000 N 
ATOM      4  C   UNL     1       1.734   4.587  17.773  0.00  0.00    +0.000 C 
ATOM      5  C   UNL     1       2.021   3.107  17.945  0.00  0.00    +0.000 C 
ATOM      6  C   UNL     1       3.391   2.961  17.326  0.00  0.00    +0.000 C 
ATOM      7  C   UNL     1       4.107   4.269  17.718  0.00  0.00    +0.000 C 
ENDROOT
BRANCH   2   8
ATOM      8  C   UNL     1       2.346   7.103  19.460  0.00  0.00    +0.000 A 
ATOM      9  C   UNL     1       1.825   6.573  20.645  0.00  0.00    +0.000 A 
ATOM     10  C   UNL     1       1.026   7.369  21.489  0.00  0.00    +0.000 A 
ATOM     11  C   UNL     1       0.667   8.667  21.097  0.00  0.00    +0.000 A 
ATOM     12  C   UNL     1      -0.173   9.557  21.926  0.00  0.00    +0.000 A 
ATOM     13  O   UNL     1      -0.442   9.177  23.066  0.00  0.00    +0.000 OA
ATOM     14  N   UNL     1      -0.638  10.780  21.360  0.00  0.00    +0.000 N 
ATOM     15  C   UNL     1      -0.332  10.994  19.997  0.00  0.00    +0.000 A 
ATOM     16  N   UNL     1       0.525  10.295  19.325  0.00  0.00    +0.000 NA
ATOM     17  C   UNL     1       1.059   9.142  19.866  0.00  0.00    +0.000 A 
ATOM     18  C   UNL     1       1.913   8.380  19.066  0.00  0.00    +0.000 A 
ATOM     19  C   UNL     1      -1.044  12.021  19.067  0.00  0.00    +0.000 C 
ATOM     20  C   UNL     1      -2.282  12.288  19.805  0.00  0.00    +0.000 C 
ATOM     21  C   UNL     1      -3.313  13.330  20.016  0.00  0.00    +0.000 C 
ATOM     22  C   UNL     1      -3.550  13.210  21.560  0.00  0.00    +0.000 C 
ATOM     23  C   UNL     1      -2.237  12.964  22.423  0.00  0.00    +0.000 C 
ATOM     24  C   UNL     1      -1.544  11.512  22.407  0.00  0.00    +0.000 C 
ENDBRANCH   2   8
BRANCH   7  25
ATOM     25  C   UNL     1       5.249   4.513  16.755  0.00  0.00    +0.000 A 
ATOM     26  C   UNL     1       6.248   5.483  16.906  0.00  0.00    +0.000 A 
ATOM     27  C   UNL     1       7.165   5.723  15.868  0.00  0.00    +0.000 A 
ATOM     28  C   UNL     1       7.074   5.015  14.669  0.00  0.00    +0.000 A 
ATOM     29  C   UNL     1       6.148   3.986  14.556  0.00  0.00    +0.000 A 
ATOM     30  C   UNL     1       5.251   3.733  15.582  0.00  0.00    +0.000 A 
ATOM     31  O   UNL     1       6.046   3.212  13.433  0.00  0.00    +0.000 OA
ATOM     32  C   UNL     1       6.224   4.060  12.306  0.00  0.00    +0.000 C 
ATOM     33  C   UNL     1       7.543   4.825  12.367  0.00  0.00    +0.000 C 
ATOM     34  O   UNL     1       7.883   5.400  13.638  0.00  0.00    +0.000 OA
ENDBRANCH   7  25
TORSDOF 2
ENDMDL
MODEL 3
REMARK VINA RESULT:      -9.3      2.939     11.378
REMARK  Name = 
REMARK  2 active torsions:
REMARK  status: ('A' for Active; 'I' for Inactive)
REMARK    1  A    between atoms: C_2  and  C_3
REMARK    2  A    between atoms: C_24  and  C_25
REMARK                            x       y       z     vdW  Elec       q    Type
REMARK                         _______ _______ _______ _____ _____    ______ ____
ROOT
ATOM      1  O   UNL     1       0.725  11.448  21.838  0.00  0.00    +0.000 OA
ATOM      2  C   UNL     1       0.092  10.969  20.899  0.00  0.00    +0.000 C 
ATOM      3  N   UNL     1      -1.146  11.490  20.519  0.00  0.00    +0.000 N 
ATOM      4  C   UNL     1      -2.017  11.032  19.441  0.00  0.00    +0.000 C 
ATOM      5  C   UNL     1      -2.540  12.290  18.774  0.00  0.00    +0.000 C 
ATOM      6  C   UNL     1      -2.622  13.266  19.924  0.00  0.00    +0.000 C 
ATOM      7  C   UNL     1      -1.394  12.913  20.787  0.00  0.00    +0.000 C 
ENDROOT
BRANCH   2   8
ATOM      8  C   UNL     1       0.810   9.948  20.065  0.00  0.00    +0.000 A 
ATOM      9  C   UNL     1       1.320  10.132  18.776  0.00  0.00    +0.000 A 
ATOM     10  C   UNL     1       2.106   9.131  18.173  0.00  0.00    +0.000 A 
ATOM     11  C   UNL     1       2.298   7.902  18.821  0.00  0.00    +0.000 A 
ATOM     12  C   UNL     1       3.103   6.804  18.247  0.00  0.00    +0.000 A 
ATOM     13  O   UNL     1       3.739   7.048  17.222  0.00  0.00    +0.000 OA
ATOM     14  N   UNL     1       3.082   5.532  18.892  0.00  0.00    +0.000 N 
ATOM     15  C   UNL     1       2.199   5.402  19.988  0.00  0.00    +0.000 A 
ATOM     16  N   UNL     1       1.619   6.398  20.577  0.00  0.00    +0.000 NA
ATOM     17  C   UNL     1       1.678   7.662  20.027  0.00  0.00    +0.000 A 
ATOM     18  C   UNL     1       0.963   8.684  20.657  0.00  0.00    +0.000 A 
ATOM     19  C   UNL     1       1.704   4.052  20.588  0.00  0.00    +0.000 C 
ATOM     20  C   UNL     1       1.996   3.114  19.499  0.00  0.00    +0.000 C 
ATOM     21  C   UNL     1       2.312   1.691  19.239  0.00  0.00    +0.000 C 
ATOM     22  C   UNL     1       3.410   1.826  18.129  0.00  0.00    +0.000 C 
ATOM     23  C   UNL     1       4.440   3.019  18.345  0.00  0.00    +0.000 C 
ATOM     24  C   UNL     1       3.962   4.531  18.069  0.00  0.00    +0.000 C 
ENDBRANCH   2   8
BRANCH   7  25
ATOM     25  C   UNL     1      -1.625  13.408  22.198  0.00  0.00    +0.000 A 
ATOM     26  C   UNL     1      -2.709  13.062  23.015  0.00  0.00    +0.000 A 
ATOM     27  C   UNL     1      -2.903  13.709  24.248  0.00  0.00    +0.000 A 
ATOM     28  C   UNL     1      -2.031  14.718  24.659  0.00  0.00    +0.000 A 
ATOM     29  C   UNL     1      -0.903  14.994  23.897  0.00  0.00    +0.000 A 
ATOM     30  C   UNL     1      -0.698  14.348  22.688  0.00  0.00    +0.000 A 
ATOM     31  O   UNL     1       0.023  15.928  24.271  0.00  0.00    +0.000 OA
ATOM     32  C   UNL     1      -0.677  17.033  24.828  0.00  0.00    +0.000 C 
ATOM     33  C   UNL     1      -1.581  16.614  25.985  0.00  0.00    +0.000 C 
ATOM     34  O   UNL     1      -2.356  15.424  25.782  0.00  0.00    +0.000 OA
ENDBRANCH   7  25
TORSDOF 2
ENDMDL
MODEL 4
REMARK VINA RESULT:      -9.2      3.306     11.437
REMARK  Name = 
REMARK  2 active torsions:
REMARK  status: ('A' for Active; 'I' for Inactive)
REMARK    1  A    between atoms: C_2  and  C_3
REMARK    2  A    between atoms: C_24  and  C_25
REMARK                            x       y       z     vdW  Elec       q    Type
REMARK                         _______ _______ _______ _____ _____    ______ ____
ROOT
ATOM      1  O   UNL     1      -0.868  11.068  20.846  0.00  0.00    +0.000 OA
ATOM      2  C   UNL     1       0.158  11.363  20.235  0.00  0.00    +0.000 C 
ATOM      3  N   UNL     1       0.718  12.637  20.332  0.00  0.00    +0.000 N 
ATOM      4  C   UNL     1       1.917  13.141  19.668  0.00  0.00    +0.000 C 
ATOM      5  C   UNL     1       2.651  13.959  20.713  0.00  0.00    +0.000 C 
ATOM      6  C   UNL     1       1.524  14.528  21.542  0.00  0.00    +0.000 C 
ATOM      7  C   UNL     1       0.487  13.387  21.574  0.00  0.00    +0.000 C 
ENDROOT
BRANCH   2   8
ATOM      8  C   UNL     1       0.877  10.232  19.558  0.00  0.00    +0.000 A 
ATOM      9  C   UNL     1       1.454  10.253  18.285  0.00  0.00    +0.000 A 
ATOM     10  C   UNL     1       2.232   9.167  17.838  0.00  0.00    +0.000 A 
ATOM     11  C   UNL     1       2.349   8.014  18.630  0.00  0.00    +0.000 A 
ATOM     12  C   UNL     1       3.140   6.835  18.224  0.00  0.00    +0.000 A 
ATOM     13  O   UNL     1       3.832   6.940  17.211  0.00  0.00    +0.000 OA
ATOM     14  N   UNL     1       3.044   5.646  19.006  0.00  0.00    +0.000 N 
ATOM     15  C   UNL     1       2.107   5.667  20.063  0.00  0.00    +0.000 A 
ATOM     16  N   UNL     1       1.535   6.741  20.506  0.00  0.00    +0.000 NA
ATOM     17  C   UNL     1       1.664   7.932  19.821  0.00  0.00    +0.000 A 
ATOM     18  C   UNL     1       0.958   9.039  20.295  0.00  0.00    +0.000 A 
ATOM     19  C   UNL     1       1.536   4.410  20.785  0.00  0.00    +0.000 C 
ATOM     20  C   UNL     1       1.845   3.346  19.824  0.00  0.00    +0.000 C 
ATOM     21  C   UNL     1       2.123   1.893  19.742  0.00  0.00    +0.000 C 
ATOM     22  C   UNL     1       3.277   1.869  18.681  0.00  0.00    +0.000 C 
ATOM     23  C   UNL     1       4.336   3.047  18.814  0.00  0.00    +0.000 C 
ATOM     24  C   UNL     1       3.926   4.531  18.347  0.00  0.00    +0.000 C 
ENDBRANCH   2   8
BRANCH   7  25
ATOM     25  C   UNL     1      -0.875  13.969  21.886  0.00  0.00    +0.000 A 
ATOM     26  C   UNL     1      -1.756  14.527  20.951  0.00  0.00    +0.000 A 
ATOM     27  C   UNL     1      -2.925  15.180  21.380  0.00  0.00    +0.000 A 
ATOM     28  C   UNL     1      -3.205  15.301  22.742  0.00  0.00    +0.000 A 
ATOM     29  C   UNL     1      -2.384  14.665  23.664  0.00  0.00    +0.000 A 
ATOM     30  C   UNL     1      -1.239  14.005  23.246  0.00  0.00    +0.000 A 
ATOM     31  O   UNL     1      -2.634  14.692  25.009  0.00  0.00    +0.000 OA
ATOM     32  C   UNL     1      -3.100  15.994  25.336  0.00  0.00    +0.000 C 
ATOM     33  C   UNL     1      -4.321  16.390  24.509  0.00  0.00    +0.000 C 
ATOM     34  O   UNL     1      -4.263  16.084  23.108  0.00  0.00    +0.000 OA
ENDBRANCH   7  25
TORSDOF 2
ENDMDL
MODEL 5
REMARK VINA RESULT:      -9.2      3.252     11.208
REMARK  Name = 
REMARK  2 active torsions:
REMARK  status: ('A' for Active; 'I' for Inactive)
REMARK    1  A    between atoms: C_2  and  C_3
REMARK    2  A    between atoms: C_24  and  C_25
REMARK                            x       y       z     vdW  Elec       q    Type
REMARK                         _______ _______ _______ _____ _____    ______ ____
ROOT
ATOM      1  O   UNL     1      -0.705  11.011  21.503  0.00  0.00    +0.000 OA
ATOM      2  C   UNL     1       0.080  11.375  20.629  0.00  0.00    +0.000 C 
ATOM      3  N   UNL     1       0.440  12.717  20.493  0.00  0.00    +0.000 N 
ATOM      4  C   UNL     1       1.344  13.306  19.510  0.00  0.00    +0.000 C 
ATOM      5  C   UNL     1       2.176  14.319  20.272  0.00  0.00    +0.000 C 
ATOM      6  C   UNL     1       1.212  14.814  21.325  0.00  0.00    +0.000 C 
ATOM      7  C   UNL     1       0.406  13.554  21.700  0.00  0.00    +0.000 C 
ENDROOT
BRANCH   2   8
ATOM      8  C   UNL     1       0.779  10.288  19.867  0.00  0.00    +0.000 A 
ATOM      9  C   UNL     1       1.302  10.379  18.573  0.00  0.00    +0.000 A 
ATOM     10  C   UNL     1       2.069   9.325  18.040  0.00  0.00    +0.000 A 
ATOM     11  C   UNL     1       2.227   8.134  18.766  0.00  0.00    +0.000 A 
ATOM     12  C   UNL     1       3.010   6.984  18.268  0.00  0.00    +0.000 A 
ATOM     13  O   UNL     1       3.659   7.148  17.235  0.00  0.00    +0.000 OA
ATOM     14  N   UNL     1       2.955   5.756  18.991  0.00  0.00    +0.000 N 
ATOM     15  C   UNL     1       2.062   5.715  20.086  0.00  0.00    +0.000 A 
ATOM     16  N   UNL     1       1.501   6.759  20.607  0.00  0.00    +0.000 NA
ATOM     17  C   UNL     1       1.593   7.985  19.979  0.00  0.00    +0.000 A 
ATOM     18  C   UNL     1       0.899   9.060  20.538  0.00  0.00    +0.000 A 
ATOM     19  C   UNL     1       1.531   4.417  20.765  0.00  0.00    +0.000 C 
ATOM     20  C   UNL     1       1.808   3.406  19.739  0.00  0.00    +0.000 C 
ATOM     21  C   UNL     1       2.093   1.963  19.571  0.00  0.00    +0.000 C 
ATOM     22  C   UNL     1       3.202   2.003  18.464  0.00  0.00    +0.000 C 
ATOM     23  C   UNL     1       4.257   3.184  18.613  0.00  0.00    +0.000 C 
ATOM     24  C   UNL     1       3.817   4.685  18.240  0.00  0.00    +0.000 C 
ENDBRANCH   2   8
BRANCH   7  25
ATOM     25  C   UNL     1      -0.911  13.977  22.314  0.00  0.00    +0.000 A 
ATOM     26  C   UNL     1      -1.198  14.006  23.685  0.00  0.00    +0.000 A 
ATOM     27  C   UNL     1      -2.507  14.263  24.130  0.00  0.00    +0.000 A 
ATOM     28  C   UNL     1      -3.536  14.466  23.210  0.00  0.00    +0.000 A 
ATOM     29  C   UNL     1      -3.235  14.533  21.856  0.00  0.00    +0.000 A 
ATOM     30  C   UNL     1      -1.944  14.297  21.412  0.00  0.00    +0.000 A 
ATOM     31  O   UNL     1      -4.186  14.788  20.906  0.00  0.00    +0.000 OA
ATOM     32  C   UNL     1      -5.369  14.095  21.280  0.00  0.00    +0.000 C 
ATOM     33  C   UNL     1      -5.834  14.471  22.684  0.00  0.00    +0.000 C 
ATOM     34  O   UNL     1      -4.813  14.548  23.690  0.00  0.00    +0.000 OA
ENDBRANCH   7  25
TORSDOF 2
ENDMDL
MODEL 6
REMARK VINA RESULT:      -9.1      2.510     10.883
REMARK  Name = 
REMARK  2 active torsions:
REMARK  status: ('A' for Active; 'I' for Inactive)
REMARK    1  A    between atoms: C_2  and  C_3
REMARK    2  A    between atoms: C_24  and  C_25
REMARK                            x       y       z     vdW  Elec       q    Type
REMARK                         _______ _______ _______ _____ _____    ______ ____
ROOT
ATOM      1  O   UNL     1       1.035  10.834  21.696  0.00  0.00    +0.000 OA
ATOM      2  C   UNL     1       0.496  10.186  20.801  0.00  0.00    +0.000 C 
ATOM      3  N   UNL     1      -0.529  10.732  20.028  0.00  0.00    +0.000 N 
ATOM      4  C   UNL     1      -1.270  10.095  18.943  0.00  0.00    +0.000 C 
ATOM      5  C   UNL     1      -1.410  11.153  17.866  0.00  0.00    +0.000 C 
ATOM      6  C   UNL     1      -1.501  12.431  18.665  0.00  0.00    +0.000 C 
ATOM      7  C   UNL     1      -0.537  12.190  19.844  0.00  0.00    +0.000 C 
ENDROOT
BRANCH   2   8
ATOM      8  C   UNL     1       1.136   8.873  20.452  0.00  0.00    +0.000 A 
ATOM      9  C   UNL     1       1.107   7.702  21.215  0.00  0.00    +0.000 A 
ATOM     10  C   UNL     1       1.621   6.499  20.693  0.00  0.00    +0.000 A 
ATOM     11  C   UNL     1       2.255   6.492  19.441  0.00  0.00    +0.000 A 
ATOM     12  C   UNL     1       2.824   5.272  18.833  0.00  0.00    +0.000 A 
ATOM     13  O   UNL     1       2.598   4.201  19.398  0.00  0.00    +0.000 OA
ATOM     14  N   UNL     1       3.612   5.401  17.651  0.00  0.00    +0.000 N 
ATOM     15  C   UNL     1       3.867   6.719  17.211  0.00  0.00    +0.000 A 
ATOM     16  N   UNL     1       3.246   7.766  17.652  0.00  0.00    +0.000 NA
ATOM     17  C   UNL     1       2.414   7.671  18.749  0.00  0.00    +0.000 A 
ATOM     18  C   UNL     1       1.836   8.846  19.235  0.00  0.00    +0.000 A 
ATOM     19  C   UNL     1       4.995   7.133  16.219  0.00  0.00    +0.000 C 
ATOM     20  C   UNL     1       5.889   5.972  16.278  0.00  0.00    +0.000 C 
ATOM     21  C   UNL     1       6.883   5.224  15.475  0.00  0.00    +0.000 C 
ATOM     22  C   UNL     1       6.507   3.745  15.834  0.00  0.00    +0.000 C 
ATOM     23  C   UNL     1       4.947   3.458  15.947  0.00  0.00    +0.000 C 
ATOM     24  C   UNL     1       4.141   3.986  17.236  0.00  0.00    +0.000 C 
ENDBRANCH   2   8
BRANCH   7  25
ATOM     25  C   UNL     1      -0.912  13.113  20.984  0.00  0.00    +0.000 A 
ATOM     26  C   UNL     1      -0.048  14.011  21.622  0.00  0.00    +0.000 A 
ATOM     27  C   UNL     1      -0.466  14.702  22.773  0.00  0.00    +0.000 A 
ATOM     28  C   UNL     1      -1.737  14.480  23.304  0.00  0.00    +0.000 A 
ATOM     29  C   UNL     1      -2.628  13.666  22.618  0.00  0.00    +0.000 A 
ATOM     30  C   UNL     1      -2.227  12.994  21.473  0.00  0.00    +0.000 A 
ATOM     31  O   UNL     1      -3.909  13.453  23.050  0.00  0.00    +0.000 OA
ATOM     32  C   UNL     1      -3.874  13.339  24.466  0.00  0.00    +0.000 C 
ATOM     33  C   UNL     1      -3.233  14.557  25.124  0.00  0.00    +0.000 C 
ATOM     34  O   UNL     1      -2.033  15.050  24.510  0.00  0.00    +0.000 OA
ENDBRANCH   7  25
TORSDOF 2
ENDMDL
MODEL 7
REMARK VINA RESULT:      -9.1      3.131     11.374
REMARK  Name = 
REMARK  2 active torsions:
REMARK  status: ('A' for Active; 'I' for Inactive)
REMARK    1  A    between atoms: C_2  and  C_3
REMARK    2  A    between atoms: C_24  and  C_25
REMARK                            x       y       z     vdW  Elec       q    Type
REMARK                         _______ _______ _______ _____ _____    ______ ____
ROOT
ATOM      1  O   UNL     1      -0.868  10.887  21.656  0.00  0.00    +0.000 OA
ATOM      2  C   UNL     1      -0.553  11.172  20.501  0.00  0.00    +0.000 C 
ATOM      3  N   UNL     1      -0.836  12.427  19.962  0.00  0.00    +0.000 N 
ATOM      4  C   UNL     1      -0.538  12.912  18.618  0.00  0.00    +0.000 C 
ATOM      5  C   UNL     1      -0.050  14.337  18.794  0.00  0.00    +0.000 C 
ATOM      6  C   UNL     1      -0.838  14.812  19.992  0.00  0.00    +0.000 C 
ATOM      7  C   UNL     1      -0.918  13.562  20.892  0.00  0.00    +0.000 C 
ENDROOT
BRANCH   2   8
ATOM      8  C   UNL     1       0.326  10.185  19.789  0.00  0.00    +0.000 A 
ATOM      9  C   UNL     1       0.865  10.322  18.506  0.00  0.00    +0.000 A 
ATOM     10  C   UNL     1       1.798   9.384  18.023  0.00  0.00    +0.000 A 
ATOM     11  C   UNL     1       2.117   8.252  18.788  0.00  0.00    +0.000 A 
ATOM     12  C   UNL     1       3.080   7.224  18.344  0.00  0.00    +0.000 A 
ATOM     13  O   UNL     1       3.725   7.458  17.321  0.00  0.00    +0.000 OA
ATOM     14  N   UNL     1       3.193   6.021  19.102  0.00  0.00    +0.000 N 
ATOM     15  C   UNL     1       2.288   5.872  20.176  0.00  0.00    +0.000 A 
ATOM     16  N   UNL     1       1.559   6.830  20.652  0.00  0.00    +0.000 NA
ATOM     17  C   UNL     1       1.480   8.039  19.990  0.00  0.00    +0.000 A 
ATOM     18  C   UNL     1       0.614   9.008  20.499  0.00  0.00    +0.000 A 
ATOM     19  C   UNL     1       1.943   4.526  20.881  0.00  0.00    +0.000 C 
ATOM     20  C   UNL     1       2.400   3.543  19.894  0.00  0.00    +0.000 C 
ATOM     21  C   UNL     1       2.908   2.157  19.776  0.00  0.00    +0.000 C 
ATOM     22  C   UNL     1       4.027   2.338  18.694  0.00  0.00    +0.000 C 
ATOM     23  C   UNL     1       4.885   3.670  18.833  0.00  0.00    +0.000 C 
ATOM     24  C   UNL     1       4.230   5.076  18.404  0.00  0.00    +0.000 C 
ENDBRANCH   2   8
BRANCH   7  25
ATOM     25  C   UNL     1      -2.094  13.709  21.834  0.00  0.00    +0.000 A 
ATOM     26  C   UNL     1      -2.012  13.797  23.230  0.00  0.00    +0.000 A 
ATOM     27  C   UNL     1      -3.180  13.770  24.012  0.00  0.00    +0.000 A 
ATOM     28  C   UNL     1      -4.429  13.630  23.407  0.00  0.00    +0.000 A 
ATOM     29  C   UNL     1      -4.518  13.640  22.021  0.00  0.00    +0.000 A 
ATOM     30  C   UNL     1      -3.372  13.683  21.244  0.00  0.00    +0.000 A 
ATOM     31  O   UNL     1      -5.716  13.567  21.363  0.00  0.00    +0.000 OA
ATOM     32  C   UNL     1      -6.540  12.646  22.066  0.00  0.00    +0.000 C 
ATOM     33  C   UNL     1      -6.705  13.029  23.534  0.00  0.00    +0.000 C 
ATOM     34  O   UNL     1      -5.513  13.445  24.217  0.00  0.00    +0.000 OA
ENDBRANCH   7  25
TORSDOF 2
ENDMDL
MODEL 8
REMARK VINA RESULT:      -9.1      2.595     11.008
REMARK  Name = 
REMARK  2 active torsions:
REMARK  status: ('A' for Active; 'I' for Inactive)
REMARK    1  A    between atoms: C_2  and  C_3
REMARK    2  A    between atoms: C_24  and  C_25
REMARK                            x       y       z     vdW  Elec       q    Type
REMARK                         _______ _______ _______ _____ _____    ______ ____
ROOT
ATOM      1  O   UNL     1       0.735   9.998  22.398  0.00  0.00    +0.000 OA
ATOM      2  C   UNL     1       0.375   9.594  21.294  0.00  0.00    +0.000 C 
ATOM      3  N   UNL     1      -0.465  10.356  20.481  0.00  0.00    +0.000 N 
ATOM      4  C   UNL     1      -0.984  10.016  19.160  0.00  0.00    +0.000 C 
ATOM      5  C   UNL     1      -0.887  11.288  18.341  0.00  0.00    +0.000 C 
ATOM      6  C   UNL     1      -1.114  12.367  19.374  0.00  0.00    +0.000 C 
ATOM      7  C   UNL     1      -0.411  11.817  20.632  0.00  0.00    +0.000 C 
ENDROOT
BRANCH   2   8
ATOM      8  C   UNL     1       1.048   8.351  20.789  0.00  0.00    +0.000 A 
ATOM      9  C   UNL     1       1.012   7.083  21.378  0.00  0.00    +0.000 A 
ATOM     10  C   UNL     1       1.564   5.972  20.712  0.00  0.00    +0.000 A 
ATOM     11  C   UNL     1       2.243   6.149  19.497  0.00  0.00    +0.000 A 
ATOM     12  C   UNL     1       2.854   5.033  18.745  0.00  0.00    +0.000 A 
ATOM     13  O   UNL     1       2.626   3.891  19.145  0.00  0.00    +0.000 OA
ATOM     14  N   UNL     1       3.682   5.337  17.624  0.00  0.00    +0.000 N 
ATOM     15  C   UNL     1       3.932   6.706  17.385  0.00  0.00    +0.000 A 
ATOM     16  N   UNL     1       3.277   7.674  17.944  0.00  0.00    +0.000 NA
ATOM     17  C   UNL     1       2.407   7.416  18.984  0.00  0.00    +0.000 A 
ATOM     18  C   UNL     1       1.793   8.503  19.608  0.00  0.00    +0.000 A 
ATOM     19  C   UNL     1       5.087   7.269  16.505  0.00  0.00    +0.000 C 
ATOM     20  C   UNL     1       5.998   6.122  16.434  0.00  0.00    +0.000 C 
ATOM     21  C   UNL     1       7.033   5.506  15.573  0.00  0.00    +0.000 C 
ATOM     22  C   UNL     1       6.669   3.987  15.705  0.00  0.00    +0.000 C 
ATOM     23  C   UNL     1       5.111   3.670  15.717  0.00  0.00    +0.000 C 
ATOM     24  C   UNL     1       4.250   4.001  17.035  0.00  0.00    +0.000 C 
ENDBRANCH   2   8
BRANCH   7  25
ATOM     25  C   UNL     1      -0.991  12.493  21.856  0.00  0.00    +0.000 A 
ATOM     26  C   UNL     1      -2.160  12.106  22.522  0.00  0.00    +0.000 A 
ATOM     27  C   UNL     1      -2.688  12.906  23.551  0.00  0.00    +0.000 A 
ATOM     28  C   UNL     1      -2.065  14.105  23.900  0.00  0.00    +0.000 A 
ATOM     29  C   UNL     1      -0.854  14.440  23.308  0.00  0.00    +0.000 A 
ATOM     30  C   UNL     1      -0.320  13.647  22.305  0.00  0.00    +0.000 A 
ATOM     31  O   UNL     1      -0.161  15.569  23.647  0.00  0.00    +0.000 OA
ATOM     32  C   UNL     1      -1.105  16.614  23.845  0.00  0.00    +0.000 C 
ATOM     33  C   UNL     1      -2.159  16.244  24.885  0.00  0.00    +0.000 C 
ATOM     34  O   UNL     1      -2.706  14.921  24.789  0.00  0.00    +0.000 OA
ENDBRANCH   7  25
TORSDOF 2
ENDMDL
MODEL 9
REMARK VINA RESULT:      -9.0      1.609      2.531
REMARK  Name = 
REMARK  2 active torsions:
REMARK  status: ('A' for Active; 'I' for Inactive)
REMARK    1  A    between atoms: C_2  and  C_3
REMARK    2  A    between atoms: C_24  and  C_25
REMARK                            x       y       z     vdW  Elec       q    Type
REMARK                         _______ _______ _______ _____ _____    ______ ____
ROOT
ATOM      1  O   UNL     1       2.851   7.799  18.587  0.00  0.00    +0.000 OA
ATOM      2  C   UNL     1       2.101   7.331  19.442  0.00  0.00    +0.000 C 
ATOM      3  N   UNL     1       2.112   5.970  19.750  0.00  0.00    +0.000 N 
ATOM      4  C   UNL     1       1.286   5.265  20.724  0.00  0.00    +0.000 C 
ATOM      5  C   UNL     1       2.213   4.287  21.419  0.00  0.00    +0.000 C 
ATOM      6  C   UNL     1       3.189   3.921  20.325  0.00  0.00    +0.000 C 
ATOM      7  C   UNL     1       3.371   5.240  19.546  0.00  0.00    +0.000 C 
ENDROOT
BRANCH   2   8
ATOM      8  C   UNL     1       1.337   8.323  20.271  0.00  0.00    +0.000 A 
ATOM      9  C   UNL     1       1.386   8.462  21.662  0.00  0.00    +0.000 A 
ATOM     10  C   UNL     1       0.731   9.537  22.292  0.00  0.00    +0.000 A 
ATOM     11  C   UNL     1      -0.058  10.419  21.539  0.00  0.00    +0.000 A 
ATOM     12  C   UNL     1      -0.780  11.563  22.131  0.00  0.00    +0.000 A 
ATOM     13  O   UNL     1      -0.555  11.821  23.314  0.00  0.00    +0.000 OA
ATOM     14  N   UNL     1      -1.703  12.285  21.318  0.00  0.00    +0.000 N 
ATOM     15  C   UNL     1      -1.925  11.773  20.020  0.00  0.00    +0.000 A 
ATOM     16  N   UNL     1      -1.185  10.872  19.457  0.00  0.00    +0.000 NA
ATOM     17  C   UNL     1      -0.226  10.201  20.190  0.00  0.00    +0.000 A 
ATOM     18  C   UNL     1       0.486   9.181  19.556  0.00  0.00    +0.000 A 
ATOM     19  C   UNL     1      -3.141  12.123  19.111  0.00  0.00    +0.000 C 
ATOM     20  C   UNL     1      -4.094  12.669  20.082  0.00  0.00    +0.000 C 
ATOM     21  C   UNL     1      -5.231  13.612  20.196  0.00  0.00    +0.000 C 
ATOM     22  C   UNL     1      -4.911  14.303  21.566  0.00  0.00    +0.000 C 
ATOM     23  C   UNL     1      -3.371  14.614  21.817  0.00  0.00    +0.000 C 
ATOM     24  C   UNL     1      -2.373  13.406  22.182  0.00  0.00    +0.000 C 
ENDBRANCH   2   8
BRANCH   7  25
ATOM     25  C   UNL     1       3.867   4.923  18.151  0.00  0.00    +0.000 A 
ATOM     26  C   UNL     1       3.420   3.865  17.349  0.00  0.00    +0.000 A 
ATOM     27  C   UNL     1       4.067   3.574  16.135  0.00  0.00    +0.000 A 
ATOM     28  C   UNL     1       5.176   4.319  15.731  0.00  0.00    +0.000 A 
ATOM     29  C   UNL     1       5.558   5.427  16.476  0.00  0.00    +0.000 A 
ATOM     30  C   UNL     1       4.914   5.729  17.666  0.00  0.00    +0.000 A 
ATOM     31  O   UNL     1       6.597   6.236  16.105  0.00  0.00    +0.000 OA
ATOM     32  C   UNL     1       7.629   5.406  15.589  0.00  0.00    +0.000 C 
ATOM     33  C   UNL     1       7.138   4.528  14.442  0.00  0.00    +0.000 C 
ATOM     34  O   UNL     1       5.864   3.893  14.631  0.00  0.00    +0.000 OA
ENDBRANCH   7  25
TORSDOF 2
ENDMDL
