MODEL 1
REMARK VINA RESULT:      -8.2      0.000      0.000
REMARK  Name = 
REMARK  10 active torsions:
REMARK  status: ('A' for Active; 'I' for Inactive)
REMARK    1  A    between atoms: P_2  and  O_3
REMARK    2  A    between atoms: P_2  and  O_4
REMARK    3  A    between atoms: P_2  and  C_5
REMARK    4  A    between atoms: C_5  and  N_6
REMARK    5  A    between atoms: C_5  and  C_26
REMARK    6  A    between atoms: N_6  and  C_7
REMARK    7  A    between atoms: C_7  and  C_8
REMARK    8  A    between atoms: C_7  and  C_21
REMARK    9  A    between atoms: C_8  and  C_9
REMARK   10  A    between atoms: C_12  and  C_13
REMARK                            x       y       z     vdW  Elec       q    Type
REMARK                         _______ _______ _______ _____ _____    ______ ____
ROOT
ATOM      1  C   UNL     1      -1.099  10.689  19.666  0.00  0.00    +0.000 C 
ENDROOT
BRANCH   1   2
ATOM      2  C   UNL     1      -1.848  10.655  18.363  0.00  0.00    +0.000 A 
ATOM      3  N   UNL     1      -2.856   9.869  18.039  0.00  0.00    +0.000 NA
ATOM      4  N   UNL     1      -3.223  10.212  16.763  0.00  0.00    +0.000 NA
ATOM      5  N   UNL     1      -2.456  11.185  16.296  0.00  0.00    +0.000 NA
ATOM      6  N   UNL     1      -1.591  11.458  17.282  0.00  0.00    +0.000 N 
ATOM      7  H   UNL     1      -0.819  12.087  17.097  0.00  0.00    +0.000 HD
ENDBRANCH   1   2
BRANCH   1   8
ATOM      8  N   UNL     1      -1.413  11.828  20.567  0.00  0.00    +0.000 NA
ATOM      9  H   UNL     1      -1.921  11.446  21.372  0.00  0.00    +0.000 HD
BRANCH   8  10
ATOM     10  C   UNL     1      -2.240  12.982  20.066  0.00  0.00    +0.000 C 
BRANCH  10  11
ATOM     11  C   UNL     1      -3.573  13.041  20.845  0.00  0.00    +0.000 A 
ATOM     12  C   UNL     1      -3.513  13.397  22.208  0.00  0.00    +0.000 A 
ATOM     13  C   UNL     1      -4.612  13.229  23.046  0.00  0.00    +0.000 A 
ATOM     14  C   UNL     1      -5.784  12.704  22.537  0.00  0.00    +0.000 A 
ATOM     15  C   UNL     1      -5.924  12.412  21.176  0.00  0.00    +0.000 A 
ATOM     16  C   UNL     1      -7.138  11.883  20.722  0.00  0.00    +0.000 A 
ATOM     17  C   UNL     1      -7.354  11.646  19.371  0.00  0.00    +0.000 A 
ATOM     18  C   UNL     1      -6.367  11.985  18.455  0.00  0.00    +0.000 A 
ATOM     19  C   UNL     1      -5.124  12.473  18.903  0.00  0.00    +0.000 A 
ATOM     20  C   UNL     1      -4.838  12.649  20.283  0.00  0.00    +0.000 A 
ENDBRANCH  10  11
BRANCH  10  22
ATOM     21  O   UNL     1       0.046  15.467  20.142  0.00  0.00    +0.000 OA
ATOM     22  P   UNL     1      -1.002  14.328  20.107  0.00  0.00    +0.000 P 
BRANCH  22  23
ATOM     23  O   UNL     1      -2.200  15.438  19.926  0.00  0.00    +0.000 OA
ATOM     24  H   UNL     1      -2.115  16.082  20.658  0.00  0.00    +0.000 HD
ENDBRANCH  22  23
BRANCH  22  25
ATOM     25  O   UNL     1      -0.738  14.105  18.491  0.00  0.00    +0.000 OA
ATOM     26  H   UNL     1      -1.434  14.634  18.043  0.00  0.00    +0.000 HD
ENDBRANCH  22  25
ENDBRANCH  10  22
ENDBRANCH   8  10
ENDBRANCH   1   8
BRANCH   1  27
ATOM     27  C   UNL     1       0.406  10.818  19.266  0.00  0.00    +0.000 C 
BRANCH  27  28
ATOM     28  C   UNL     1       1.144   9.516  19.106  0.00  0.00    +0.000 A 
ATOM     29  C   UNL     1       1.291   8.638  20.175  0.00  0.00    +0.000 A 
ATOM     30  C   UNL     1       1.988   7.445  20.004  0.00  0.00    +0.000 A 
ATOM     31  C   UNL     1       2.533   7.080  18.758  0.00  0.00    +0.000 A 
ATOM     32  C   UNL     1       2.376   7.980  17.694  0.00  0.00    +0.000 A 
ATOM     33  C   UNL     1       1.701   9.189  17.865  0.00  0.00    +0.000 A 
BRANCH  31  34
ATOM     34  C   UNL     1       3.227   5.786  18.578  0.00  0.00    +0.000 A 
ATOM     35  C   UNL     1       4.440   5.523  19.240  0.00  0.00    +0.000 A 
ATOM     36  C   UNL     1       5.107   4.306  19.087  0.00  0.00    +0.000 A 
ATOM     37  C   UNL     1       4.567   3.316  18.275  0.00  0.00    +0.000 A 
ATOM     38  C   UNL     1       3.363   3.544  17.616  0.00  0.00    +0.000 A 
ATOM     39  C   UNL     1       2.708   4.770  17.757  0.00  0.00    +0.000 A 
ENDBRANCH  31  34
ENDBRANCH  27  28
ENDBRANCH   1  27
TORSDOF 10
ENDMDL
MODEL 2
REMARK VINA RESULT:      -8.1      6.310     10.950
REMARK  Name = 
REMARK  10 active torsions:
REMARK  status: ('A' for Active; 'I' for Inactive)
REMARK    1  A    between atoms: P_2  and  O_3
REMARK    2  A    between atoms: P_2  and  O_4
REMARK    3  A    between atoms: P_2  and  C_5
REMARK    4  A    between atoms: C_5  and  N_6
REMARK    5  A    between atoms: C_5  and  C_26
REMARK    6  A    between atoms: N_6  and  C_7
REMARK    7  A    between atoms: C_7  and  C_8
REMARK    8  A    between atoms: C_7  and  C_21
REMARK    9  A    between atoms: C_8  and  C_9
REMARK   10  A    between atoms: C_12  and  C_13
REMARK                            x       y       z     vdW  Elec       q    Type
REMARK                         _______ _______ _______ _____ _____    ______ ____
ROOT
ATOM      1  C   UNL     1       2.525   5.140  19.441  0.00  0.00    +0.000 C 
ENDROOT
BRANCH   1   2
ATOM      2  C   UNL     1       1.548   4.034  19.151  0.00  0.00    +0.000 A 
ATOM      3  N   UNL     1       1.290   3.480  17.982  0.00  0.00    +0.000 NA
ATOM      4  N   UNL     1       0.349   2.509  18.209  0.00  0.00    +0.000 NA
ATOM      5  N   UNL     1       0.020   2.463  19.491  0.00  0.00    +0.000 NA
ATOM      6  N   UNL     1       0.752   3.416  20.081  0.00  0.00    +0.000 N 
ATOM      7  H   UNL     1       0.567   3.650  21.048  0.00  0.00    +0.000 HD
ENDBRANCH   1   2
BRANCH   1   8
ATOM      8  N   UNL     1       3.863   4.713  19.926  0.00  0.00    +0.000 NA
ATOM      9  H   UNL     1       4.429   5.561  20.038  0.00  0.00    +0.000 HD
BRANCH   8  10
ATOM     10  C   UNL     1       4.697   3.765  19.106  0.00  0.00    +0.000 C 
BRANCH  10  11
ATOM     11  C   UNL     1       5.830   4.545  18.404  0.00  0.00    +0.000 A 
ATOM     12  C   UNL     1       6.600   5.424  19.194  0.00  0.00    +0.000 A 
ATOM     13  C   UNL     1       7.461   6.351  18.612  0.00  0.00    +0.000 A 
ATOM     14  C   UNL     1       7.566   6.413  17.236  0.00  0.00    +0.000 A 
ATOM     15  C   UNL     1       6.889   5.511  16.409  0.00  0.00    +0.000 A 
ATOM     16  C   UNL     1       7.038   5.626  15.022  0.00  0.00    +0.000 A 
ATOM     17  C   UNL     1       6.449   4.710  14.161  0.00  0.00    +0.000 A 
ATOM     18  C   UNL     1       5.742   3.638  14.689  0.00  0.00    +0.000 A 
ATOM     19  C   UNL     1       5.544   3.538  16.080  0.00  0.00    +0.000 A 
ATOM     20  C   UNL     1       6.062   4.502  16.984  0.00  0.00    +0.000 A 
ENDBRANCH  10  11
BRANCH  10  22
ATOM     21  O   UNL     1       5.274   1.324  21.370  0.00  0.00    +0.000 OA
ATOM     22  P   UNL     1       5.009   2.443  20.332  0.00  0.00    +0.000 P 
BRANCH  22  23
ATOM     23  O   UNL     1       4.635   1.308  19.205  0.00  0.00    +0.000 OA
ATOM     24  H   UNL     1       4.681   0.434  19.642  0.00  0.00    +0.000 HD
ENDBRANCH  22  23
BRANCH  22  25
ATOM     25  O   UNL     1       3.468   2.632  20.895  0.00  0.00    +0.000 OA
ATOM     26  H   UNL     1       3.289   3.595  20.833  0.00  0.00    +0.000 HD
ENDBRANCH  22  25
ENDBRANCH  10  22
ENDBRANCH   8  10
ENDBRANCH   1   8
BRANCH   1  27
ATOM     27  C   UNL     1       1.864   5.975  20.584  0.00  0.00    +0.000 C 
BRANCH  27  28
ATOM     28  C   UNL     1       1.579   7.414  20.248  0.00  0.00    +0.000 A 
ATOM     29  C   UNL     1       0.993   8.266  21.180  0.00  0.00    +0.000 A 
ATOM     30  C   UNL     1       0.728   9.590  20.841  0.00  0.00    +0.000 A 
ATOM     31  C   UNL     1       1.067  10.110  19.577  0.00  0.00    +0.000 A 
ATOM     32  C   UNL     1       1.654   9.236  18.653  0.00  0.00    +0.000 A 
ATOM     33  C   UNL     1       1.898   7.901  18.976  0.00  0.00    +0.000 A 
BRANCH  31  34
ATOM     34  C   UNL     1       0.827  11.533  19.249  0.00  0.00    +0.000 A 
ATOM     35  C   UNL     1       1.895  12.385  18.917  0.00  0.00    +0.000 A 
ATOM     36  C   UNL     1       1.688  13.728  18.600  0.00  0.00    +0.000 A 
ATOM     37  C   UNL     1       0.399  14.249  18.595  0.00  0.00    +0.000 A 
ATOM     38  C   UNL     1      -0.679  13.428  18.910  0.00  0.00    +0.000 A 
ATOM     39  C   UNL     1      -0.465  12.088  19.245  0.00  0.00    +0.000 A 
ENDBRANCH  31  34
ENDBRANCH  27  28
ENDBRANCH   1  27
TORSDOF 10
ENDMDL
MODEL 3
REMARK VINA RESULT:      -8.1      3.056      4.980
REMARK  Name = 
REMARK  10 active torsions:
REMARK  status: ('A' for Active; 'I' for Inactive)
REMARK    1  A    between atoms: P_2  and  O_3
REMARK    2  A    between atoms: P_2  and  O_4
REMARK    3  A    between atoms: P_2  and  C_5
REMARK    4  A    between atoms: C_5  and  N_6
REMARK    5  A    between atoms: C_5  and  C_26
REMARK    6  A    between atoms: N_6  and  C_7
REMARK    7  A    between atoms: C_7  and  C_8
REMARK    8  A    between atoms: C_7  and  C_21
REMARK    9  A    between atoms: C_8  and  C_9
REMARK   10  A    between atoms: C_12  and  C_13
REMARK                            x       y       z     vdW  Elec       q    Type
REMARK                         _______ _______ _______ _____ _____    ______ ____
ROOT
ATOM      1  C   UNL     1      -0.915  11.397  19.111  0.00  0.00    +0.000 C 
ENDROOT
BRANCH   1   2
ATOM      2  C   UNL     1      -1.650  11.037  17.849  0.00  0.00    +0.000 A 
ATOM      3  N   UNL     1      -2.069   9.842  17.479  0.00  0.00    +0.000 NA
ATOM      4  N   UNL     1      -2.700  10.006  16.273  0.00  0.00    +0.000 NA
ATOM      5  N   UNL     1      -2.667  11.274  15.892  0.00  0.00    +0.000 NA
ATOM      6  N   UNL     1      -2.006  11.919  16.862  0.00  0.00    +0.000 N 
ATOM      7  H   UNL     1      -1.746  12.887  16.719  0.00  0.00    +0.000 HD
ENDBRANCH   1   2
BRANCH   1   8
ATOM      8  N   UNL     1      -1.088  12.792  19.588  0.00  0.00    +0.000 NA
ATOM      9  H   UNL     1      -1.218  13.382  18.759  0.00  0.00    +0.000 HD
BRANCH   8  10
ATOM     10  C   UNL     1      -0.006  13.454  20.400  0.00  0.00    +0.000 C 
BRANCH  10  11
ATOM     11  C   UNL     1       0.401  14.787  19.733  0.00  0.00    +0.000 A 
ATOM     12  C   UNL     1      -0.588  15.786  19.624  0.00  0.00    +0.000 A 
ATOM     13  C   UNL     1      -0.395  16.907  18.821  0.00  0.00    +0.000 A 
ATOM     14  C   UNL     1       0.785  17.045  18.116  0.00  0.00    +0.000 A 
ATOM     15  C   UNL     1       1.831  16.126  18.253  0.00  0.00    +0.000 A 
ATOM     16  C   UNL     1       3.002  16.324  17.511  0.00  0.00    +0.000 A 
ATOM     17  C   UNL     1       4.097  15.484  17.667  0.00  0.00    +0.000 A 
ATOM     18  C   UNL     1       4.042  14.463  18.607  0.00  0.00    +0.000 A 
ATOM     19  C   UNL     1       2.853  14.224  19.324  0.00  0.00    +0.000 A 
ATOM     20  C   UNL     1       1.688  15.011  19.130  0.00  0.00    +0.000 A 
ENDBRANCH  10  11
BRANCH  10  22
ATOM     21  O   UNL     1      -1.350  13.279  23.494  0.00  0.00    +0.000 OA
ATOM     22  P   UNL     1      -0.735  13.359  22.075  0.00  0.00    +0.000 P 
BRANCH  22  23
ATOM     23  O   UNL     1      -0.083  11.864  22.275  0.00  0.00    +0.000 OA
ATOM     24  H   UNL     1       0.881  11.943  22.131  0.00  0.00    +0.000 HD
ENDBRANCH  22  23
BRANCH  22  25
ATOM     25  O   UNL     1      -2.151  12.834  21.406  0.00  0.00    +0.000 OA
ATOM     26  H   UNL     1      -2.842  13.429  21.772  0.00  0.00    +0.000 HD
ENDBRANCH  22  25
ENDBRANCH  10  22
ENDBRANCH   8  10
ENDBRANCH   1   8
BRANCH   1  27
ATOM     27  C   UNL     1       0.597  11.210  18.766  0.00  0.00    +0.000 C 
BRANCH  27  28
ATOM     28  C   UNL     1       1.150   9.833  19.014  0.00  0.00    +0.000 A 
ATOM     29  C   UNL     1       1.014   9.217  20.255  0.00  0.00    +0.000 A 
ATOM     30  C   UNL     1       1.545   7.947  20.462  0.00  0.00    +0.000 A 
ATOM     31  C   UNL     1       2.199   7.243  19.433  0.00  0.00    +0.000 A 
ATOM     32  C   UNL     1       2.328   7.882  18.192  0.00  0.00    +0.000 A 
ATOM     33  C   UNL     1       1.822   9.165  17.985  0.00  0.00    +0.000 A 
BRANCH  31  34
ATOM     34  C   UNL     1       2.713   5.873  19.653  0.00  0.00    +0.000 A 
ATOM     35  C   UNL     1       2.044   4.983  20.512  0.00  0.00    +0.000 A 
ATOM     36  C   UNL     1       2.510   3.686  20.728  0.00  0.00    +0.000 A 
ATOM     37  C   UNL     1       3.656   3.242  20.077  0.00  0.00    +0.000 A 
ATOM     38  C   UNL     1       4.334   4.097  19.214  0.00  0.00    +0.000 A 
ATOM     39  C   UNL     1       3.874   5.402  19.014  0.00  0.00    +0.000 A 
ENDBRANCH  31  34
ENDBRANCH  27  28
ENDBRANCH   1  27
TORSDOF 10
ENDMDL
MODEL 4
REMARK VINA RESULT:      -8.0      2.239      4.042
REMARK  Name = 
REMARK  10 active torsions:
REMARK  status: ('A' for Active; 'I' for Inactive)
REMARK    1  A    between atoms: P_2  and  O_3
REMARK    2  A    between atoms: P_2  and  O_4
REMARK    3  A    between atoms: P_2  and  C_5
REMARK    4  A    between atoms: C_5  and  N_6
REMARK    5  A    between atoms: C_5  and  C_26
REMARK    6  A    between atoms: N_6  and  C_7
REMARK    7  A    between atoms: C_7  and  C_8
REMARK    8  A    between atoms: C_7  and  C_21
REMARK    9  A    between atoms: C_8  and  C_9
REMARK   10  A    between atoms: C_12  and  C_13
REMARK                            x       y       z     vdW  Elec       q    Type
REMARK                         _______ _______ _______ _____ _____    ______ ____
ROOT
ATOM      1  C   UNL     1       0.826  10.188  20.516  0.00  0.00    +0.000 C 
ENDROOT
BRANCH   1   2
ATOM      2  C   UNL     1       0.866   9.871  21.986  0.00  0.00    +0.000 A 
ATOM      3  N   UNL     1       1.914   9.506  22.699  0.00  0.00    +0.000 NA
ATOM      4  N   UNL     1       1.473   9.347  23.987  0.00  0.00    +0.000 NA
ATOM      5  N   UNL     1       0.176   9.599  24.077  0.00  0.00    +0.000 NA
ATOM      6  N   UNL     1      -0.210   9.915  22.834  0.00  0.00    +0.000 N 
ATOM      7  H   UNL     1      -1.198  10.020  22.639  0.00  0.00    +0.000 HD
ENDBRANCH   1   2
BRANCH   1   8
ATOM      8  N   UNL     1      -0.189  11.186  20.094  0.00  0.00    +0.000 NA
ATOM      9  H   UNL     1      -1.103  10.836  20.399  0.00  0.00    +0.000 HD
BRANCH   8  10
ATOM     10  C   UNL     1      -0.346  11.535  18.637  0.00  0.00    +0.000 C 
BRANCH  10  11
ATOM     11  C   UNL     1      -1.746  11.102  18.148  0.00  0.00    +0.000 A 
ATOM     12  C   UNL     1      -1.805  10.206  17.061  0.00  0.00    +0.000 A 
ATOM     13  C   UNL     1      -3.001   9.962  16.392  0.00  0.00    +0.000 A 
ATOM     14  C   UNL     1      -4.153  10.608  16.797  0.00  0.00    +0.000 A 
ATOM     15  C   UNL     1      -4.167  11.443  17.920  0.00  0.00    +0.000 A 
ATOM     16  C   UNL     1      -5.368  12.068  18.279  0.00  0.00    +0.000 A 
ATOM     17  C   UNL     1      -5.453  12.845  19.426  0.00  0.00    +0.000 A 
ATOM     18  C   UNL     1      -4.343  12.962  20.252  0.00  0.00    +0.000 A 
ATOM     19  C   UNL     1      -3.117  12.379  19.877  0.00  0.00    +0.000 A 
ATOM     20  C   UNL     1      -2.972  11.647  18.669  0.00  0.00    +0.000 A 
ENDBRANCH  10  11
BRANCH  10  22
ATOM     21  O   UNL     1       0.685  14.752  18.652  0.00  0.00    +0.000 OA
ATOM     22  P   UNL     1       0.213  13.277  18.645  0.00  0.00    +0.000 P 
BRANCH  22  23
ATOM     23  O   UNL     1      -0.664  13.565  17.285  0.00  0.00    +0.000 OA
ATOM     24  H   UNL     1      -1.357  14.216  17.516  0.00  0.00    +0.000 HD
ENDBRANCH  22  23
BRANCH  22  25
ATOM     25  O   UNL     1       1.590  12.816  17.859  0.00  0.00    +0.000 OA
ATOM     26  H   UNL     1       1.288  12.481  16.987  0.00  0.00    +0.000 HD
ENDBRANCH  22  25
ENDBRANCH  10  22
ENDBRANCH   8  10
ENDBRANCH   1   8
BRANCH   1  27
ATOM     27  C   UNL     1       0.464   8.837  19.820  0.00  0.00    +0.000 C 
BRANCH  27  28
ATOM     28  C   UNL     1       1.625   8.086  19.228  0.00  0.00    +0.000 A 
ATOM     29  C   UNL     1       2.222   8.505  18.042  0.00  0.00    +0.000 A 
ATOM     30  C   UNL     1       3.287   7.785  17.508  0.00  0.00    +0.000 A 
ATOM     31  C   UNL     1       3.807   6.647  18.154  0.00  0.00    +0.000 A 
ATOM     32  C   UNL     1       3.191   6.240  19.345  0.00  0.00    +0.000 A 
ATOM     33  C   UNL     1       2.106   6.941  19.873  0.00  0.00    +0.000 A 
BRANCH  31  34
ATOM     34  C   UNL     1       4.972   5.921  17.601  0.00  0.00    +0.000 A 
ATOM     35  C   UNL     1       6.151   5.774  18.354  0.00  0.00    +0.000 A 
ATOM     36  C   UNL     1       7.258   5.089  17.851  0.00  0.00    +0.000 A 
ATOM     37  C   UNL     1       7.207   4.522  16.583  0.00  0.00    +0.000 A 
ATOM     38  C   UNL     1       6.051   4.643  15.819  0.00  0.00    +0.000 A 
ATOM     39  C   UNL     1       4.951   5.346  16.318  0.00  0.00    +0.000 A 
ENDBRANCH  31  34
ENDBRANCH  27  28
ENDBRANCH   1  27
TORSDOF 10
ENDMDL
MODEL 5
REMARK VINA RESULT:      -8.0      0.282      1.049
REMARK  Name = 
REMARK  10 active torsions:
REMARK  status: ('A' for Active; 'I' for Inactive)
REMARK    1  A    between atoms: P_2  and  O_3
REMARK    2  A    between atoms: P_2  and  O_4
REMARK    3  A    between atoms: P_2  and  C_5
REMARK    4  A    between atoms: C_5  and  N_6
REMARK    5  A    between atoms: C_5  and  C_26
REMARK    6  A    between atoms: N_6  and  C_7
REMARK    7  A    between atoms: C_7  and  C_8
REMARK    8  A    between atoms: C_7  and  C_21
REMARK    9  A    between atoms: C_8  and  C_9
REMARK   10  A    between atoms: C_12  and  C_13
REMARK                            x       y       z     vdW  Elec       q    Type
REMARK                         _______ _______ _______ _____ _____    ______ ____
ROOT
ATOM      1  C   UNL     1      -1.055  10.925  19.924  0.00  0.00    +0.000 C 
ENDROOT
BRANCH   1   2
ATOM      2  C   UNL     1      -1.750  10.874  18.591  0.00  0.00    +0.000 A 
ATOM      3  N   UNL     1      -1.669  11.754  17.612  0.00  0.00    +0.000 NA
ATOM      4  N   UNL     1      -2.455  11.278  16.593  0.00  0.00    +0.000 NA
ATOM      5  N   UNL     1      -3.020  10.129  16.932  0.00  0.00    +0.000 NA
ATOM      6  N   UNL     1      -2.596   9.878  18.177  0.00  0.00    +0.000 N 
ATOM      7  H   UNL     1      -3.008   9.109  18.690  0.00  0.00    +0.000 HD
ENDBRANCH   1   2
BRANCH   1   8
ATOM      8  N   UNL     1      -1.367  12.103  20.774  0.00  0.00    +0.000 NA
ATOM      9  H   UNL     1      -1.838  11.753  21.615  0.00  0.00    +0.000 HD
BRANCH   8  10
ATOM     10  C   UNL     1      -2.240  13.209  20.243  0.00  0.00    +0.000 C 
BRANCH  10  11
ATOM     11  C   UNL     1      -3.583  13.221  21.004  0.00  0.00    +0.000 A 
ATOM     12  C   UNL     1      -3.570  13.680  22.338  0.00  0.00    +0.000 A 
ATOM     13  C   UNL     1      -4.664  13.489  23.177  0.00  0.00    +0.000 A 
ATOM     14  C   UNL     1      -5.785  12.839  22.699  0.00  0.00    +0.000 A 
ATOM     15  C   UNL     1      -5.883  12.437  21.363  0.00  0.00    +0.000 A 
ATOM     16  C   UNL     1      -7.047  11.783  20.940  0.00  0.00    +0.000 A 
ATOM     17  C   UNL     1      -7.226  11.431  19.609  0.00  0.00    +0.000 A 
ATOM     18  C   UNL     1      -6.255  11.778  18.678  0.00  0.00    +0.000 A 
ATOM     19  C   UNL     1      -5.059  12.392  19.098  0.00  0.00    +0.000 A 
ATOM     20  C   UNL     1      -4.807  12.691  20.463  0.00  0.00    +0.000 A 
ENDBRANCH  10  11
BRANCH  10  22
ATOM     21  O   UNL     1      -0.069  15.797  20.300  0.00  0.00    +0.000 OA
ATOM     22  P   UNL     1      -1.064  14.611  20.273  0.00  0.00    +0.000 P 
BRANCH  22  23
ATOM     23  O   UNL     1      -2.294  15.651  19.950  0.00  0.00    +0.000 OA
ATOM     24  H   UNL     1      -2.934  15.586  20.687  0.00  0.00    +0.000 HD
ENDBRANCH  22  23
BRANCH  22  25
ATOM     25  O   UNL     1      -0.688  14.302  18.695  0.00  0.00    +0.000 OA
ATOM     26  H   UNL     1      -0.225  15.108  18.380  0.00  0.00    +0.000 HD
ENDBRANCH  22  25
ENDBRANCH  10  22
ENDBRANCH   8  10
ENDBRANCH   1   8
BRANCH   1  27
ATOM     27  C   UNL     1       0.468  10.990  19.585  0.00  0.00    +0.000 C 
BRANCH  27  28
ATOM     28  C   UNL     1       1.127   9.663  19.322  0.00  0.00    +0.000 A 
ATOM     29  C   UNL     1       1.606   9.337  18.056  0.00  0.00    +0.000 A 
ATOM     30  C   UNL     1       2.201   8.098  17.836  0.00  0.00    +0.000 A 
ATOM     31  C   UNL     1       2.363   7.162  18.875  0.00  0.00    +0.000 A 
ATOM     32  C   UNL     1       1.872   7.508  20.142  0.00  0.00    +0.000 A 
ATOM     33  C   UNL     1       1.250   8.737  20.363  0.00  0.00    +0.000 A 
BRANCH  31  34
ATOM     34  C   UNL     1       3.043   5.869  18.638  0.00  0.00    +0.000 A 
ATOM     35  C   UNL     1       4.300   5.602  19.210  0.00  0.00    +0.000 A 
ATOM     36  C   UNL     1       4.955   4.388  19.002  0.00  0.00    +0.000 A 
ATOM     37  C   UNL     1       4.359   3.402  18.223  0.00  0.00    +0.000 A 
ATOM     38  C   UNL     1       3.112   3.634  17.652  0.00  0.00    +0.000 A 
ATOM     39  C   UNL     1       2.467   4.859  17.848  0.00  0.00    +0.000 A 
ENDBRANCH  31  34
ENDBRANCH  27  28
ENDBRANCH   1  27
TORSDOF 10
ENDMDL
MODEL 6
REMARK VINA RESULT:      -7.9      0.779      1.197
REMARK  Name = 
REMARK  10 active torsions:
REMARK  status: ('A' for Active; 'I' for Inactive)
REMARK    1  A    between atoms: P_2  and  O_3
REMARK    2  A    between atoms: P_2  and  O_4
REMARK    3  A    between atoms: P_2  and  C_5
REMARK    4  A    between atoms: C_5  and  N_6
REMARK    5  A    between atoms: C_5  and  C_26
REMARK    6  A    between atoms: N_6  and  C_7
REMARK    7  A    between atoms: C_7  and  C_8
REMARK    8  A    between atoms: C_7  and  C_21
REMARK    9  A    between atoms: C_8  and  C_9
REMARK   10  A    between atoms: C_12  and  C_13
REMARK                            x       y       z     vdW  Elec       q    Type
REMARK                         _______ _______ _______ _____ _____    ______ ____
ROOT
ATOM      1  C   UNL     1      -0.916  10.801  19.557  0.00  0.00    +0.000 C 
ENDROOT
BRANCH   1   2
ATOM      2  C   UNL     1      -1.807  10.852  18.347  0.00  0.00    +0.000 A 
ATOM      3  N   UNL     1      -3.032  10.376  18.235  0.00  0.00    +0.000 NA
ATOM      4  N   UNL     1      -3.450  10.670  16.962  0.00  0.00    +0.000 NA
ATOM      5  N   UNL     1      -2.503  11.309  16.291  0.00  0.00    +0.000 NA
ATOM      6  N   UNL     1      -1.475  11.415  17.143  0.00  0.00    +0.000 N 
ATOM      7  H   UNL     1      -0.586  11.758  16.799  0.00  0.00    +0.000 HD
ENDBRANCH   1   2
BRANCH   1   8
ATOM      8  N   UNL     1      -1.001  11.965  20.476  0.00  0.00    +0.000 NA
ATOM      9  H   UNL     1      -1.328  11.613  21.382  0.00  0.00    +0.000 HD
BRANCH   8  10
ATOM     10  C   UNL     1      -1.893  13.130  20.140  0.00  0.00    +0.000 C 
BRANCH  10  11
ATOM     11  C   UNL     1      -3.022  13.239  21.189  0.00  0.00    +0.000 A 
ATOM     12  C   UNL     1      -2.645  13.493  22.524  0.00  0.00    +0.000 A 
ATOM     13  C   UNL     1      -3.553  13.353  23.569  0.00  0.00    +0.000 A 
ATOM     14  C   UNL     1      -4.850  12.960  23.298  0.00  0.00    +0.000 A 
ATOM     15  C   UNL     1      -5.298  12.776  21.985  0.00  0.00    +0.000 A 
ATOM     16  C   UNL     1      -6.625  12.378  21.777  0.00  0.00    +0.000 A 
ATOM     17  C   UNL     1      -7.140  12.255  20.494  0.00  0.00    +0.000 A 
ATOM     18  C   UNL     1      -6.340  12.579  19.406  0.00  0.00    +0.000 A 
ATOM     19  C   UNL     1      -4.991  12.933  19.600  0.00  0.00    +0.000 A 
ATOM     20  C   UNL     1      -4.407  12.989  20.893  0.00  0.00    +0.000 A 
ENDBRANCH  10  11
BRANCH  10  22
ATOM     21  O   UNL     1       0.406  15.557  19.652  0.00  0.00    +0.000 OA
ATOM     22  P   UNL     1      -0.648  14.445  19.875  0.00  0.00    +0.000 P 
BRANCH  22  23
ATOM     23  O   UNL     1      -1.848  15.563  19.779  0.00  0.00    +0.000 OA
ATOM     24  H   UNL     1      -2.124  15.776  20.693  0.00  0.00    +0.000 HD
ENDBRANCH  22  23
BRANCH  22  25
ATOM     25  O   UNL     1      -0.635  14.077  18.265  0.00  0.00    +0.000 OA
ATOM     26  H   UNL     1       0.252  14.354  17.947  0.00  0.00    +0.000 HD
ENDBRANCH  22  25
ENDBRANCH  10  22
ENDBRANCH   8  10
ENDBRANCH   1   8
BRANCH   1  27
ATOM     27  C   UNL     1       0.538  10.767  18.988  0.00  0.00    +0.000 C 
BRANCH  27  28
ATOM     28  C   UNL     1       1.227   9.431  19.058  0.00  0.00    +0.000 A 
ATOM     29  C   UNL     1       1.881   8.901  17.950  0.00  0.00    +0.000 A 
ATOM     30  C   UNL     1       2.501   7.658  18.037  0.00  0.00    +0.000 A 
ATOM     31  C   UNL     1       2.513   6.921  19.237  0.00  0.00    +0.000 A 
ATOM     32  C   UNL     1       1.846   7.471  20.341  0.00  0.00    +0.000 A 
ATOM     33  C   UNL     1       1.200   8.704  20.253  0.00  0.00    +0.000 A 
BRANCH  31  34
ATOM     34  C   UNL     1       3.219   5.624  19.329  0.00  0.00    +0.000 A 
ATOM     35  C   UNL     1       4.517   5.474  18.808  0.00  0.00    +0.000 A 
ATOM     36  C   UNL     1       5.201   4.260  18.890  0.00  0.00    +0.000 A 
ATOM     37  C   UNL     1       4.605   3.168  19.510  0.00  0.00    +0.000 A 
ATOM     38  C   UNL     1       3.326   3.289  20.042  0.00  0.00    +0.000 A 
ATOM     39  C   UNL     1       2.636   4.501  19.942  0.00  0.00    +0.000 A 
ENDBRANCH  31  34
ENDBRANCH  27  28
ENDBRANCH   1  27
TORSDOF 10
ENDMDL
MODEL 7
REMARK VINA RESULT:      -7.9      2.097      3.525
REMARK  Name = 
REMARK  10 active torsions:
REMARK  status: ('A' for Active; 'I' for Inactive)
REMARK    1  A    between atoms: P_2  and  O_3
REMARK    2  A    between atoms: P_2  and  O_4
REMARK    3  A    between atoms: P_2  and  C_5
REMARK    4  A    between atoms: C_5  and  N_6
REMARK    5  A    between atoms: C_5  and  C_26
REMARK    6  A    between atoms: N_6  and  C_7
REMARK    7  A    between atoms: C_7  and  C_8
REMARK    8  A    between atoms: C_7  and  C_21
REMARK    9  A    between atoms: C_8  and  C_9
REMARK   10  A    between atoms: C_12  and  C_13
REMARK                            x       y       z     vdW  Elec       q    Type
REMARK                         _______ _______ _______ _____ _____    ______ ____
ROOT
ATOM      1  C   UNL     1       0.064  11.159  20.009  0.00  0.00    +0.000 C 
ENDROOT
BRANCH   1   2
ATOM      2  C   UNL     1       1.071  12.219  20.362  0.00  0.00    +0.000 A 
ATOM      3  N   UNL     1       1.216  12.831  21.521  0.00  0.00    +0.000 NA
ATOM      4  N   UNL     1       2.269  13.698  21.376  0.00  0.00    +0.000 NA
ATOM      5  N   UNL     1       2.766  13.634  20.150  0.00  0.00    +0.000 NA
ATOM      6  N   UNL     1       2.019  12.725  19.511  0.00  0.00    +0.000 N 
ATOM      7  H   UNL     1       2.137  12.607  18.512  0.00  0.00    +0.000 HD
ENDBRANCH   1   2
BRANCH   1   8
ATOM      8  N   UNL     1      -1.330  11.413  20.455  0.00  0.00    +0.000 NA
ATOM      9  H   UNL     1      -1.864  10.554  20.284  0.00  0.00    +0.000 HD
BRANCH   8  10
ATOM     10  C   UNL     1      -2.132  12.527  19.834  0.00  0.00    +0.000 C 
BRANCH  10  11
ATOM     11  C   UNL     1      -3.126  11.941  18.808  0.00  0.00    +0.000 A 
ATOM     12  C   UNL     1      -2.595  11.452  17.596  0.00  0.00    +0.000 A 
ATOM     13  C   UNL     1      -3.421  11.147  16.518  0.00  0.00    +0.000 A 
ATOM     14  C   UNL     1      -4.786  11.325  16.633  0.00  0.00    +0.000 A 
ATOM     15  C   UNL     1      -5.372  11.728  17.838  0.00  0.00    +0.000 A 
ATOM     16  C   UNL     1      -6.762  11.890  17.889  0.00  0.00    +0.000 A 
ATOM     17  C   UNL     1      -7.400  12.215  19.079  0.00  0.00    +0.000 A 
ATOM     18  C   UNL     1      -6.650  12.334  20.242  0.00  0.00    +0.000 A 
ATOM     19  C   UNL     1      -5.247  12.221  20.194  0.00  0.00    +0.000 A 
ATOM     20  C   UNL     1      -4.554  11.972  18.980  0.00  0.00    +0.000 A 
ENDBRANCH  10  11
BRANCH  10  22
ATOM     21  O   UNL     1      -3.115  14.203  22.598  0.00  0.00    +0.000 OA
ATOM     22  P   UNL     1      -2.664  13.434  21.331  0.00  0.00    +0.000 P 
BRANCH  22  23
ATOM     23  O   UNL     1      -1.352  14.415  21.204  0.00  0.00    +0.000 OA
ATOM     24  H   UNL     1      -0.746  14.191  21.940  0.00  0.00    +0.000 HD
ENDBRANCH  22  23
BRANCH  22  25
ATOM     25  O   UNL     1      -1.925  12.288  22.263  0.00  0.00    +0.000 OA
ATOM     26  H   UNL     1      -1.053  12.134  21.837  0.00  0.00    +0.000 HD
ENDBRANCH  22  25
ENDBRANCH  10  22
ENDBRANCH   8  10
ENDBRANCH   1   8
BRANCH   1  27
ATOM     27  C   UNL     1       0.557   9.872  20.743  0.00  0.00    +0.000 C 
BRANCH  27  28
ATOM     28  C   UNL     1       1.347   8.910  19.897  0.00  0.00    +0.000 A 
ATOM     29  C   UNL     1       1.705   9.230  18.590  0.00  0.00    +0.000 A 
ATOM     30  C   UNL     1       2.425   8.318  17.824  0.00  0.00    +0.000 A 
ATOM     31  C   UNL     1       2.835   7.076  18.346  0.00  0.00    +0.000 A 
ATOM     32  C   UNL     1       2.463   6.772  19.663  0.00  0.00    +0.000 A 
ATOM     33  C   UNL     1       1.718   7.670  20.428  0.00  0.00    +0.000 A 
BRANCH  31  34
ATOM     34  C   UNL     1       3.645   6.138  17.537  0.00  0.00    +0.000 A 
ATOM     35  C   UNL     1       4.581   6.617  16.603  0.00  0.00    +0.000 A 
ATOM     36  C   UNL     1       5.357   5.749  15.834  0.00  0.00    +0.000 A 
ATOM     37  C   UNL     1       5.224   4.374  15.993  0.00  0.00    +0.000 A 
ATOM     38  C   UNL     1       4.313   3.871  16.917  0.00  0.00    +0.000 A 
ATOM     39  C   UNL     1       3.525   4.744  17.671  0.00  0.00    +0.000 A 
ENDBRANCH  31  34
ENDBRANCH  27  28
ENDBRANCH   1  27
TORSDOF 10
ENDMDL
MODEL 8
REMARK VINA RESULT:      -7.9      2.040      3.884
REMARK  Name = 
REMARK  10 active torsions:
REMARK  status: ('A' for Active; 'I' for Inactive)
REMARK    1  A    between atoms: P_2  and  O_3
REMARK    2  A    between atoms: P_2  and  O_4
REMARK    3  A    between atoms: P_2  and  C_5
REMARK    4  A    between atoms: C_5  and  N_6
REMARK    5  A    between atoms: C_5  and  C_26
REMARK    6  A    between atoms: N_6  and  C_7
REMARK    7  A    between atoms: C_7  and  C_8
REMARK    8  A    between atoms: C_7  and  C_21
REMARK    9  A    between atoms: C_8  and  C_9
REMARK   10  A    between atoms: C_12  and  C_13
REMARK                            x       y       z     vdW  Elec       q    Type
REMARK                         _______ _______ _______ _____ _____    ______ ____
ROOT
ATOM      1  C   UNL     1      -0.062  10.968  20.865  0.00  0.00    +0.000 C 
ENDROOT
BRANCH   1   2
ATOM      2  C   UNL     1      -0.647  11.783  21.985  0.00  0.00    +0.000 A 
ATOM      3  N   UNL     1      -0.209  12.937  22.449  0.00  0.00    +0.000 NA
ATOM      4  N   UNL     1      -1.067  13.306  23.453  0.00  0.00    +0.000 NA
ATOM      5  N   UNL     1      -2.017  12.397  23.619  0.00  0.00    +0.000 NA
ATOM      6  N   UNL     1      -1.755  11.442  22.717  0.00  0.00    +0.000 N 
ATOM      7  H   UNL     1      -2.281  10.578  22.751  0.00  0.00    +0.000 HD
ENDBRANCH   1   2
BRANCH   1   8
ATOM      8  N   UNL     1      -1.014  10.538  19.809  0.00  0.00    +0.000 NA
ATOM      9  H   UNL     1      -0.965   9.515  19.755  0.00  0.00    +0.000 HD
BRANCH   8  10
ATOM     10  C   UNL     1      -0.851  11.033  18.396  0.00  0.00    +0.000 C 
BRANCH  10  11
ATOM     11  C   UNL     1      -2.167  10.822  17.617  0.00  0.00    +0.000 A 
ATOM     12  C   UNL     1      -2.098  10.094  16.411  0.00  0.00    +0.000 A 
ATOM     13  C   UNL     1      -3.167  10.073  15.519  0.00  0.00    +0.000 A 
ATOM     14  C   UNL     1      -4.318  10.776  15.817  0.00  0.00    +0.000 A 
ATOM     15  C   UNL     1      -4.470  11.446  17.036  0.00  0.00    +0.000 A 
ATOM     16  C   UNL     1      -5.662  12.140  17.278  0.00  0.00    +0.000 A 
ATOM     17  C   UNL     1      -5.894  12.758  18.499  0.00  0.00    +0.000 A 
ATOM     18  C   UNL     1      -4.948  12.642  19.510  0.00  0.00    +0.000 A 
ATOM     19  C   UNL     1      -3.725  11.989  19.263  0.00  0.00    +0.000 A 
ATOM     20  C   UNL     1      -3.420  11.418  17.999  0.00  0.00    +0.000 A 
ENDBRANCH  10  11
BRANCH  10  22
ATOM     21  O   UNL     1       0.488  14.084  18.957  0.00  0.00    +0.000 OA
ATOM     22  P   UNL     1      -0.125  12.685  18.700  0.00  0.00    +0.000 P 
BRANCH  22  23
ATOM     23  O   UNL     1      -0.876  13.263  17.357  0.00  0.00    +0.000 OA
ATOM     24  H   UNL     1      -0.481  14.134  17.153  0.00  0.00    +0.000 HD
ENDBRANCH  22  23
BRANCH  22  25
ATOM     25  O   UNL     1       1.251  12.200  17.925  0.00  0.00    +0.000 OA
ATOM     26  H   UNL     1       0.978  12.039  16.995  0.00  0.00    +0.000 HD
ENDBRANCH  22  25
ENDBRANCH  10  22
ENDBRANCH   8  10
ENDBRANCH   1   8
BRANCH   1  27
ATOM     27  C   UNL     1       0.485   9.674  21.548  0.00  0.00    +0.000 C 
BRANCH  27  28
ATOM     28  C   UNL     1       1.184   8.707  20.631  0.00  0.00    +0.000 A 
ATOM     29  C   UNL     1       1.636   9.107  19.376  0.00  0.00    +0.000 A 
ATOM     30  C   UNL     1       2.269   8.190  18.541  0.00  0.00    +0.000 A 
ATOM     31  C   UNL     1       2.496   6.859  18.943  0.00  0.00    +0.000 A 
ATOM     32  C   UNL     1       2.031   6.477  20.209  0.00  0.00    +0.000 A 
ATOM     33  C   UNL     1       1.372   7.383  21.040  0.00  0.00    +0.000 A 
BRANCH  31  34
ATOM     34  C   UNL     1       3.216   5.909  18.066  0.00  0.00    +0.000 A 
ATOM     35  C   UNL     1       4.347   6.319  17.337  0.00  0.00    +0.000 A 
ATOM     36  C   UNL     1       5.042   5.437  16.509  0.00  0.00    +0.000 A 
ATOM     37  C   UNL     1       4.627   4.115  16.399  0.00  0.00    +0.000 A 
ATOM     38  C   UNL     1       3.517   3.678  17.116  0.00  0.00    +0.000 A 
ATOM     39  C   UNL     1       2.813   4.570  17.930  0.00  0.00    +0.000 A 
ENDBRANCH  31  34
ENDBRANCH  27  28
ENDBRANCH   1  27
TORSDOF 10
ENDMDL
MODEL 9
REMARK VINA RESULT:      -7.9      3.189      4.985
REMARK  Name = 
REMARK  10 active torsions:
REMARK  status: ('A' for Active; 'I' for Inactive)
REMARK    1  A    between atoms: P_2  and  O_3
REMARK    2  A    between atoms: P_2  and  O_4
REMARK    3  A    between atoms: P_2  and  C_5
REMARK    4  A    between atoms: C_5  and  N_6
REMARK    5  A    between atoms: C_5  and  C_26
REMARK    6  A    between atoms: N_6  and  C_7
REMARK    7  A    between atoms: C_7  and  C_8
REMARK    8  A    between atoms: C_7  and  C_21
REMARK    9  A    between atoms: C_8  and  C_9
REMARK   10  A    between atoms: C_12  and  C_13
REMARK                            x       y       z     vdW  Elec       q    Type
REMARK                         _______ _______ _______ _____ _____    ______ ____
ROOT
ATOM      1  C   UNL     1      -0.484  11.379  19.141  0.00  0.00    +0.000 C 
ENDROOT
BRANCH   1   2
ATOM      2  C   UNL     1      -1.514  10.994  18.116  0.00  0.00    +0.000 A 
ATOM      3  N   UNL     1      -1.915  11.703  17.078  0.00  0.00    +0.000 NA
ATOM      4  N   UNL     1      -2.847  10.941  16.422  0.00  0.00    +0.000 NA
ATOM      5  N   UNL     1      -3.031   9.784  17.040  0.00  0.00    +0.000 NA
ATOM      6  N   UNL     1      -2.213   9.815  18.101  0.00  0.00    +0.000 N 
ATOM      7  H   UNL     1      -2.283   9.082  18.796  0.00  0.00    +0.000 HD
ENDBRANCH   1   2
BRANCH   1   8
ATOM      8  N   UNL     1      -0.363  12.832  19.427  0.00  0.00    +0.000 NA
ATOM      9  H   UNL     1      -0.469  13.326  18.535  0.00  0.00    +0.000 HD
BRANCH   8  10
ATOM     10  C   UNL     1       0.894  13.377  20.053  0.00  0.00    +0.000 C 
BRANCH  10  11
ATOM     11  C   UNL     1       1.605  14.317  19.055  0.00  0.00    +0.000 A 
ATOM     12  C   UNL     1       2.921  13.984  18.674  0.00  0.00    +0.000 A 
ATOM     13  C   UNL     1       3.727  14.891  17.992  0.00  0.00    +0.000 A 
ATOM     14  C   UNL     1       3.231  16.143  17.680  0.00  0.00    +0.000 A 
ATOM     15  C   UNL     1       1.907  16.495  17.960  0.00  0.00    +0.000 A 
ATOM     16  C   UNL     1       1.465  17.779  17.618  0.00  0.00    +0.000 A 
ATOM     17  C   UNL     1       0.141  18.153  17.805  0.00  0.00    +0.000 A 
ATOM     18  C   UNL     1      -0.765  17.221  18.295  0.00  0.00    +0.000 A 
ATOM     19  C   UNL     1      -0.324  15.943  18.688  0.00  0.00    +0.000 A 
ATOM     20  C   UNL     1       1.038  15.555  18.588  0.00  0.00    +0.000 A 
ENDBRANCH  10  11
BRANCH  10  22
ATOM     21  O   UNL     1      -0.299  14.423  23.035  0.00  0.00    +0.000 OA
ATOM     22  P   UNL     1       0.248  13.943  21.668  0.00  0.00    +0.000 P 
BRANCH  22  23
ATOM     23  O   UNL     1       1.771  14.342  22.139  0.00  0.00    +0.000 OA
ATOM     24  H   UNL     1       2.361  13.609  21.872  0.00  0.00    +0.000 HD
ENDBRANCH  22  23
BRANCH  22  25
ATOM     25  O   UNL     1       0.309  12.386  22.214  0.00  0.00    +0.000 OA
ATOM     26  H   UNL     1      -0.097  11.848  21.499  0.00  0.00    +0.000 HD
ENDBRANCH  22  25
ENDBRANCH  10  22
ENDBRANCH   8  10
ENDBRANCH   1   8
BRANCH   1  27
ATOM     27  C   UNL     1       0.880  10.911  18.541  0.00  0.00    +0.000 C 
BRANCH  27  28
ATOM     28  C   UNL     1       1.306   9.518  18.917  0.00  0.00    +0.000 A 
ATOM     29  C   UNL     1       1.081   9.019  20.197  0.00  0.00    +0.000 A 
ATOM     30  C   UNL     1       1.495   7.731  20.523  0.00  0.00    +0.000 A 
ATOM     31  C   UNL     1       2.117   6.893  19.577  0.00  0.00    +0.000 A 
ATOM     32  C   UNL     1       2.336   7.415  18.295  0.00  0.00    +0.000 A 
ATOM     33  C   UNL     1       1.948   8.714  17.969  0.00  0.00    +0.000 A 
BRANCH  31  34
ATOM     34  C   UNL     1       2.505   5.507  19.924  0.00  0.00    +0.000 A 
ATOM     35  C   UNL     1       3.608   4.893  19.304  0.00  0.00    +0.000 A 
ATOM     36  C   UNL     1       3.992   3.590  19.622  0.00  0.00    +0.000 A 
ATOM     37  C   UNL     1       3.287   2.872  20.581  0.00  0.00    +0.000 A 
ATOM     38  C   UNL     1       2.197   3.457  21.218  0.00  0.00    +0.000 A 
ATOM     39  C   UNL     1       1.804   4.756  20.884  0.00  0.00    +0.000 A 
ENDBRANCH  31  34
ENDBRANCH  27  28
ENDBRANCH   1  27
TORSDOF 10
ENDMDL
