MODEL 1
REMARK VINA RESULT:      -8.0      0.000      0.000
REMARK  Name = 
REMARK  5 active torsions:
REMARK  status: ('A' for Active; 'I' for Inactive)
REMARK    1  A    between atoms: C_2  and  C_3
REMARK    2  A    between atoms: C_5  and  C_6
REMARK    3  A    between atoms: C_7  and  C_8
REMARK    4  A    between atoms: C_29  and  C_30
REMARK    5  A    between atoms: C_30  and  O_31
REMARK                            x       y       z     vdW  Elec       q    Type
REMARK                         _______ _______ _______ _____ _____    ______ ____
ROOT
ATOM      1  C   UNL     1       5.612   4.723  15.376  0.00  0.00    +0.000 A 
ATOM      2  C   UNL     1       6.767   5.483  15.573  0.00  0.00    +0.000 A 
ATOM      3  N   UNL     1       7.490   5.374  14.402  0.00  0.00    +0.000 N 
ATOM      4  C   UNL     1       6.836   4.600  13.477  0.00  0.00    +0.000 A 
ATOM      5  C   UNL     1       7.228   4.248  12.182  0.00  0.00    +0.000 A 
ATOM      6  F   UNL     1       8.399   4.656  11.687  0.00  0.00    +0.000 F 
ATOM      7  C   UNL     1       6.378   3.467  11.408  0.00  0.00    +0.000 A 
ATOM      8  C   UNL     1       5.161   3.074  11.931  0.00  0.00    +0.000 A 
ATOM      9  F   UNL     1       4.330   2.338  11.181  0.00  0.00    +0.000 F 
ATOM     10  C   UNL     1       4.766   3.429  13.225  0.00  0.00    +0.000 A 
ATOM     11  C   UNL     1       5.627   4.195  14.043  0.00  0.00    +0.000 A 
ATOM     12  H   UNL     1       8.379   5.823  14.227  0.00  0.00    +0.000 HD
ENDROOT
BRANCH   2  13
ATOM     13  C   UNL     1       7.285   6.273  16.704  0.00  0.00    +0.000 A 
ATOM     14  C   UNL     1       7.676   5.648  17.903  0.00  0.00    +0.000 A 
ATOM     15  C   UNL     1       8.195   6.392  18.969  0.00  0.00    +0.000 A 
ATOM     16  C   UNL     1       8.307   7.772  18.853  0.00  0.00    +0.000 A 
ATOM     17  F   UNL     1       8.796   8.485  19.875  0.00  0.00    +0.000 F 
ATOM     18  C   UNL     1       7.928   8.415  17.686  0.00  0.00    +0.000 A 
ATOM     19  C   UNL     1       7.441   7.664  16.612  0.00  0.00    +0.000 A 
ENDBRANCH   2  13
BRANCH   1  22
ATOM     20  C   UNL     1       3.861   4.948  18.441  0.00  0.00    +0.000 C 
ATOM     21  C   UNL     1       4.869   3.939  17.826  0.00  0.00    +0.000 C 
ATOM     22  C   UNL     1       4.538   4.512  16.442  0.00  0.00    +0.000 C 
ATOM     23  C   UNL     1       4.099   5.809  17.167  0.00  0.00    +0.000 C 
BRANCH  20  25
ATOM     24  O   UNL     1       1.458   4.714  18.037  0.00  0.00    +0.000 OA
ATOM     25  C   UNL     1       2.437   4.384  18.717  0.00  0.00    +0.000 C 
ATOM     26  N   UNL     1       2.301   3.466  19.753  0.00  0.00    +0.000 N 
ATOM     27  C   UNL     1       1.008   2.883  20.056  0.00  0.00    +0.000 C 
ATOM     28  C   UNL     1       1.032   2.713  21.562  0.00  0.00    +0.000 C 
ATOM     29  C   UNL     1       2.485   2.363  21.857  0.00  0.00    +0.000 C 
ATOM     30  C   UNL     1       3.296   3.073  20.756  0.00  0.00    +0.000 C 
BRANCH  30  31
ATOM     31  C   UNL     1       4.399   2.139  20.230  0.00  0.00    +0.000 C 
BRANCH  31  32
ATOM     32  O   UNL     1       5.159   1.588  21.303  0.00  0.00    +0.000 OA
ATOM     33  H   UNL     1       5.580   0.771  20.984  0.00  0.00    +0.000 HD
ENDBRANCH  31  32
ENDBRANCH  30  31
ENDBRANCH  20  25
ENDBRANCH   1  22
TORSDOF 5
ENDMDL
MODEL 2
REMARK VINA RESULT:      -7.6     10.339     12.861
REMARK  Name = 
REMARK  5 active torsions:
REMARK  status: ('A' for Active; 'I' for Inactive)
REMARK    1  A    between atoms: C_2  and  C_3
REMARK    2  A    between atoms: C_5  and  C_6
REMARK    3  A    between atoms: C_7  and  C_8
REMARK    4  A    between atoms: C_29  and  C_30
REMARK    5  A    between atoms: C_30  and  O_31
REMARK                            x       y       z     vdW  Elec       q    Type
REMARK                         _______ _______ _______ _____ _____    ______ ____
ROOT
ATOM      1  C   UNL     1      -2.088  12.451  19.505  0.00  0.00    +0.000 A 
ATOM      2  C   UNL     1      -3.140  12.698  20.389  0.00  0.00    +0.000 A 
ATOM      3  N   UNL     1      -4.285  12.307  19.724  0.00  0.00    +0.000 N 
ATOM      4  C   UNL     1      -4.000  11.811  18.477  0.00  0.00    +0.000 A 
ATOM      5  C   UNL     1      -4.869  11.319  17.499  0.00  0.00    +0.000 A 
ATOM      6  F   UNL     1      -6.189  11.304  17.702  0.00  0.00    +0.000 F 
ATOM      7  C   UNL     1      -4.343  10.837  16.307  0.00  0.00    +0.000 A 
ATOM      8  C   UNL     1      -2.973  10.841  16.125  0.00  0.00    +0.000 A 
ATOM      9  F   UNL     1      -2.459  10.359  14.986  0.00  0.00    +0.000 F 
ATOM     10  C   UNL     1      -2.101  11.329  17.104  0.00  0.00    +0.000 A 
ATOM     11  C   UNL     1      -2.615  11.855  18.312  0.00  0.00    +0.000 A 
ATOM     12  H   UNL     1      -5.220  12.353  20.106  0.00  0.00    +0.000 HD
ENDROOT
BRANCH   2  13
ATOM     13  C   UNL     1      -3.217  13.259  21.749  0.00  0.00    +0.000 A 
ATOM     14  C   UNL     1      -3.492  12.435  22.855  0.00  0.00    +0.000 A 
ATOM     15  C   UNL     1      -3.537  12.958  24.153  0.00  0.00    +0.000 A 
ATOM     16  C   UNL     1      -3.329  14.317  24.352  0.00  0.00    +0.000 A 
ATOM     17  F   UNL     1      -3.380  14.820  25.592  0.00  0.00    +0.000 F 
ATOM     18  C   UNL     1      -3.059  15.154  23.282  0.00  0.00    +0.000 A 
ATOM     19  C   UNL     1      -2.982  14.620  21.992  0.00  0.00    +0.000 A 
ENDBRANCH   2  13
BRANCH   1  22
ATOM     20  C   UNL     1       1.303  13.328  19.012  0.00  0.00    +0.000 C 
ATOM     21  C   UNL     1       0.530  11.992  19.183  0.00  0.00    +0.000 C 
ATOM     22  C   UNL     1      -0.627  12.786  19.803  0.00  0.00    +0.000 C 
ATOM     23  C   UNL     1      -0.090  14.021  19.037  0.00  0.00    +0.000 C 
BRANCH  20  25
ATOM     24  O   UNL     1       2.423  12.964  21.159  0.00  0.00    +0.000 OA
ATOM     25  C   UNL     1       2.329  13.654  20.135  0.00  0.00    +0.000 C 
ATOM     26  N   UNL     1       3.166  14.747  19.941  0.00  0.00    +0.000 N 
ATOM     27  C   UNL     1       4.161  15.101  20.936  0.00  0.00    +0.000 C 
ATOM     28  C   UNL     1       4.215  16.614  20.872  0.00  0.00    +0.000 C 
ATOM     29  C   UNL     1       3.991  16.915  19.395  0.00  0.00    +0.000 C 
ATOM     30  C   UNL     1       3.105  15.763  18.885  0.00  0.00    +0.000 C 
BRANCH  30  31
ATOM     31  C   UNL     1       3.603  15.286  17.510  0.00  0.00    +0.000 C 
BRANCH  31  32
ATOM     32  O   UNL     1       4.700  14.387  17.646  0.00  0.00    +0.000 OA
ATOM     33  H   UNL     1       5.143  14.321  16.782  0.00  0.00    +0.000 HD
ENDBRANCH  31  32
ENDBRANCH  30  31
ENDBRANCH  20  25
ENDBRANCH   1  22
TORSDOF 5
ENDMDL
MODEL 3
REMARK VINA RESULT:      -7.3      4.455      6.287
REMARK  Name = 
REMARK  5 active torsions:
REMARK  status: ('A' for Active; 'I' for Inactive)
REMARK    1  A    between atoms: C_2  and  C_3
REMARK    2  A    between atoms: C_5  and  C_6
REMARK    3  A    between atoms: C_7  and  C_8
REMARK    4  A    between atoms: C_29  and  C_30
REMARK    5  A    between atoms: C_30  and  O_31
REMARK                            x       y       z     vdW  Elec       q    Type
REMARK                         _______ _______ _______ _____ _____    ______ ____
ROOT
ATOM      1  C   UNL     1       3.526   5.478  18.368  0.00  0.00    +0.000 A 
ATOM      2  C   UNL     1       4.903   5.247  18.395  0.00  0.00    +0.000 A 
ATOM      3  N   UNL     1       5.050   3.882  18.538  0.00  0.00    +0.000 N 
ATOM      4  C   UNL     1       3.835   3.247  18.583  0.00  0.00    +0.000 A 
ATOM      5  C   UNL     1       3.553   1.885  18.721  0.00  0.00    +0.000 A 
ATOM      6  F   UNL     1       4.537   0.992  18.856  0.00  0.00    +0.000 F 
ATOM      7  C   UNL     1       2.228   1.464  18.712  0.00  0.00    +0.000 A 
ATOM      8  C   UNL     1       1.225   2.401  18.550  0.00  0.00    +0.000 A 
ATOM      9  F   UNL     1      -0.052   1.999  18.520  0.00  0.00    +0.000 F 
ATOM     10  C   UNL     1       1.507   3.764  18.407  0.00  0.00    +0.000 A 
ATOM     11  C   UNL     1       2.844   4.220  18.445  0.00  0.00    +0.000 A 
ATOM     12  H   UNL     1       5.936   3.397  18.581  0.00  0.00    +0.000 HD
ENDROOT
BRANCH   2  13
ATOM     13  C   UNL     1       6.084   6.126  18.322  0.00  0.00    +0.000 A 
ATOM     14  C   UNL     1       6.124   7.208  17.423  0.00  0.00    +0.000 A 
ATOM     15  C   UNL     1       7.232   8.062  17.370  0.00  0.00    +0.000 A 
ATOM     16  C   UNL     1       8.320   7.827  18.201  0.00  0.00    +0.000 A 
ATOM     17  F   UNL     1       9.383   8.639  18.146  0.00  0.00    +0.000 F 
ATOM     18  C   UNL     1       8.310   6.769  19.094  0.00  0.00    +0.000 A 
ATOM     19  C   UNL     1       7.188   5.938  19.167  0.00  0.00    +0.000 A 
ENDBRANCH   2  13
BRANCH   1  22
ATOM     20  C   UNL     1       1.282   8.165  18.874  0.00  0.00    +0.000 C 
ATOM     21  C   UNL     1       1.458   7.075  17.782  0.00  0.00    +0.000 C 
ATOM     22  C   UNL     1       2.896   6.867  18.276  0.00  0.00    +0.000 C 
ATOM     23  C   UNL     1       2.431   7.445  19.637  0.00  0.00    +0.000 C 
BRANCH  20  25
ATOM     24  O   UNL     1       1.929   9.894  17.266  0.00  0.00    +0.000 OA
ATOM     25  C   UNL     1       1.497   9.630  18.395  0.00  0.00    +0.000 C 
ATOM     26  N   UNL     1       1.161  10.649  19.279  0.00  0.00    +0.000 N 
ATOM     27  C   UNL     1       1.316  12.040  18.895  0.00  0.00    +0.000 C 
ATOM     28  C   UNL     1       1.710  12.730  20.185  0.00  0.00    +0.000 C 
ATOM     29  C   UNL     1       0.927  11.970  21.249  0.00  0.00    +0.000 C 
ATOM     30  C   UNL     1       0.788  10.539  20.693  0.00  0.00    +0.000 C 
BRANCH  30  31
ATOM     31  C   UNL     1      -0.638  10.017  20.938  0.00  0.00    +0.000 C 
BRANCH  31  32
ATOM     32  O   UNL     1      -0.622   8.845  21.750  0.00  0.00    +0.000 OA
ATOM     33  H   UNL     1       0.296   8.690  22.035  0.00  0.00    +0.000 HD
ENDBRANCH  31  32
ENDBRANCH  30  31
ENDBRANCH  20  25
ENDBRANCH   1  22
TORSDOF 5
ENDMDL
MODEL 4
REMARK VINA RESULT:      -7.3      4.302      7.138
REMARK  Name = 
REMARK  5 active torsions:
REMARK  status: ('A' for Active; 'I' for Inactive)
REMARK    1  A    between atoms: C_2  and  C_3
REMARK    2  A    between atoms: C_5  and  C_6
REMARK    3  A    between atoms: C_7  and  C_8
REMARK    4  A    between atoms: C_29  and  C_30
REMARK    5  A    between atoms: C_30  and  O_31
REMARK                            x       y       z     vdW  Elec       q    Type
REMARK                         _______ _______ _______ _____ _____    ______ ____
ROOT
ATOM      1  C   UNL     1       3.821   4.909  18.689  0.00  0.00    +0.000 A 
ATOM      2  C   UNL     1       4.828   4.276  17.958  0.00  0.00    +0.000 A 
ATOM      3  N   UNL     1       5.048   3.070  18.593  0.00  0.00    +0.000 N 
ATOM      4  C   UNL     1       4.218   2.910  19.672  0.00  0.00    +0.000 A 
ATOM      5  C   UNL     1       4.127   1.842  20.570  0.00  0.00    +0.000 A 
ATOM      6  F   UNL     1       4.936   0.785  20.459  0.00  0.00    +0.000 F 
ATOM      7  C   UNL     1       3.178   1.889  21.584  0.00  0.00    +0.000 A 
ATOM      8  C   UNL     1       2.336   2.982  21.667  0.00  0.00    +0.000 A 
ATOM      9  F   UNL     1       1.405   3.022  22.630  0.00  0.00    +0.000 F 
ATOM     10  C   UNL     1       2.422   4.049  20.768  0.00  0.00    +0.000 A 
ATOM     11  C   UNL     1       3.401   4.039  19.748  0.00  0.00    +0.000 A 
ATOM     12  H   UNL     1       5.718   2.374  18.296  0.00  0.00    +0.000 HD
ENDROOT
BRANCH   2  13
ATOM     13  C   UNL     1       5.613   4.652  16.768  0.00  0.00    +0.000 A 
ATOM     14  C   UNL     1       6.647   5.603  16.857  0.00  0.00    +0.000 A 
ATOM     15  C   UNL     1       7.413   5.942  15.736  0.00  0.00    +0.000 A 
ATOM     16  C   UNL     1       7.137   5.349  14.511  0.00  0.00    +0.000 A 
ATOM     17  F   UNL     1       7.865   5.679  13.436  0.00  0.00    +0.000 F 
ATOM     18  C   UNL     1       6.124   4.412  14.393  0.00  0.00    +0.000 A 
ATOM     19  C   UNL     1       5.383   4.052  15.522  0.00  0.00    +0.000 A 
ENDBRANCH   2  13
BRANCH   1  22
ATOM     20  C   UNL     1       1.726   7.759  18.677  0.00  0.00    +0.000 C 
ATOM     21  C   UNL     1       1.908   6.529  17.747  0.00  0.00    +0.000 C 
ATOM     22  C   UNL     1       3.290   6.307  18.376  0.00  0.00    +0.000 C 
ATOM     23  C   UNL     1       2.768   7.080  19.613  0.00  0.00    +0.000 C 
BRANCH  20  25
ATOM     24  O   UNL     1       2.742   9.229  17.004  0.00  0.00    +0.000 OA
ATOM     25  C   UNL     1       2.069   9.136  18.038  0.00  0.00    +0.000 C 
ATOM     26  N   UNL     1       1.569  10.274  18.661  0.00  0.00    +0.000 N 
ATOM     27  C   UNL     1       1.832  11.591  18.112  0.00  0.00    +0.000 C 
ATOM     28  C   UNL     1       1.949  12.476  19.337  0.00  0.00    +0.000 C 
ATOM     29  C   UNL     1       0.938  11.878  20.307  0.00  0.00    +0.000 C 
ATOM     30  C   UNL     1       0.894  10.377  19.959  0.00  0.00    +0.000 C 
BRANCH  30  31
ATOM     31  C   UNL     1      -0.561   9.878  19.964  0.00  0.00    +0.000 C 
BRANCH  31  32
ATOM     32  O   UNL     1      -1.248  10.290  18.786  0.00  0.00    +0.000 OA
ATOM     33  H   UNL     1      -0.645  10.852  18.267  0.00  0.00    +0.000 HD
ENDBRANCH  31  32
ENDBRANCH  30  31
ENDBRANCH  20  25
ENDBRANCH   1  22
TORSDOF 5
ENDMDL
MODEL 5
REMARK VINA RESULT:      -7.2      4.656      6.633
REMARK  Name = 
REMARK  5 active torsions:
REMARK  status: ('A' for Active; 'I' for Inactive)
REMARK    1  A    between atoms: C_2  and  C_3
REMARK    2  A    between atoms: C_5  and  C_6
REMARK    3  A    between atoms: C_7  and  C_8
REMARK    4  A    between atoms: C_29  and  C_30
REMARK    5  A    between atoms: C_30  and  O_31
REMARK                            x       y       z     vdW  Elec       q    Type
REMARK                         _______ _______ _______ _____ _____    ______ ____
ROOT
ATOM      1  C   UNL     1       3.463   5.732  18.409  0.00  0.00    +0.000 A 
ATOM      2  C   UNL     1       4.835   5.469  18.391  0.00  0.00    +0.000 A 
ATOM      3  N   UNL     1       4.953   4.098  18.509  0.00  0.00    +0.000 N 
ATOM      4  C   UNL     1       3.725   3.491  18.582  0.00  0.00    +0.000 A 
ATOM      5  C   UNL     1       3.414   2.134  18.709  0.00  0.00    +0.000 A 
ATOM      6  F   UNL     1       4.381   1.217  18.800  0.00  0.00    +0.000 F 
ATOM      7  C   UNL     1       2.081   1.745  18.735  0.00  0.00    +0.000 A 
ATOM      8  C   UNL     1       1.096   2.708  18.616  0.00  0.00    +0.000 A 
ATOM      9  F   UNL     1      -0.191   2.336  18.620  0.00  0.00    +0.000 F 
ATOM     10  C   UNL     1       1.405   4.065  18.485  0.00  0.00    +0.000 A 
ATOM     11  C   UNL     1       2.754   4.489  18.489  0.00  0.00    +0.000 A 
ATOM     12  H   UNL     1       5.828   3.592  18.518  0.00  0.00    +0.000 HD
ENDROOT
BRANCH   2  13
ATOM     13  C   UNL     1       6.034   6.320  18.295  0.00  0.00    +0.000 A 
ATOM     14  C   UNL     1       6.055   7.443  17.447  0.00  0.00    +0.000 A 
ATOM     15  C   UNL     1       7.181   8.271  17.374  0.00  0.00    +0.000 A 
ATOM     16  C   UNL     1       8.305   7.969  18.132  0.00  0.00    +0.000 A 
ATOM     17  F   UNL     1       9.386   8.757  18.057  0.00  0.00    +0.000 F 
ATOM     18  C   UNL     1       8.314   6.869  18.973  0.00  0.00    +0.000 A 
ATOM     19  C   UNL     1       7.175   6.064  19.068  0.00  0.00    +0.000 A 
ENDBRANCH   2  13
BRANCH   1  22
ATOM     20  C   UNL     1       1.130   8.377  18.672  0.00  0.00    +0.000 C 
ATOM     21  C   UNL     1       1.619   7.457  17.520  0.00  0.00    +0.000 C 
ATOM     22  C   UNL     1       2.864   7.136  18.358  0.00  0.00    +0.000 C 
ATOM     23  C   UNL     1       2.030   7.518  19.607  0.00  0.00    +0.000 C 
BRANCH  20  25
ATOM     24  O   UNL     1       2.578  10.291  18.190  0.00  0.00    +0.000 OA
ATOM     25  C   UNL     1       1.449   9.890  18.499  0.00  0.00    +0.000 C 
ATOM     26  N   UNL     1       0.405  10.790  18.683  0.00  0.00    +0.000 N 
ATOM     27  C   UNL     1       0.622  12.215  18.520  0.00  0.00    +0.000 C 
ATOM     28  C   UNL     1      -0.297  12.841  19.549  0.00  0.00    +0.000 C 
ATOM     29  C   UNL     1      -1.506  11.914  19.558  0.00  0.00    +0.000 C 
ATOM     30  C   UNL     1      -0.944  10.526  19.196  0.00  0.00    +0.000 C 
BRANCH  30  31
ATOM     31  C   UNL     1      -1.880   9.823  18.198  0.00  0.00    +0.000 C 
BRANCH  31  32
ATOM     32  O   UNL     1      -1.644  10.276  16.868  0.00  0.00    +0.000 OA
ATOM     33  H   UNL     1      -2.272  10.995  16.679  0.00  0.00    +0.000 HD
ENDBRANCH  31  32
ENDBRANCH  30  31
ENDBRANCH  20  25
ENDBRANCH   1  22
TORSDOF 5
ENDMDL
MODEL 6
REMARK VINA RESULT:      -7.2     11.309     14.695
REMARK  Name = 
REMARK  5 active torsions:
REMARK  status: ('A' for Active; 'I' for Inactive)
REMARK    1  A    between atoms: C_2  and  C_3
REMARK    2  A    between atoms: C_5  and  C_6
REMARK    3  A    between atoms: C_7  and  C_8
REMARK    4  A    between atoms: C_29  and  C_30
REMARK    5  A    between atoms: C_30  and  O_31
REMARK                            x       y       z     vdW  Elec       q    Type
REMARK                         _______ _______ _______ _____ _____    ______ ____
ROOT
ATOM      1  C   UNL     1      -3.520  13.500  22.799  0.00  0.00    +0.000 A 
ATOM      2  C   UNL     1      -4.742  13.596  22.130  0.00  0.00    +0.000 A 
ATOM      3  N   UNL     1      -5.368  14.710  22.655  0.00  0.00    +0.000 N 
ATOM      4  C   UNL     1      -4.591  15.324  23.604  0.00  0.00    +0.000 A 
ATOM      5  C   UNL     1      -4.859  16.465  24.365  0.00  0.00    +0.000 A 
ATOM      6  F   UNL     1      -6.020  17.114  24.239  0.00  0.00    +0.000 F 
ATOM      7  C   UNL     1      -3.898  16.925  25.257  0.00  0.00    +0.000 A 
ATOM      8  C   UNL     1      -2.694  16.253  25.355  0.00  0.00    +0.000 A 
ATOM      9  F   UNL     1      -1.756  16.703  26.199  0.00  0.00    +0.000 F 
ATOM     10  C   UNL     1      -2.423  15.113  24.592  0.00  0.00    +0.000 A 
ATOM     11  C   UNL     1      -3.397  14.607  23.701  0.00  0.00    +0.000 A 
ATOM     12  H   UNL     1      -6.274  15.053  22.367  0.00  0.00    +0.000 HD
ENDROOT
BRANCH   2  13
ATOM     13  C   UNL     1      -5.400  12.786  21.090  0.00  0.00    +0.000 A 
ATOM     14  C   UNL     1      -4.902  12.757  19.775  0.00  0.00    +0.000 A 
ATOM     15  C   UNL     1      -5.507  11.966  18.791  0.00  0.00    +0.000 A 
ATOM     16  C   UNL     1      -6.630  11.214  19.109  0.00  0.00    +0.000 A 
ATOM     17  F   UNL     1      -7.214  10.463  18.167  0.00  0.00    +0.000 F 
ATOM     18  C   UNL     1      -7.145  11.224  20.395  0.00  0.00    +0.000 A 
ATOM     19  C   UNL     1      -6.518  11.990  21.383  0.00  0.00    +0.000 A 
ENDBRANCH   2  13
BRANCH   1  22
ATOM     20  C   UNL     1      -0.553  11.810  21.879  0.00  0.00    +0.000 C 
ATOM     21  C   UNL     1      -1.919  12.077  21.192  0.00  0.00    +0.000 C 
ATOM     22  C   UNL     1      -2.512  12.373  22.576  0.00  0.00    +0.000 C 
ATOM     23  C   UNL     1      -1.072  12.709  23.038  0.00  0.00    +0.000 C 
BRANCH  20  25
ATOM     24  O   UNL     1      -0.435   9.803  23.276  0.00  0.00    +0.000 OA
ATOM     25  C   UNL     1      -0.232  10.315  22.168  0.00  0.00    +0.000 C 
ATOM     26  N   UNL     1       0.278   9.555  21.121  0.00  0.00    +0.000 N 
ATOM     27  C   UNL     1       0.583   8.149  21.311  0.00  0.00    +0.000 C 
ATOM     28  C   UNL     1       1.796   7.920  20.432  0.00  0.00    +0.000 C 
ATOM     29  C   UNL     1       1.547   8.833  19.238  0.00  0.00    +0.000 C 
ATOM     30  C   UNL     1       0.728  10.010  19.802  0.00  0.00    +0.000 C 
BRANCH  30  31
ATOM     31  C   UNL     1      -0.407  10.374  18.830  0.00  0.00    +0.000 C 
BRANCH  31  32
ATOM     32  O   UNL     1      -0.174  11.640  18.219  0.00  0.00    +0.000 OA
ATOM     33  H   UNL     1      -0.886  12.243  18.496  0.00  0.00    +0.000 HD
ENDBRANCH  31  32
ENDBRANCH  30  31
ENDBRANCH  20  25
ENDBRANCH   1  22
TORSDOF 5
ENDMDL
MODEL 7
REMARK VINA RESULT:      -7.1     10.127     12.482
REMARK  Name = 
REMARK  5 active torsions:
REMARK  status: ('A' for Active; 'I' for Inactive)
REMARK    1  A    between atoms: C_2  and  C_3
REMARK    2  A    between atoms: C_5  and  C_6
REMARK    3  A    between atoms: C_7  and  C_8
REMARK    4  A    between atoms: C_29  and  C_30
REMARK    5  A    between atoms: C_30  and  O_31
REMARK                            x       y       z     vdW  Elec       q    Type
REMARK                         _______ _______ _______ _____ _____    ______ ____
ROOT
ATOM      1  C   UNL     1      -1.524  12.381  18.602  0.00  0.00    +0.000 A 
ATOM      2  C   UNL     1      -2.331  12.571  19.726  0.00  0.00    +0.000 A 
ATOM      3  N   UNL     1      -3.579  12.097  19.373  0.00  0.00    +0.000 N 
ATOM      4  C   UNL     1      -3.587  11.605  18.093  0.00  0.00    +0.000 A 
ATOM      5  C   UNL     1      -4.642  11.043  17.368  0.00  0.00    +0.000 A 
ATOM      6  F   UNL     1      -5.863  10.945  17.900  0.00  0.00    +0.000 F 
ATOM      7  C   UNL     1      -4.406  10.581  16.079  0.00  0.00    +0.000 A 
ATOM      8  C   UNL     1      -3.131  10.672  15.554  0.00  0.00    +0.000 A 
ATOM      9  F   UNL     1      -2.893  10.209  14.320  0.00  0.00    +0.000 F 
ATOM     10  C   UNL     1      -2.073  11.229  16.280  0.00  0.00    +0.000 A 
ATOM     11  C   UNL     1      -2.296  11.736  17.581  0.00  0.00    +0.000 A 
ATOM     12  H   UNL     1      -4.386  12.087  19.981  0.00  0.00    +0.000 HD
ENDROOT
BRANCH   2  13
ATOM     13  C   UNL     1      -2.096  13.144  21.063  0.00  0.00    +0.000 A 
ATOM     14  C   UNL     1      -1.786  12.317  22.158  0.00  0.00    +0.000 A 
ATOM     15  C   UNL     1      -1.534  12.860  23.424  0.00  0.00    +0.000 A 
ATOM     16  C   UNL     1      -1.611  14.234  23.609  0.00  0.00    +0.000 A 
ATOM     17  F   UNL     1      -1.377  14.753  24.822  0.00  0.00    +0.000 F 
ATOM     18  C   UNL     1      -1.916  15.073  22.550  0.00  0.00    +0.000 A 
ATOM     19  C   UNL     1      -2.135  14.529  21.281  0.00  0.00    +0.000 A 
ENDBRANCH   2  13
BRANCH   1  22
ATOM     20  C   UNL     1       1.608  13.751  19.510  0.00  0.00    +0.000 C 
ATOM     21  C   UNL     1       0.367  14.272  18.736  0.00  0.00    +0.000 C 
ATOM     22  C   UNL     1      -0.061  12.815  18.519  0.00  0.00    +0.000 C 
ATOM     23  C   UNL     1       0.779  12.461  19.772  0.00  0.00    +0.000 C 
BRANCH  20  25
ATOM     24  O   UNL     1       3.174  12.665  17.972  0.00  0.00    +0.000 OA
ATOM     25  C   UNL     1       2.919  13.649  18.678  0.00  0.00    +0.000 C 
ATOM     26  N   UNL     1       3.799  14.725  18.735  0.00  0.00    +0.000 N 
ATOM     27  C   UNL     1       5.033  14.709  17.971  0.00  0.00    +0.000 C 
ATOM     28  C   UNL     1       6.015  15.451  18.856  0.00  0.00    +0.000 C 
ATOM     29  C   UNL     1       5.156  16.518  19.524  0.00  0.00    +0.000 C 
ATOM     30  C   UNL     1       3.751  15.893  19.620  0.00  0.00    +0.000 C 
BRANCH  30  31
ATOM     31  C   UNL     1       2.685  16.936  19.242  0.00  0.00    +0.000 C 
BRANCH  31  32
ATOM     32  O   UNL     1       2.858  17.382  17.900  0.00  0.00    +0.000 OA
ATOM     33  H   UNL     1       3.808  17.350  17.692  0.00  0.00    +0.000 HD
ENDBRANCH  31  32
ENDBRANCH  30  31
ENDBRANCH  20  25
ENDBRANCH   1  22
TORSDOF 5
ENDMDL
MODEL 8
REMARK VINA RESULT:      -7.1     10.395     11.805
REMARK  Name = 
REMARK  5 active torsions:
REMARK  status: ('A' for Active; 'I' for Inactive)
REMARK    1  A    between atoms: C_2  and  C_3
REMARK    2  A    between atoms: C_5  and  C_6
REMARK    3  A    between atoms: C_7  and  C_8
REMARK    4  A    between atoms: C_29  and  C_30
REMARK    5  A    between atoms: C_30  and  O_31
REMARK                            x       y       z     vdW  Elec       q    Type
REMARK                         _______ _______ _______ _____ _____    ______ ____
ROOT
ATOM      1  C   UNL     1       8.857  13.942  20.363  0.00  0.00    +0.000 A 
ATOM      2  C   UNL     1       9.173  13.117  21.444  0.00  0.00    +0.000 A 
ATOM      3  N   UNL     1      10.217  12.323  21.014  0.00  0.00    +0.000 N 
ATOM      4  C   UNL     1      10.581  12.623  19.726  0.00  0.00    +0.000 A 
ATOM      5  C   UNL     1      11.581  12.053  18.933  0.00  0.00    +0.000 A 
ATOM      6  F   UNL     1      12.333  11.050  19.396  0.00  0.00    +0.000 F 
ATOM      7  C   UNL     1      11.790  12.545  17.650  0.00  0.00    +0.000 A 
ATOM      8  C   UNL     1      11.016  13.597  17.199  0.00  0.00    +0.000 A 
ATOM      9  F   UNL     1      11.227  14.088  15.970  0.00  0.00    +0.000 F 
ATOM     10  C   UNL     1      10.019  14.172  17.993  0.00  0.00    +0.000 A 
ATOM     11  C   UNL     1       9.766  13.667  19.288  0.00  0.00    +0.000 A 
ATOM     12  H   UNL     1      10.680  11.622  21.576  0.00  0.00    +0.000 HD
ENDROOT
BRANCH   2  13
ATOM     13  C   UNL     1       8.623  12.964  22.802  0.00  0.00    +0.000 A 
ATOM     14  C   UNL     1       8.701  14.015  23.735  0.00  0.00    +0.000 A 
ATOM     15  C   UNL     1       8.155  13.884  25.017  0.00  0.00    +0.000 A 
ATOM     16  C   UNL     1       7.545  12.692  25.385  0.00  0.00    +0.000 A 
ATOM     17  F   UNL     1       7.029  12.563  26.614  0.00  0.00    +0.000 F 
ATOM     18  C   UNL     1       7.456  11.639  24.490  0.00  0.00    +0.000 A 
ATOM     19  C   UNL     1       7.974  11.786  23.199  0.00  0.00    +0.000 A 
ENDBRANCH   2  13
BRANCH   1  22
ATOM     20  C   UNL     1       6.364  16.169  19.206  0.00  0.00    +0.000 C 
ATOM     21  C   UNL     1       7.835  16.321  19.680  0.00  0.00    +0.000 C 
ATOM     22  C   UNL     1       7.713  14.956  20.369  0.00  0.00    +0.000 C 
ATOM     23  C   UNL     1       6.576  14.636  19.367  0.00  0.00    +0.000 C 
BRANCH  20  25
ATOM     24  O   UNL     1       5.619  17.630  21.024  0.00  0.00    +0.000 OA
ATOM     25  C   UNL     1       5.301  16.882  20.092  0.00  0.00    +0.000 C 
ATOM     26  N   UNL     1       3.962  16.666  19.784  0.00  0.00    +0.000 N 
ATOM     27  C   UNL     1       2.915  17.312  20.553  0.00  0.00    +0.000 C 
ATOM     28  C   UNL     1       1.797  16.289  20.571  0.00  0.00    +0.000 C 
ATOM     29  C   UNL     1       1.898  15.627  19.203  0.00  0.00    +0.000 C 
ATOM     30  C   UNL     1       3.391  15.707  18.832  0.00  0.00    +0.000 C 
BRANCH  30  31
ATOM     31  C   UNL     1       3.545  16.105  17.354  0.00  0.00    +0.000 C 
BRANCH  31  32
ATOM     32  O   UNL     1       3.013  17.405  17.115  0.00  0.00    +0.000 OA
ATOM     33  H   UNL     1       2.152  17.301  16.674  0.00  0.00    +0.000 HD
ENDBRANCH  31  32
ENDBRANCH  30  31
ENDBRANCH  20  25
ENDBRANCH   1  22
TORSDOF 5
ENDMDL
MODEL 9
REMARK VINA RESULT:      -7.1     10.038     12.080
REMARK  Name = 
REMARK  5 active torsions:
REMARK  status: ('A' for Active; 'I' for Inactive)
REMARK    1  A    between atoms: C_2  and  C_3
REMARK    2  A    between atoms: C_5  and  C_6
REMARK    3  A    between atoms: C_7  and  C_8
REMARK    4  A    between atoms: C_29  and  C_30
REMARK    5  A    between atoms: C_30  and  O_31
REMARK                            x       y       z     vdW  Elec       q    Type
REMARK                         _______ _______ _______ _____ _____    ______ ____
ROOT
ATOM      1  C   UNL     1       0.174  13.746  19.321  0.00  0.00    +0.000 A 
ATOM      2  C   UNL     1       1.138  12.737  19.367  0.00  0.00    +0.000 A 
ATOM      3  N   UNL     1       2.295  13.302  18.870  0.00  0.00    +0.000 N 
ATOM      4  C   UNL     1       2.107  14.618  18.532  0.00  0.00    +0.000 A 
ATOM      5  C   UNL     1       3.018  15.533  17.997  0.00  0.00    +0.000 A 
ATOM      6  F   UNL     1       4.273  15.167  17.719  0.00  0.00    +0.000 F 
ATOM      7  C   UNL     1       2.605  16.838  17.758  0.00  0.00    +0.000 A 
ATOM      8  C   UNL     1       1.310  17.203  18.073  0.00  0.00    +0.000 A 
ATOM      9  F   UNL     1       0.912  18.465  17.864  0.00  0.00    +0.000 F 
ATOM     10  C   UNL     1       0.398  16.289  18.612  0.00  0.00    +0.000 A 
ATOM     11  C   UNL     1       0.785  14.948  18.833  0.00  0.00    +0.000 A 
ATOM     12  H   UNL     1       3.181  12.823  18.782  0.00  0.00    +0.000 HD
ENDROOT
BRANCH   2  13
ATOM     13  C   UNL     1       1.115  11.327  19.796  0.00  0.00    +0.000 A 
ATOM     14  C   UNL     1       1.280  10.286  18.863  0.00  0.00    +0.000 A 
ATOM     15  C   UNL     1       1.287   8.947  19.269  0.00  0.00    +0.000 A 
ATOM     16  C   UNL     1       1.108   8.635  20.610  0.00  0.00    +0.000 A 
ATOM     17  F   UNL     1       1.108   7.354  20.999  0.00  0.00    +0.000 F 
ATOM     18  C   UNL     1       0.942   9.638  21.551  0.00  0.00    +0.000 A 
ATOM     19  C   UNL     1       0.967  10.975  21.145  0.00  0.00    +0.000 A 
ENDBRANCH   2  13
BRANCH   1  22
ATOM     20  C   UNL     1      -2.683  12.565  21.039  0.00  0.00    +0.000 C 
ATOM     21  C   UNL     1      -1.951  12.169  19.728  0.00  0.00    +0.000 C 
ATOM     22  C   UNL     1      -1.286  13.552  19.728  0.00  0.00    +0.000 C 
ATOM     23  C   UNL     1      -1.529  13.585  21.258  0.00  0.00    +0.000 C 
BRANCH  20  25
ATOM     24  O   UNL     1      -4.719  13.050  19.769  0.00  0.00    +0.000 OA
ATOM     25  C   UNL     1      -4.135  13.095  20.859  0.00  0.00    +0.000 C 
ATOM     26  N   UNL     1      -4.774  13.607  21.982  0.00  0.00    +0.000 N 
ATOM     27  C   UNL     1      -6.135  14.102  21.895  0.00  0.00    +0.000 C 
ATOM     28  C   UNL     1      -6.164  15.257  22.876  0.00  0.00    +0.000 C 
ATOM     29  C   UNL     1      -5.238  14.796  23.995  0.00  0.00    +0.000 C 
ATOM     30  C   UNL     1      -4.204  13.885  23.305  0.00  0.00    +0.000 C 
BRANCH  30  31
ATOM     31  C   UNL     1      -3.948  12.636  24.165  0.00  0.00    +0.000 C 
BRANCH  31  32
ATOM     32  O   UNL     1      -5.014  12.421  25.087  0.00  0.00    +0.000 OA
ATOM     33  H   UNL     1      -4.707  11.786  25.758  0.00  0.00    +0.000 HD
ENDBRANCH  31  32
ENDBRANCH  30  31
ENDBRANCH  20  25
ENDBRANCH   1  22
TORSDOF 5
ENDMDL
