MODEL 1
REMARK VINA RESULT:      -8.3      0.000      0.000
REMARK  Name = 
REMARK  3 active torsions:
REMARK  status: ('A' for Active; 'I' for Inactive)
REMARK    1  A    between atoms: C_11  and  C_12
REMARK    2  A    between atoms: C_12  and  C_13
REMARK    3  A    between atoms: N_16  and  C_17
REMARK                            x       y       z     vdW  Elec       q    Type
REMARK                         _______ _______ _______ _____ _____    ______ ____
ROOT
ATOM      1  C   UNL     1       3.600   5.706  18.814  0.00  0.00    +0.000 C 
ENDROOT
BRANCH   1  12
ATOM      2  O   UNL     1       1.668   6.068  20.841  0.00  0.00    +0.000 OA
ATOM      3  C   UNL     1       1.940   7.050  20.161  0.00  0.00    +0.000 C 
ATOM      4  C   UNL     1       1.327   8.370  20.455  0.00  0.00    +0.000 A 
ATOM      5  C   UNL     1       0.934   8.669  21.764  0.00  0.00    +0.000 A 
ATOM      6  C   UNL     1       0.491   9.954  22.071  0.00  0.00    +0.000 A 
ATOM      7  C   UNL     1       0.414  10.921  21.069  0.00  0.00    +0.000 A 
ATOM      8  C   UNL     1       0.771  10.609  19.754  0.00  0.00    +0.000 A 
ATOM      9  C   UNL     1       1.236   9.328  19.430  0.00  0.00    +0.000 A 
ATOM     10  C   UNL     1       1.688   9.029  18.020  0.00  0.00    +0.000 C 
ATOM     11  C   UNL     1       2.120   7.573  17.790  0.00  0.00    +0.000 C 
ATOM     12  C   UNL     1       2.918   7.069  18.999  0.00  0.00    +0.000 C 
ENDBRANCH   1  12
BRANCH   1  13
ATOM     13  C   UNL     1       5.099   5.749  18.454  0.00  0.00    +0.000 C 
ATOM     14  C   UNL     1       5.359   6.761  17.322  0.00  0.00    +0.000 C 
ATOM     15  C   UNL     1       5.053   6.203  15.930  0.00  0.00    +0.000 C 
ATOM     16  N   UNL     1       5.843   4.987  15.750  0.00  0.00    +0.000 N 
ATOM     17  C   UNL     1       5.495   3.904  16.675  0.00  0.00    +0.000 C 
ATOM     18  C   UNL     1       5.740   4.381  18.111  0.00  0.00    +0.000 C 
BRANCH  16  19
ATOM     19  C   UNL     1       6.331   4.656  14.490  0.00  0.00    +0.000 A 
ATOM     20  C   UNL     1       7.441   5.337  13.966  0.00  0.00    +0.000 A 
ATOM     21  C   UNL     1       7.892   5.120  12.658  0.00  0.00    +0.000 A 
ATOM     22  C   UNL     1       7.243   4.198  11.845  0.00  0.00    +0.000 A 
ATOM     23  C   UNL     1       6.156   3.487  12.347  0.00  0.00    +0.000 A 
ATOM     24  C   UNL     1       5.709   3.717  13.654  0.00  0.00    +0.000 A 
ENDBRANCH  16  19
ENDBRANCH   1  13
TORSDOF 3
ENDMDL
MODEL 2
REMARK VINA RESULT:      -7.8      3.472     10.111
REMARK  Name = 
REMARK  3 active torsions:
REMARK  status: ('A' for Active; 'I' for Inactive)
REMARK    1  A    between atoms: C_11  and  C_12
REMARK    2  A    between atoms: C_12  and  C_13
REMARK    3  A    between atoms: N_16  and  C_17
REMARK                            x       y       z     vdW  Elec       q    Type
REMARK                         _______ _______ _______ _____ _____    ______ ____
ROOT
ATOM      1  C   UNL     1       1.626   8.494  21.070  0.00  0.00    +0.000 C 
ENDROOT
BRANCH   1  12
ATOM      2  O   UNL     1       2.335   8.433  18.339  0.00  0.00    +0.000 OA
ATOM      3  C   UNL     1       2.497   7.395  18.970  0.00  0.00    +0.000 C 
ATOM      4  C   UNL     1       3.105   6.203  18.329  0.00  0.00    +0.000 A 
ATOM      5  C   UNL     1       4.003   6.374  17.269  0.00  0.00    +0.000 A 
ATOM      6  C   UNL     1       4.682   5.270  16.760  0.00  0.00    +0.000 A 
ATOM      7  C   UNL     1       4.442   4.001  17.286  0.00  0.00    +0.000 A 
ATOM      8  C   UNL     1       3.517   3.827  18.320  0.00  0.00    +0.000 A 
ATOM      9  C   UNL     1       2.837   4.928  18.857  0.00  0.00    +0.000 A 
ATOM     10  C   UNL     1       1.897   4.731  20.023  0.00  0.00    +0.000 C 
ATOM     11  C   UNL     1       1.176   6.011  20.475  0.00  0.00    +0.000 C 
ATOM     12  C   UNL     1       2.147   7.197  20.435  0.00  0.00    +0.000 C 
ENDBRANCH   1  12
BRANCH   1  13
ATOM     13  C   UNL     1       0.094   8.679  21.057  0.00  0.00    +0.000 C 
ATOM     14  C   UNL     1      -0.294   9.953  20.283  0.00  0.00    +0.000 C 
ATOM     15  C   UNL     1      -0.159  11.230  21.115  0.00  0.00    +0.000 C 
ATOM     16  N   UNL     1      -0.971  11.070  22.319  0.00  0.00    +0.000 N 
ATOM     17  C   UNL     1      -0.520   9.994  23.207  0.00  0.00    +0.000 C 
ATOM     18  C   UNL     1      -0.589   8.664  22.447  0.00  0.00    +0.000 C 
BRANCH  16  19
ATOM     19  C   UNL     1      -1.607  12.172  22.880  0.00  0.00    +0.000 A 
ATOM     20  C   UNL     1      -0.908  13.379  23.040  0.00  0.00    +0.000 A 
ATOM     21  C   UNL     1      -1.469  14.476  23.706  0.00  0.00    +0.000 A 
ATOM     22  C   UNL     1      -2.757  14.390  24.219  0.00  0.00    +0.000 A 
ATOM     23  C   UNL     1      -3.485  13.216  24.052  0.00  0.00    +0.000 A 
ATOM     24  C   UNL     1      -2.912  12.122  23.391  0.00  0.00    +0.000 A 
ENDBRANCH  16  19
ENDBRANCH   1  13
TORSDOF 3
ENDMDL
MODEL 3
REMARK VINA RESULT:      -7.7      2.064      8.222
REMARK  Name = 
REMARK  3 active torsions:
REMARK  status: ('A' for Active; 'I' for Inactive)
REMARK    1  A    between atoms: C_11  and  C_12
REMARK    2  A    between atoms: C_12  and  C_13
REMARK    3  A    between atoms: N_16  and  C_17
REMARK                            x       y       z     vdW  Elec       q    Type
REMARK                         _______ _______ _______ _____ _____    ______ ____
ROOT
ATOM      1  C   UNL     1       4.001   5.132  19.587  0.00  0.00    +0.000 C 
ENDROOT
BRANCH   1  12
ATOM      2  O   UNL     1       4.259   3.098  17.647  0.00  0.00    +0.000 OA
ATOM      3  C   UNL     1       4.915   4.116  17.464  0.00  0.00    +0.000 C 
ATOM      4  C   UNL     1       5.739   4.278  16.239  0.00  0.00    +0.000 A 
ATOM      5  C   UNL     1       5.360   3.620  15.064  0.00  0.00    +0.000 A 
ATOM      6  C   UNL     1       6.046   3.881  13.880  0.00  0.00    +0.000 A 
ATOM      7  C   UNL     1       7.122   4.770  13.880  0.00  0.00    +0.000 A 
ATOM      8  C   UNL     1       7.522   5.397  15.064  0.00  0.00    +0.000 A 
ATOM      9  C   UNL     1       6.833   5.160  16.261  0.00  0.00    +0.000 A 
ATOM     10  C   UNL     1       7.232   5.903  17.514  0.00  0.00    +0.000 C 
ATOM     11  C   UNL     1       6.431   5.507  18.764  0.00  0.00    +0.000 C 
ATOM     12  C   UNL     1       4.955   5.313  18.397  0.00  0.00    +0.000 C 
ENDBRANCH   1  12
BRANCH   1  13
ATOM     13  C   UNL     1       2.510   5.408  19.299  0.00  0.00    +0.000 C 
ATOM     14  C   UNL     1       2.356   6.412  18.141  0.00  0.00    +0.000 C 
ATOM     15  C   UNL     1       2.529   7.869  18.577  0.00  0.00    +0.000 C 
ATOM     16  N   UNL     1       1.568   8.135  19.645  0.00  0.00    +0.000 N 
ATOM     17  C   UNL     1       1.793   7.349  20.862  0.00  0.00    +0.000 C 
ATOM     18  C   UNL     1       1.670   5.860  20.520  0.00  0.00    +0.000 C 
BRANCH  16  19
ATOM     19  C   UNL     1       0.993   9.396  19.764  0.00  0.00    +0.000 A 
ATOM     20  C   UNL     1       0.338   9.759  20.952  0.00  0.00    +0.000 A 
ATOM     21  C   UNL     1      -0.356  10.969  21.074  0.00  0.00    +0.000 A 
ATOM     22  C   UNL     1      -0.398  11.854  20.003  0.00  0.00    +0.000 A 
ATOM     23  C   UNL     1       0.265  11.534  18.822  0.00  0.00    +0.000 A 
ATOM     24  C   UNL     1       0.950  10.318  18.708  0.00  0.00    +0.000 A 
ENDBRANCH  16  19
ENDBRANCH   1  13
TORSDOF 3
ENDMDL
MODEL 4
REMARK VINA RESULT:      -7.6      3.523     10.169
REMARK  Name = 
REMARK  3 active torsions:
REMARK  status: ('A' for Active; 'I' for Inactive)
REMARK    1  A    between atoms: C_11  and  C_12
REMARK    2  A    between atoms: C_12  and  C_13
REMARK    3  A    between atoms: N_16  and  C_17
REMARK                            x       y       z     vdW  Elec       q    Type
REMARK                         _______ _______ _______ _____ _____    ______ ____
ROOT
ATOM      1  C   UNL     1       0.821   8.129  20.927  0.00  0.00    +0.000 C 
ENDROOT
BRANCH   1  12
ATOM      2  O   UNL     1       1.635   8.250  18.227  0.00  0.00    +0.000 OA
ATOM      3  C   UNL     1       2.230   7.454  18.944  0.00  0.00    +0.000 C 
ATOM      4  C   UNL     1       3.366   6.659  18.415  0.00  0.00    +0.000 A 
ATOM      5  C   UNL     1       4.137   7.173  17.366  0.00  0.00    +0.000 A 
ATOM      6  C   UNL     1       5.286   6.497  16.964  0.00  0.00    +0.000 A 
ATOM      7  C   UNL     1       5.643   5.300  17.584  0.00  0.00    +0.000 A 
ATOM      8  C   UNL     1       4.851   4.768  18.606  0.00  0.00    +0.000 A 
ATOM      9  C   UNL     1       3.701   5.443  19.037  0.00  0.00    +0.000 A 
ATOM     10  C   UNL     1       2.899   4.893  20.192  0.00  0.00    +0.000 C 
ATOM     11  C   UNL     1       1.634   5.700  20.523  0.00  0.00    +0.000 C 
ATOM     12  C   UNL     1       1.930   7.200  20.411  0.00  0.00    +0.000 C 
ENDBRANCH   1  12
BRANCH   1  13
ATOM     13  C   UNL     1       1.297   9.383  21.689  0.00  0.00    +0.000 C 
ATOM     14  C   UNL     1       0.710   9.412  23.112  0.00  0.00    +0.000 C 
ATOM     15  C   UNL     1      -0.725   9.941  23.164  0.00  0.00    +0.000 C 
ATOM     16  N   UNL     1      -0.737  11.269  22.555  0.00  0.00    +0.000 N 
ATOM     17  C   UNL     1      -0.383  11.280  21.132  0.00  0.00    +0.000 C 
ATOM     18  C   UNL     1       1.041  10.733  20.972  0.00  0.00    +0.000 C 
BRANCH  16  19
ATOM     19  C   UNL     1      -1.607  12.244  23.031  0.00  0.00    +0.000 A 
ATOM     20  C   UNL     1      -1.155  13.562  23.210  0.00  0.00    +0.000 A 
ATOM     21  C   UNL     1      -1.959  14.547  23.796  0.00  0.00    +0.000 A 
ATOM     22  C   UNL     1      -3.249  14.233  24.208  0.00  0.00    +0.000 A 
ATOM     23  C   UNL     1      -3.735  12.943  24.019  0.00  0.00    +0.000 A 
ATOM     24  C   UNL     1      -2.919  11.963  23.438  0.00  0.00    +0.000 A 
ENDBRANCH  16  19
ENDBRANCH   1  13
TORSDOF 3
ENDMDL
MODEL 5
REMARK VINA RESULT:      -7.5      3.585      8.357
REMARK  Name = 
REMARK  3 active torsions:
REMARK  status: ('A' for Active; 'I' for Inactive)
REMARK    1  A    between atoms: C_11  and  C_12
REMARK    2  A    between atoms: C_12  and  C_13
REMARK    3  A    between atoms: N_16  and  C_17
REMARK                            x       y       z     vdW  Elec       q    Type
REMARK                         _______ _______ _______ _____ _____    ______ ____
ROOT
ATOM      1  C   UNL     1       1.777   8.158  20.050  0.00  0.00    +0.000 C 
ENDROOT
BRANCH   1  12
ATOM      2  O   UNL     1       1.732   5.577  21.193  0.00  0.00    +0.000 OA
ATOM      3  C   UNL     1       2.008   5.644  20.001  0.00  0.00    +0.000 C 
ATOM      4  C   UNL     1       2.232   4.412  19.203  0.00  0.00    +0.000 A 
ATOM      5  C   UNL     1       1.593   3.225  19.578  0.00  0.00    +0.000 A 
ATOM      6  C   UNL     1       1.686   2.106  18.753  0.00  0.00    +0.000 A 
ATOM      7  C   UNL     1       2.438   2.166  17.580  0.00  0.00    +0.000 A 
ATOM      8  C   UNL     1       3.107   3.342  17.227  0.00  0.00    +0.000 A 
ATOM      9  C   UNL     1       3.010   4.483  18.035  0.00  0.00    +0.000 A 
ATOM     10  C   UNL     1       3.678   5.767  17.600  0.00  0.00    +0.000 C 
ATOM     11  C   UNL     1       3.540   6.921  18.604  0.00  0.00    +0.000 C 
ATOM     12  C   UNL     1       2.126   6.928  19.198  0.00  0.00    +0.000 C 
ENDBRANCH   1  12
BRANCH   1  13
ATOM     13  C   UNL     1       1.677   9.495  19.286  0.00  0.00    +0.000 C 
ATOM     14  C   UNL     1       0.715  10.461  20.003  0.00  0.00    +0.000 C 
ATOM     15  C   UNL     1      -0.759  10.187  19.693  0.00  0.00    +0.000 C 
ATOM     16  N   UNL     1      -0.931  10.242  18.244  0.00  0.00    +0.000 N 
ATOM     17  C   UNL     1      -0.194   9.205  17.513  0.00  0.00    +0.000 C 
ATOM     18  C   UNL     1       1.305   9.378  17.787  0.00  0.00    +0.000 C 
BRANCH  16  19
ATOM     19  C   UNL     1      -2.120  10.719  17.702  0.00  0.00    +0.000 A 
ATOM     20  C   UNL     1      -3.033  11.411  18.515  0.00  0.00    +0.000 A 
ATOM     21  C   UNL     1      -4.291  11.804  18.043  0.00  0.00    +0.000 A 
ATOM     22  C   UNL     1      -4.661  11.521  16.734  0.00  0.00    +0.000 A 
ATOM     23  C   UNL     1      -3.766  10.861  15.897  0.00  0.00    +0.000 A 
ATOM     24  C   UNL     1      -2.513  10.465  16.380  0.00  0.00    +0.000 A 
ENDBRANCH  16  19
ENDBRANCH   1  13
TORSDOF 3
ENDMDL
MODEL 6
REMARK VINA RESULT:      -7.5      4.504      9.850
REMARK  Name = 
REMARK  3 active torsions:
REMARK  status: ('A' for Active; 'I' for Inactive)
REMARK    1  A    between atoms: C_11  and  C_12
REMARK    2  A    between atoms: C_12  and  C_13
REMARK    3  A    between atoms: N_16  and  C_17
REMARK                            x       y       z     vdW  Elec       q    Type
REMARK                         _______ _______ _______ _____ _____    ______ ____
ROOT
ATOM      1  C   UNL     1       0.439  10.581  19.650  0.00  0.00    +0.000 C 
ENDROOT
BRANCH   1  12
ATOM      2  O   UNL     1       1.467   8.666  21.452  0.00  0.00    +0.000 OA
ATOM      3  C   UNL     1       1.500   8.373  20.262  0.00  0.00    +0.000 C 
ATOM      4  C   UNL     1       1.992   7.043  19.822  0.00  0.00    +0.000 A 
ATOM      5  C   UNL     1       1.868   5.945  20.680  0.00  0.00    +0.000 A 
ATOM      6  C   UNL     1       2.196   4.673  20.218  0.00  0.00    +0.000 A 
ATOM      7  C   UNL     1       2.675   4.506  18.918  0.00  0.00    +0.000 A 
ATOM      8  C   UNL     1       2.834   5.610  18.075  0.00  0.00    +0.000 A 
ATOM      9  C   UNL     1       2.492   6.895  18.516  0.00  0.00    +0.000 A 
ATOM     10  C   UNL     1       2.600   8.066  17.568  0.00  0.00    +0.000 C 
ATOM     11  C   UNL     1       2.248   9.422  18.197  0.00  0.00    +0.000 C 
ATOM     12  C   UNL     1       1.038   9.267  19.125  0.00  0.00    +0.000 C 
ENDBRANCH   1  12
BRANCH   1  13
ATOM     13  C   UNL     1      -0.289  11.451  18.604  0.00  0.00    +0.000 C 
ATOM     14  C   UNL     1      -0.994  12.641  19.281  0.00  0.00    +0.000 C 
ATOM     15  C   UNL     1      -2.346  12.271  19.897  0.00  0.00    +0.000 C 
ATOM     16  N   UNL     1      -3.175  11.689  18.844  0.00  0.00    +0.000 N 
ATOM     17  C   UNL     1      -2.654  10.431  18.298  0.00  0.00    +0.000 C 
ATOM     18  C   UNL     1      -1.275  10.693  17.680  0.00  0.00    +0.000 C 
BRANCH  16  19
ATOM     19  C   UNL     1      -4.551  11.891  18.851  0.00  0.00    +0.000 A 
ATOM     20  C   UNL     1      -5.124  12.782  19.773  0.00  0.00    +0.000 A 
ATOM     21  C   UNL     1      -6.512  12.928  19.896  0.00  0.00    +0.000 A 
ATOM     22  C   UNL     1      -7.361  12.187  19.083  0.00  0.00    +0.000 A 
ATOM     23  C   UNL     1      -6.821  11.316  18.140  0.00  0.00    +0.000 A 
ATOM     24  C   UNL     1      -5.433  11.172  18.031  0.00  0.00    +0.000 A 
ENDBRANCH  16  19
ENDBRANCH   1  13
TORSDOF 3
ENDMDL
MODEL 7
REMARK VINA RESULT:      -7.5      4.276      6.227
REMARK  Name = 
REMARK  3 active torsions:
REMARK  status: ('A' for Active; 'I' for Inactive)
REMARK    1  A    between atoms: C_11  and  C_12
REMARK    2  A    between atoms: C_12  and  C_13
REMARK    3  A    between atoms: N_16  and  C_17
REMARK                            x       y       z     vdW  Elec       q    Type
REMARK                         _______ _______ _______ _____ _____    ______ ____
ROOT
ATOM      1  C   UNL     1       0.520   9.318  17.988  0.00  0.00    +0.000 C 
ENDROOT
BRANCH   1  12
ATOM      2  O   UNL     1      -1.859  10.063  16.663  0.00  0.00    +0.000 OA
ATOM      3  C   UNL     1      -1.710  10.488  17.803  0.00  0.00    +0.000 C 
ATOM      4  C   UNL     1      -2.773  11.290  18.459  0.00  0.00    +0.000 A 
ATOM      5  C   UNL     1      -4.108  11.095  18.090  0.00  0.00    +0.000 A 
ATOM      6  C   UNL     1      -5.118  11.740  18.800  0.00  0.00    +0.000 A 
ATOM      7  C   UNL     1      -4.791  12.598  19.851  0.00  0.00    +0.000 A 
ATOM      8  C   UNL     1      -3.454  12.820  20.193  0.00  0.00    +0.000 A 
ATOM      9  C   UNL     1      -2.426  12.166  19.502  0.00  0.00    +0.000 A 
ATOM     10  C   UNL     1      -0.992  12.360  19.934  0.00  0.00    +0.000 C 
ATOM     11  C   UNL     1       0.036  11.631  19.056  0.00  0.00    +0.000 C 
ATOM     12  C   UNL     1      -0.494  10.242  18.679  0.00  0.00    +0.000 C 
ENDBRANCH   1  12
BRANCH   1  13
ATOM     13  C   UNL     1       1.830   9.062  18.762  0.00  0.00    +0.000 C 
ATOM     14  C   UNL     1       2.743   8.096  17.984  0.00  0.00    +0.000 C 
ATOM     15  C   UNL     1       2.362   6.625  18.166  0.00  0.00    +0.000 C 
ATOM     16  N   UNL     1       2.372   6.332  19.598  0.00  0.00    +0.000 N 
ATOM     17  C   UNL     1       1.373   7.078  20.370  0.00  0.00    +0.000 C 
ATOM     18  C   UNL     1       1.654   8.578  20.224  0.00  0.00    +0.000 C 
BRANCH  16  19
ATOM     19  C   UNL     1       2.755   5.073  20.047  0.00  0.00    +0.000 A 
ATOM     20  C   UNL     1       3.806   4.391  19.412  0.00  0.00    +0.000 A 
ATOM     21  C   UNL     1       4.146   3.075  19.752  0.00  0.00    +0.000 A 
ATOM     22  C   UNL     1       3.442   2.414  20.752  0.00  0.00    +0.000 A 
ATOM     23  C   UNL     1       2.413   3.074  21.418  0.00  0.00    +0.000 A 
ATOM     24  C   UNL     1       2.076   4.386  21.065  0.00  0.00    +0.000 A 
ENDBRANCH  16  19
ENDBRANCH   1  13
TORSDOF 3
ENDMDL
MODEL 8
REMARK VINA RESULT:      -7.4      3.657      8.952
REMARK  Name = 
REMARK  3 active torsions:
REMARK  status: ('A' for Active; 'I' for Inactive)
REMARK    1  A    between atoms: C_11  and  C_12
REMARK    2  A    between atoms: C_12  and  C_13
REMARK    3  A    between atoms: N_16  and  C_17
REMARK                            x       y       z     vdW  Elec       q    Type
REMARK                         _______ _______ _______ _____ _____    ______ ____
ROOT
ATOM      1  C   UNL     1       2.130   8.576  18.904  0.00  0.00    +0.000 C 
ENDROOT
BRANCH   1  12
ATOM      2  O   UNL     1       1.676   6.391  20.632  0.00  0.00    +0.000 OA
ATOM      3  C   UNL     1       2.019   6.122  19.487  0.00  0.00    +0.000 C 
ATOM      4  C   UNL     1       2.112   4.711  19.034  0.00  0.00    +0.000 A 
ATOM      5  C   UNL     1       1.300   3.742  19.632  0.00  0.00    +0.000 A 
ATOM      6  C   UNL     1       1.281   2.449  19.115  0.00  0.00    +0.000 A 
ATOM      7  C   UNL     1       2.092   2.121  18.029  0.00  0.00    +0.000 A 
ATOM      8  C   UNL     1       2.932   3.082  17.457  0.00  0.00    +0.000 A 
ATOM      9  C   UNL     1       2.950   4.392  17.952  0.00  0.00    +0.000 A 
ATOM     10  C   UNL     1       3.807   5.436  17.275  0.00  0.00    +0.000 C 
ATOM     11  C   UNL     1       3.778   6.814  17.953  0.00  0.00    +0.000 C 
ATOM     12  C   UNL     1       2.350   7.139  18.409  0.00  0.00    +0.000 C 
ENDBRANCH   1  12
BRANCH   1  13
ATOM     13  C   UNL     1       1.451   9.534  17.902  0.00  0.00    +0.000 C 
ATOM     14  C   UNL     1       2.115  10.923  17.941  0.00  0.00    +0.000 C 
ATOM     15  C   UNL     1       1.619  11.798  19.094  0.00  0.00    +0.000 C 
ATOM     16  N   UNL     1       0.166  11.904  18.985  0.00  0.00    +0.000 N 
ATOM     17  C   UNL     1      -0.542  10.630  19.148  0.00  0.00    +0.000 C 
ATOM     18  C   UNL     1      -0.086   9.666  18.047  0.00  0.00    +0.000 C 
BRANCH  16  19
ATOM     19  C   UNL     1      -0.476  13.076  19.371  0.00  0.00    +0.000 A 
ATOM     20  C   UNL     1       0.023  14.320  18.953  0.00  0.00    +0.000 A 
ATOM     21  C   UNL     1      -0.519  15.527  19.413  0.00  0.00    +0.000 A 
ATOM     22  C   UNL     1      -1.588  15.513  20.300  0.00  0.00    +0.000 A 
ATOM     23  C   UNL     1      -2.122  14.295  20.711  0.00  0.00    +0.000 A 
ATOM     24  C   UNL     1      -1.569  13.094  20.251  0.00  0.00    +0.000 A 
ENDBRANCH  16  19
ENDBRANCH   1  13
TORSDOF 3
ENDMDL
MODEL 9
REMARK VINA RESULT:      -7.3      3.560      8.297
REMARK  Name = 
REMARK  3 active torsions:
REMARK  status: ('A' for Active; 'I' for Inactive)
REMARK    1  A    between atoms: C_11  and  C_12
REMARK    2  A    between atoms: C_12  and  C_13
REMARK    3  A    between atoms: N_16  and  C_17
REMARK                            x       y       z     vdW  Elec       q    Type
REMARK                         _______ _______ _______ _____ _____    ______ ____
ROOT
ATOM      1  C   UNL     1       1.897   8.271  19.754  0.00  0.00    +0.000 C 
ENDROOT
BRANCH   1  12
ATOM      2  O   UNL     1       1.778   5.776  21.069  0.00  0.00    +0.000 OA
ATOM      3  C   UNL     1       2.059   5.754  19.877  0.00  0.00    +0.000 C 
ATOM      4  C   UNL     1       2.251   4.465  19.166  0.00  0.00    +0.000 A 
ATOM      5  C   UNL     1       1.579   3.324  19.617  0.00  0.00    +0.000 A 
ATOM      6  C   UNL     1       1.644   2.150  18.871  0.00  0.00    +0.000 A 
ATOM      7  C   UNL     1       2.401   2.110  17.700  0.00  0.00    +0.000 A 
ATOM      8  C   UNL     1       3.102   3.240  17.271  0.00  0.00    +0.000 A 
ATOM      9  C   UNL     1       3.034   4.436  17.999  0.00  0.00    +0.000 A 
ATOM     10  C   UNL     1       3.738   5.668  17.481  0.00  0.00    +0.000 C 
ATOM     11  C   UNL     1       3.629   6.892  18.404  0.00  0.00    +0.000 C 
ATOM     12  C   UNL     1       2.214   6.977  18.990  0.00  0.00    +0.000 C 
ENDBRANCH   1  12
BRANCH   1  13
ATOM     13  C   UNL     1       0.829   9.183  19.114  0.00  0.00    +0.000 C 
ATOM     14  C   UNL     1       1.367   9.826  17.822  0.00  0.00    +0.000 C 
ATOM     15  C   UNL     1       2.245  11.054  18.077  0.00  0.00    +0.000 C 
ATOM     16  N   UNL     1       1.467  12.007  18.864  0.00  0.00    +0.000 N 
ATOM     17  C   UNL     1       1.098  11.524  20.198  0.00  0.00    +0.000 C 
ATOM     18  C   UNL     1       0.234  10.266  20.049  0.00  0.00    +0.000 C 
BRANCH  16  19
ATOM     19  C   UNL     1       1.649  13.374  18.678  0.00  0.00    +0.000 A 
ATOM     20  C   UNL     1       2.835  13.850  18.097  0.00  0.00    +0.000 A 
ATOM     21  C   UNL     1       3.112  15.220  17.999  0.00  0.00    +0.000 A 
ATOM     22  C   UNL     1       2.194  16.148  18.474  0.00  0.00    +0.000 A 
ATOM     23  C   UNL     1       0.997  15.706  19.030  0.00  0.00    +0.000 A 
ATOM     24  C   UNL     1       0.733  14.335  19.130  0.00  0.00    +0.000 A 
ENDBRANCH  16  19
ENDBRANCH   1  13
TORSDOF 3
ENDMDL
