MODEL 1
REMARK VINA RESULT:      -6.5      0.000      0.000
REMARK  Name = 
REMARK  16 active torsions:
REMARK  status: ('A' for Active; 'I' for Inactive)
REMARK    1  A    between atoms: C_1  and  C_2
REMARK    2  A    between atoms: C_2  and  N_3
REMARK    3  A    between atoms: C_2  and  C_4
REMARK    4  A    between atoms: N_6  and  C_7
REMARK    5  A    between atoms: C_7  and  C_8
REMARK    6  A    between atoms: C_7  and  C_9
REMARK    7  A    between atoms: N_11  and  C_12
REMARK    8  A    between atoms: C_12  and  C_13
REMARK    9  A    between atoms: C_12  and  C_14
REMARK   10  A    between atoms: N_16  and  C_17
REMARK   11  A    between atoms: C_17  and  C_18
REMARK   12  A    between atoms: C_17  and  C_23
REMARK   13  A    between atoms: C_18  and  C_19
REMARK   14  A    between atoms: C_19  and  C_20
REMARK   15  A    between atoms: C_20  and  C_21
REMARK   16  A    between atoms: C_21  and  N_22
REMARK                            x       y       z     vdW  Elec       q    Type
REMARK                         _______ _______ _______ _____ _____    ______ ____
ROOT
ATOM      1  C   UNL     1       6.730   6.074  17.628  0.00  0.00    +0.000 C 
ATOM      2  C   UNL     1       7.647   5.963  18.842  0.00  0.00    +0.000 C 
ENDROOT
BRANCH   1   5
ATOM      3  C   UNL     1       4.288   6.435  17.482  0.00  0.00    +0.000 C 
ATOM      4  O   UNL     1       4.430   7.265  16.584  0.00  0.00    +0.000 OA
ATOM      5  N   UNL     1       5.352   5.720  18.001  0.00  0.00    +0.000 N 
ATOM      6  H   UNL     1       5.217   5.284  18.906  0.00  0.00    +0.000 HD
BRANCH   3   7
ATOM      7  C   UNL     1       2.905   6.039  18.033  0.00  0.00    +0.000 C 
ATOM      8  C   UNL     1       2.451   7.044  19.089  0.00  0.00    +0.000 C 
BRANCH   7  11
ATOM      9  C   UNL     1       2.114   3.705  18.326  0.00  0.00    +0.000 C 
ATOM     10  O   UNL     1       1.165   3.878  17.562  0.00  0.00    +0.000 OA
ATOM     11  N   UNL     1       3.009   4.705  18.614  0.00  0.00    +0.000 N 
ATOM     12  H   UNL     1       3.807   4.524  19.216  0.00  0.00    +0.000 HD
BRANCH   9  14
ATOM     13  C   UNL     1       2.957   2.585  20.459  0.00  0.00    +0.000 C 
ATOM     14  C   UNL     1       2.347   2.372  19.080  0.00  0.00    +0.000 C 
BRANCH  14  15
ATOM     15  N   UNL     1       3.242   1.504  18.289  0.00  0.00    +0.000 NA
ATOM     16  H   UNL     1       3.622   0.790  18.915  0.00  0.00    +0.000 HD
ATOM     17  H   UNL     1       4.066   2.057  18.039  0.00  0.00    +0.000 HD
ENDBRANCH  14  15
ENDBRANCH   9  14
ENDBRANCH   7  11
ENDBRANCH   3   7
ENDBRANCH   1   5
BRANCH   1  18
ATOM     18  C   UNL     1       7.279   5.136  16.525  0.00  0.00    +0.000 C 
ATOM     19  O   UNL     1       8.057   4.220  16.768  0.00  0.00    +0.000 OA
ATOM     20  N   UNL     1       6.696   5.322  15.291  0.00  0.00    +0.000 N 
ATOM     21  H   UNL     1       6.154   6.165  15.158  0.00  0.00    +0.000 HD
BRANCH  20  22
ATOM     22  C   UNL     1       7.073   4.550  14.108  0.00  0.00    +0.000 C 
BRANCH  22  23
ATOM     23  C   UNL     1       7.955   5.348  13.122  0.00  0.00    +0.000 C 
ATOM     24  N   UNL     1       7.618   5.303  11.799  0.00  0.00    +0.000 N 
ATOM     25  O   UNL     1       8.946   5.983  13.476  0.00  0.00    +0.000 OA
ATOM     26  H   UNL     1       6.662   5.094  11.521  0.00  0.00    +0.000 HD
ATOM     27  H   UNL     1       8.124   5.947  11.205  0.00  0.00    +0.000 HD
ENDBRANCH  22  23
BRANCH  22  28
ATOM     28  C   UNL     1       5.810   4.065  13.374  0.00  0.00    +0.000 C 
BRANCH  28  29
ATOM     29  C   UNL     1       6.051   2.738  12.648  0.00  0.00    +0.000 C 
BRANCH  29  30
ATOM     30  C   UNL     1       5.178   2.578  11.406  0.00  0.00    +0.000 C 
BRANCH  30  31
ATOM     31  C   UNL     1       3.959   3.492  11.503  0.00  0.00    +0.000 C 
BRANCH  31  32
ATOM     32  N   UNL     1       3.418   3.793  10.185  0.00  0.00    +0.000 NA
ATOM     33  H   UNL     1       3.198   2.928   9.694  0.00  0.00    +0.000 HD
ATOM     34  H   UNL     1       4.130   4.265   9.630  0.00  0.00    +0.000 HD
ENDBRANCH  31  32
ENDBRANCH  30  31
ENDBRANCH  29  30
ENDBRANCH  28  29
ENDBRANCH  22  28
ENDBRANCH  20  22
ENDBRANCH   1  18
TORSDOF 13
ENDMDL
MODEL 2
REMARK VINA RESULT:      -6.5      2.179      7.336
REMARK  Name = 
REMARK  16 active torsions:
REMARK  status: ('A' for Active; 'I' for Inactive)
REMARK    1  A    between atoms: C_1  and  C_2
REMARK    2  A    between atoms: C_2  and  N_3
REMARK    3  A    between atoms: C_2  and  C_4
REMARK    4  A    between atoms: N_6  and  C_7
REMARK    5  A    between atoms: C_7  and  C_8
REMARK    6  A    between atoms: C_7  and  C_9
REMARK    7  A    between atoms: N_11  and  C_12
REMARK    8  A    between atoms: C_12  and  C_13
REMARK    9  A    between atoms: C_12  and  C_14
REMARK   10  A    between atoms: N_16  and  C_17
REMARK   11  A    between atoms: C_17  and  C_18
REMARK   12  A    between atoms: C_17  and  C_23
REMARK   13  A    between atoms: C_18  and  C_19
REMARK   14  A    between atoms: C_19  and  C_20
REMARK   15  A    between atoms: C_20  and  C_21
REMARK   16  A    between atoms: C_21  and  N_22
REMARK                            x       y       z     vdW  Elec       q    Type
REMARK                         _______ _______ _______ _____ _____    ______ ____
ROOT
ATOM      1  C   UNL     1       6.022   4.259  18.577  0.00  0.00    +0.000 C 
ATOM      2  C   UNL     1       6.360   5.494  19.408  0.00  0.00    +0.000 C 
ENDROOT
BRANCH   1   5
ATOM      3  C   UNL     1       6.734   4.714  16.253  0.00  0.00    +0.000 C 
ATOM      4  O   UNL     1       7.869   4.298  16.484  0.00  0.00    +0.000 OA
ATOM      5  N   UNL     1       5.720   4.650  17.192  0.00  0.00    +0.000 N 
ATOM      6  H   UNL     1       4.919   5.255  17.047  0.00  0.00    +0.000 HD
BRANCH   3   7
ATOM      7  C   UNL     1       6.309   5.242  14.869  0.00  0.00    +0.000 C 
ATOM      8  C   UNL     1       5.247   6.328  15.022  0.00  0.00    +0.000 C 
BRANCH   7  11
ATOM      9  C   UNL     1       6.281   3.783  12.862  0.00  0.00    +0.000 C 
ATOM     10  O   UNL     1       7.200   4.407  12.334  0.00  0.00    +0.000 OA
ATOM     11  N   UNL     1       5.783   4.123  14.095  0.00  0.00    +0.000 N 
ATOM     12  H   UNL     1       5.051   3.566  14.527  0.00  0.00    +0.000 HD
BRANCH   9  14
ATOM     13  C   UNL     1       6.483   1.835  11.224  0.00  0.00    +0.000 C 
ATOM     14  C   UNL     1       5.561   2.604  12.161  0.00  0.00    +0.000 C 
BRANCH  14  15
ATOM     15  N   UNL     1       4.410   3.113  11.388  0.00  0.00    +0.000 NA
ATOM     16  H   UNL     1       4.697   3.189  10.409  0.00  0.00    +0.000 HD
ATOM     17  H   UNL     1       4.261   4.087  11.664  0.00  0.00    +0.000 HD
ENDBRANCH  14  15
ENDBRANCH   9  14
ENDBRANCH   7  11
ENDBRANCH   3   7
ENDBRANCH   1   5
BRANCH   1  18
ATOM     18  C   UNL     1       4.818   3.549  19.242  0.00  0.00    +0.000 C 
ATOM     19  O   UNL     1       4.926   2.475  19.822  0.00  0.00    +0.000 OA
ATOM     20  N   UNL     1       3.664   4.301  19.258  0.00  0.00    +0.000 N 
ATOM     21  H   UNL     1       3.635   5.119  18.662  0.00  0.00    +0.000 HD
BRANCH  20  22
ATOM     22  C   UNL     1       2.406   3.819  19.827  0.00  0.00    +0.000 C 
BRANCH  22  23
ATOM     23  C   UNL     1       1.591   2.951  18.842  0.00  0.00    +0.000 C 
ATOM     24  N   UNL     1       1.757   1.597  18.911  0.00  0.00    +0.000 N 
ATOM     25  O   UNL     1       0.837   3.429  17.997  0.00  0.00    +0.000 OA
ATOM     26  H   UNL     1       2.080   1.165  19.775  0.00  0.00    +0.000 HD
ATOM     27  H   UNL     1       1.107   1.055  18.358  0.00  0.00    +0.000 HD
ENDBRANCH  22  23
BRANCH  22  28
ATOM     28  C   UNL     1       1.544   5.011  20.279  0.00  0.00    +0.000 C 
BRANCH  28  29
ATOM     29  C   UNL     1       2.214   6.350  19.957  0.00  0.00    +0.000 C 
BRANCH  29  30
ATOM     30  C   UNL     1       1.569   7.523  20.692  0.00  0.00    +0.000 C 
BRANCH  30  31
ATOM     31  C   UNL     1       1.469   8.731  19.762  0.00  0.00    +0.000 C 
BRANCH  31  32
ATOM     32  N   UNL     1       0.715   9.812  20.380  0.00  0.00    +0.000 NA
ATOM     33  H   UNL     1      -0.247   9.800  20.045  0.00  0.00    +0.000 HD
ATOM     34  H   UNL     1       1.108  10.706  20.087  0.00  0.00    +0.000 HD
ENDBRANCH  31  32
ENDBRANCH  30  31
ENDBRANCH  29  30
ENDBRANCH  28  29
ENDBRANCH  22  28
ENDBRANCH  20  22
ENDBRANCH   1  18
TORSDOF 13
ENDMDL
MODEL 3
REMARK VINA RESULT:      -6.4      3.150      5.189
REMARK  Name = 
REMARK  16 active torsions:
REMARK  status: ('A' for Active; 'I' for Inactive)
REMARK    1  A    between atoms: C_1  and  C_2
REMARK    2  A    between atoms: C_2  and  N_3
REMARK    3  A    between atoms: C_2  and  C_4
REMARK    4  A    between atoms: N_6  and  C_7
REMARK    5  A    between atoms: C_7  and  C_8
REMARK    6  A    between atoms: C_7  and  C_9
REMARK    7  A    between atoms: N_11  and  C_12
REMARK    8  A    between atoms: C_12  and  C_13
REMARK    9  A    between atoms: C_12  and  C_14
REMARK   10  A    between atoms: N_16  and  C_17
REMARK   11  A    between atoms: C_17  and  C_18
REMARK   12  A    between atoms: C_17  and  C_23
REMARK   13  A    between atoms: C_18  and  C_19
REMARK   14  A    between atoms: C_19  and  C_20
REMARK   15  A    between atoms: C_20  and  C_21
REMARK   16  A    between atoms: C_21  and  N_22
REMARK                            x       y       z     vdW  Elec       q    Type
REMARK                         _______ _______ _______ _____ _____    ______ ____
ROOT
ATOM      1  C   UNL     1       3.062   3.958  18.540  0.00  0.00    +0.000 C 
ATOM      2  C   UNL     1       2.663   3.085  17.354  0.00  0.00    +0.000 C 
ENDROOT
BRANCH   1   5
ATOM      3  C   UNL     1       2.265   6.159  19.337  0.00  0.00    +0.000 C 
ATOM      4  O   UNL     1       2.355   5.804  20.512  0.00  0.00    +0.000 OA
ATOM      5  N   UNL     1       2.679   5.356  18.289  0.00  0.00    +0.000 N 
ATOM      6  H   UNL     1       2.319   5.578  17.369  0.00  0.00    +0.000 HD
BRANCH   3   7
ATOM      7  C   UNL     1       1.787   7.567  18.931  0.00  0.00    +0.000 C 
ATOM      8  C   UNL     1       2.778   8.197  17.955  0.00  0.00    +0.000 C 
BRANCH   7  11
ATOM      9  C   UNL     1       0.799   9.429  20.239  0.00  0.00    +0.000 C 
ATOM     10  O   UNL     1       0.056   9.752  19.312  0.00  0.00    +0.000 OA
ATOM     11  N   UNL     1       1.677   8.378  20.138  0.00  0.00    +0.000 N 
ATOM     12  H   UNL     1       2.249   8.107  20.931  0.00  0.00    +0.000 HD
BRANCH   9  14
ATOM     13  C   UNL     1      -0.219   9.775  22.554  0.00  0.00    +0.000 C 
ATOM     14  C   UNL     1       0.860  10.214  21.573  0.00  0.00    +0.000 C 
BRANCH  14  15
ATOM     15  N   UNL     1       0.706  11.659  21.307  0.00  0.00    +0.000 NA
ATOM     16  H   UNL     1       0.539  11.778  20.305  0.00  0.00    +0.000 HD
ATOM     17  H   UNL     1       1.621  12.096  21.445  0.00  0.00    +0.000 HD
ENDBRANCH  14  15
ENDBRANCH   9  14
ENDBRANCH   7  11
ENDBRANCH   3   7
ENDBRANCH   1   5
BRANCH   1  18
ATOM     18  C   UNL     1       4.590   3.816  18.746  0.00  0.00    +0.000 C 
ATOM     19  O   UNL     1       5.074   3.043  19.565  0.00  0.00    +0.000 OA
ATOM     20  N   UNL     1       5.345   4.512  17.828  0.00  0.00    +0.000 N 
ATOM     21  H   UNL     1       4.868   5.206  17.267  0.00  0.00    +0.000 HD
BRANCH  20  22
ATOM     22  C   UNL     1       6.807   4.525  17.846  0.00  0.00    +0.000 C 
BRANCH  22  23
ATOM     23  C   UNL     1       7.391   5.765  18.559  0.00  0.00    +0.000 C 
ATOM     24  N   UNL     1       7.914   5.585  19.807  0.00  0.00    +0.000 N 
ATOM     25  O   UNL     1       7.374   6.891  18.063  0.00  0.00    +0.000 OA
ATOM     26  H   UNL     1       8.250   4.668  20.094  0.00  0.00    +0.000 HD
ATOM     27  H   UNL     1       8.415   6.379  20.183  0.00  0.00    +0.000 HD
ENDBRANCH  22  23
BRANCH  22  28
ATOM     28  C   UNL     1       7.350   4.470  16.407  0.00  0.00    +0.000 C 
BRANCH  28  29
ATOM     29  C   UNL     1       6.337   3.847  15.442  0.00  0.00    +0.000 C 
BRANCH  29  30
ATOM     30  C   UNL     1       6.364   4.494  14.059  0.00  0.00    +0.000 C 
BRANCH  30  31
ATOM     31  C   UNL     1       5.511   3.683  13.086  0.00  0.00    +0.000 C 
BRANCH  31  32
ATOM     32  N   UNL     1       6.320   2.722  12.349  0.00  0.00    +0.000 NA
ATOM     33  H   UNL     1       6.400   3.010  11.376  0.00  0.00    +0.000 HD
ATOM     34  H   UNL     1       5.846   1.820  12.342  0.00  0.00    +0.000 HD
ENDBRANCH  31  32
ENDBRANCH  30  31
ENDBRANCH  29  30
ENDBRANCH  28  29
ENDBRANCH  22  28
ENDBRANCH  20  22
ENDBRANCH   1  18
TORSDOF 13
ENDMDL
MODEL 4
REMARK VINA RESULT:      -6.3      2.115      6.963
REMARK  Name = 
REMARK  16 active torsions:
REMARK  status: ('A' for Active; 'I' for Inactive)
REMARK    1  A    between atoms: C_1  and  C_2
REMARK    2  A    between atoms: C_2  and  N_3
REMARK    3  A    between atoms: C_2  and  C_4
REMARK    4  A    between atoms: N_6  and  C_7
REMARK    5  A    between atoms: C_7  and  C_8
REMARK    6  A    between atoms: C_7  and  C_9
REMARK    7  A    between atoms: N_11  and  C_12
REMARK    8  A    between atoms: C_12  and  C_13
REMARK    9  A    between atoms: C_12  and  C_14
REMARK   10  A    between atoms: N_16  and  C_17
REMARK   11  A    between atoms: C_17  and  C_18
REMARK   12  A    between atoms: C_17  and  C_23
REMARK   13  A    between atoms: C_18  and  C_19
REMARK   14  A    between atoms: C_19  and  C_20
REMARK   15  A    between atoms: C_20  and  C_21
REMARK   16  A    between atoms: C_21  and  N_22
REMARK                            x       y       z     vdW  Elec       q    Type
REMARK                         _______ _______ _______ _____ _____    ______ ____
ROOT
ATOM      1  C   UNL     1       7.484   5.488  18.031  0.00  0.00    +0.000 C 
ATOM      2  C   UNL     1       8.006   6.787  18.637  0.00  0.00    +0.000 C 
ENDROOT
BRANCH   1   5
ATOM      3  C   UNL     1       6.900   4.750  15.744  0.00  0.00    +0.000 C 
ATOM      4  O   UNL     1       7.213   3.588  16.002  0.00  0.00    +0.000 OA
ATOM      5  N   UNL     1       6.907   5.747  16.703  0.00  0.00    +0.000 N 
ATOM      6  H   UNL     1       6.922   6.705  16.372  0.00  0.00    +0.000 HD
BRANCH   3   7
ATOM      7  C   UNL     1       6.369   5.178  14.361  0.00  0.00    +0.000 C 
ATOM      8  C   UNL     1       5.281   6.237  14.520  0.00  0.00    +0.000 C 
BRANCH   7  11
ATOM      9  C   UNL     1       6.309   3.564  12.478  0.00  0.00    +0.000 C 
ATOM     10  O   UNL     1       7.210   4.150  11.881  0.00  0.00    +0.000 OA
ATOM     11  N   UNL     1       5.835   3.997  13.692  0.00  0.00    +0.000 N 
ATOM     12  H   UNL     1       5.118   3.472  14.183  0.00  0.00    +0.000 HD
BRANCH   9  14
ATOM     13  C   UNL     1       6.481   1.511  10.970  0.00  0.00    +0.000 C 
ATOM     14  C   UNL     1       5.583   2.328  11.890  0.00  0.00    +0.000 C 
BRANCH  14  15
ATOM     15  N   UNL     1       4.392   2.764  11.133  0.00  0.00    +0.000 NA
ATOM     16  H   UNL     1       4.478   3.770  10.965  0.00  0.00    +0.000 HD
ATOM     17  H   UNL     1       3.587   2.700  11.761  0.00  0.00    +0.000 HD
ENDBRANCH  14  15
ENDBRANCH   9  14
ENDBRANCH   7  11
ENDBRANCH   3   7
ENDBRANCH   1   5
BRANCH   1  18
ATOM     18  C   UNL     1       6.432   4.895  19.000  0.00  0.00    +0.000 C 
ATOM     19  O   UNL     1       6.578   4.910  20.218  0.00  0.00    +0.000 OA
ATOM     20  N   UNL     1       5.264   4.500  18.386  0.00  0.00    +0.000 N 
ATOM     21  H   UNL     1       5.276   4.419  17.377  0.00  0.00    +0.000 HD
BRANCH  20  22
ATOM     22  C   UNL     1       4.144   3.905  19.112  0.00  0.00    +0.000 C 
BRANCH  22  23
ATOM     23  C   UNL     1       4.272   2.373  19.269  0.00  0.00    +0.000 C 
ATOM     24  N   UNL     1       5.086   1.907  20.261  0.00  0.00    +0.000 N 
ATOM     25  O   UNL     1       3.701   1.576  18.526  0.00  0.00    +0.000 OA
ATOM     26  H   UNL     1       5.287   2.488  21.073  0.00  0.00    +0.000 HD
ATOM     27  H   UNL     1       5.034   0.911  20.428  0.00  0.00    +0.000 HD
ENDBRANCH  22  23
BRANCH  22  28
ATOM     28  C   UNL     1       2.822   4.228  18.394  0.00  0.00    +0.000 C 
BRANCH  28  29
ATOM     29  C   UNL     1       1.782   4.811  19.357  0.00  0.00    +0.000 C 
BRANCH  29  30
ATOM     30  C   UNL     1       2.162   4.616  20.823  0.00  0.00    +0.000 C 
BRANCH  30  31
ATOM     31  C   UNL     1       1.493   3.357  21.373  0.00  0.00    +0.000 C 
BRANCH  31  32
ATOM     32  N   UNL     1       2.432   2.554  22.143  0.00  0.00    +0.000 NA
ATOM     33  H   UNL     1       3.300   3.069  22.278  0.00  0.00    +0.000 HD
ATOM     34  H   UNL     1       2.675   1.719  21.611  0.00  0.00    +0.000 HD
ENDBRANCH  31  32
ENDBRANCH  30  31
ENDBRANCH  29  30
ENDBRANCH  28  29
ENDBRANCH  22  28
ENDBRANCH  20  22
ENDBRANCH   1  18
TORSDOF 13
ENDMDL
MODEL 5
REMARK VINA RESULT:      -6.2      2.083      6.679
REMARK  Name = 
REMARK  16 active torsions:
REMARK  status: ('A' for Active; 'I' for Inactive)
REMARK    1  A    between atoms: C_1  and  C_2
REMARK    2  A    between atoms: C_2  and  N_3
REMARK    3  A    between atoms: C_2  and  C_4
REMARK    4  A    between atoms: N_6  and  C_7
REMARK    5  A    between atoms: C_7  and  C_8
REMARK    6  A    between atoms: C_7  and  C_9
REMARK    7  A    between atoms: N_11  and  C_12
REMARK    8  A    between atoms: C_12  and  C_13
REMARK    9  A    between atoms: C_12  and  C_14
REMARK   10  A    between atoms: N_16  and  C_17
REMARK   11  A    between atoms: C_17  and  C_18
REMARK   12  A    between atoms: C_17  and  C_23
REMARK   13  A    between atoms: C_18  and  C_19
REMARK   14  A    between atoms: C_19  and  C_20
REMARK   15  A    between atoms: C_20  and  C_21
REMARK   16  A    between atoms: C_21  and  N_22
REMARK                            x       y       z     vdW  Elec       q    Type
REMARK                         _______ _______ _______ _____ _____    ______ ____
ROOT
ATOM      1  C   UNL     1       3.421   6.849  18.663  0.00  0.00    +0.000 C 
ATOM      2  C   UNL     1       2.442   7.838  18.039  0.00  0.00    +0.000 C 
ENDROOT
BRANCH   1   5
ATOM      3  C   UNL     1       5.827   6.318  18.455  0.00  0.00    +0.000 C 
ATOM      4  O   UNL     1       5.831   5.750  19.547  0.00  0.00    +0.000 OA
ATOM      5  N   UNL     1       4.668   6.812  17.884  0.00  0.00    +0.000 N 
ATOM      6  H   UNL     1       4.774   7.503  17.150  0.00  0.00    +0.000 HD
BRANCH   3   7
ATOM      7  C   UNL     1       7.088   6.435  17.577  0.00  0.00    +0.000 C 
ATOM      8  C   UNL     1       7.708   7.822  17.728  0.00  0.00    +0.000 C 
BRANCH   7  11
ATOM      9  C   UNL     1       7.156   5.119  15.474  0.00  0.00    +0.000 C 
ATOM     10  O   UNL     1       7.920   4.287  15.961  0.00  0.00    +0.000 OA
ATOM     11  N   UNL     1       6.703   6.200  16.190  0.00  0.00    +0.000 N 
ATOM     12  H   UNL     1       6.040   6.850  15.778  0.00  0.00    +0.000 HD
BRANCH   9  14
ATOM     13  C   UNL     1       6.216   3.673  13.592  0.00  0.00    +0.000 C 
ATOM     14  C   UNL     1       6.689   5.063  13.998  0.00  0.00    +0.000 C 
BRANCH  14  15
ATOM     15  N   UNL     1       7.798   5.469  13.110  0.00  0.00    +0.000 NA
ATOM     16  H   UNL     1       7.732   6.480  12.969  0.00  0.00    +0.000 HD
ATOM     17  H   UNL     1       7.602   5.090  12.180  0.00  0.00    +0.000 HD
ENDBRANCH  14  15
ENDBRANCH   9  14
ENDBRANCH   7  11
ENDBRANCH   3   7
ENDBRANCH   1   5
BRANCH   1  18
ATOM     18  C   UNL     1       2.738   5.460  18.705  0.00  0.00    +0.000 C 
ATOM     19  O   UNL     1       1.897   5.116  17.883  0.00  0.00    +0.000 OA
ATOM     20  N   UNL     1       3.269   4.603  19.643  0.00  0.00    +0.000 N 
ATOM     21  H   UNL     1       3.875   5.005  20.347  0.00  0.00    +0.000 HD
BRANCH  20  22
ATOM     22  C   UNL     1       2.768   3.247  19.859  0.00  0.00    +0.000 C 
BRANCH  22  23
ATOM     23  C   UNL     1       1.898   3.119  21.130  0.00  0.00    +0.000 C 
ATOM     24  N   UNL     1       0.542   3.145  20.970  0.00  0.00    +0.000 N 
ATOM     25  O   UNL     1       2.376   3.028  22.259  0.00  0.00    +0.000 OA
ATOM     26  H   UNL     1       0.127   2.879  20.079  0.00  0.00    +0.000 HD
ATOM     27  H   UNL     1       0.007   2.915  21.797  0.00  0.00    +0.000 HD
ENDBRANCH  22  23
BRANCH  22  28
ATOM     28  C   UNL     1       3.945   2.260  19.953  0.00  0.00    +0.000 C 
BRANCH  28  29
ATOM     29  C   UNL     1       3.987   1.311  18.752  0.00  0.00    +0.000 C 
BRANCH  29  30
ATOM     30  C   UNL     1       3.543   1.983  17.454  0.00  0.00    +0.000 C 
BRANCH  30  31
ATOM     31  C   UNL     1       4.663   2.869  16.914  0.00  0.00    +0.000 C 
BRANCH  31  32
ATOM     32  N   UNL     1       4.134   4.098  16.340  0.00  0.00    +0.000 NA
ATOM     33  H   UNL     1       3.154   3.971  16.091  0.00  0.00    +0.000 HD
ATOM     34  H   UNL     1       4.626   4.302  15.471  0.00  0.00    +0.000 HD
ENDBRANCH  31  32
ENDBRANCH  30  31
ENDBRANCH  29  30
ENDBRANCH  28  29
ENDBRANCH  22  28
ENDBRANCH  20  22
ENDBRANCH   1  18
TORSDOF 13
ENDMDL
MODEL 6
REMARK VINA RESULT:      -6.2      2.092      7.083
REMARK  Name = 
REMARK  16 active torsions:
REMARK  status: ('A' for Active; 'I' for Inactive)
REMARK    1  A    between atoms: C_1  and  C_2
REMARK    2  A    between atoms: C_2  and  N_3
REMARK    3  A    between atoms: C_2  and  C_4
REMARK    4  A    between atoms: N_6  and  C_7
REMARK    5  A    between atoms: C_7  and  C_8
REMARK    6  A    between atoms: C_7  and  C_9
REMARK    7  A    between atoms: N_11  and  C_12
REMARK    8  A    between atoms: C_12  and  C_13
REMARK    9  A    between atoms: C_12  and  C_14
REMARK   10  A    between atoms: N_16  and  C_17
REMARK   11  A    between atoms: C_17  and  C_18
REMARK   12  A    between atoms: C_17  and  C_23
REMARK   13  A    between atoms: C_18  and  C_19
REMARK   14  A    between atoms: C_19  and  C_20
REMARK   15  A    between atoms: C_20  and  C_21
REMARK   16  A    between atoms: C_21  and  N_22
REMARK                            x       y       z     vdW  Elec       q    Type
REMARK                         _______ _______ _______ _____ _____    ______ ____
ROOT
ATOM      1  C   UNL     1       2.888   6.691  19.377  0.00  0.00    +0.000 C 
ATOM      2  C   UNL     1       2.068   7.130  18.168  0.00  0.00    +0.000 C 
ENDROOT
BRANCH   1   5
ATOM      3  C   UNL     1       4.859   6.729  17.884  0.00  0.00    +0.000 C 
ATOM      4  O   UNL     1       4.507   7.800  17.390  0.00  0.00    +0.000 OA
ATOM      5  N   UNL     1       4.181   6.143  18.938  0.00  0.00    +0.000 N 
ATOM      6  H   UNL     1       4.342   5.155  19.097  0.00  0.00    +0.000 HD
BRANCH   3   7
ATOM      7  C   UNL     1       6.145   5.999  17.449  0.00  0.00    +0.000 C 
ATOM      8  C   UNL     1       7.374   6.764  17.932  0.00  0.00    +0.000 C 
BRANCH   7  11
ATOM      9  C   UNL     1       6.921   4.993  15.318  0.00  0.00    +0.000 C 
ATOM     10  O   UNL     1       7.666   4.207  15.902  0.00  0.00    +0.000 OA
ATOM     11  N   UNL     1       6.146   5.902  15.994  0.00  0.00    +0.000 N 
ATOM     12  H   UNL     1       5.509   6.512  15.489  0.00  0.00    +0.000 HD
BRANCH   9  14
ATOM     13  C   UNL     1       6.470   3.738  13.141  0.00  0.00    +0.000 C 
ATOM     14  C   UNL     1       6.838   5.074  13.773  0.00  0.00    +0.000 C 
BRANCH  14  15
ATOM     15  N   UNL     1       8.137   5.520  13.228  0.00  0.00    +0.000 NA
ATOM     16  H   UNL     1       8.204   5.187  12.263  0.00  0.00    +0.000 HD
ATOM     17  H   UNL     1       8.870   4.992  13.709  0.00  0.00    +0.000 HD
ENDBRANCH  14  15
ENDBRANCH   9  14
ENDBRANCH   7  11
ENDBRANCH   3   7
ENDBRANCH   1   5
BRANCH   1  18
ATOM     18  C   UNL     1       2.063   5.640  20.159  0.00  0.00    +0.000 C 
ATOM     19  O   UNL     1       1.386   5.931  21.139  0.00  0.00    +0.000 OA
ATOM     20  N   UNL     1       2.035   4.396  19.566  0.00  0.00    +0.000 N 
ATOM     21  H   UNL     1       2.707   4.219  18.831  0.00  0.00    +0.000 HD
BRANCH  20  22
ATOM     22  C   UNL     1       1.324   3.256  20.141  0.00  0.00    +0.000 C 
BRANCH  22  23
ATOM     23  C   UNL     1       2.016   2.685  21.399  0.00  0.00    +0.000 C 
ATOM     24  N   UNL     1       1.215   2.281  22.429  0.00  0.00    +0.000 N 
ATOM     25  O   UNL     1       3.238   2.611  21.514  0.00  0.00    +0.000 OA
ATOM     26  H   UNL     1       0.250   2.010  22.251  0.00  0.00    +0.000 HD
ATOM     27  H   UNL     1       1.687   1.783  23.171  0.00  0.00    +0.000 HD
ENDBRANCH  22  23
BRANCH  22  28
ATOM     28  C   UNL     1       1.188   2.139  19.091  0.00  0.00    +0.000 C 
BRANCH  28  29
ATOM     29  C   UNL     1       2.073   2.399  17.868  0.00  0.00    +0.000 C 
BRANCH  29  30
ATOM     30  C   UNL     1       3.440   1.729  17.976  0.00  0.00    +0.000 C 
BRANCH  30  31
ATOM     31  C   UNL     1       4.545   2.783  17.922  0.00  0.00    +0.000 C 
BRANCH  31  32
ATOM     32  N   UNL     1       5.051   3.085  19.253  0.00  0.00    +0.000 NA
ATOM     33  H   UNL     1       5.382   4.048  19.288  0.00  0.00    +0.000 HD
ATOM     34  H   UNL     1       5.861   2.498  19.446  0.00  0.00    +0.000 HD
ENDBRANCH  31  32
ENDBRANCH  30  31
ENDBRANCH  29  30
ENDBRANCH  28  29
ENDBRANCH  22  28
ENDBRANCH  20  22
ENDBRANCH   1  18
TORSDOF 13
ENDMDL
MODEL 7
REMARK VINA RESULT:      -6.2      2.103      7.049
REMARK  Name = 
REMARK  16 active torsions:
REMARK  status: ('A' for Active; 'I' for Inactive)
REMARK    1  A    between atoms: C_1  and  C_2
REMARK    2  A    between atoms: C_2  and  N_3
REMARK    3  A    between atoms: C_2  and  C_4
REMARK    4  A    between atoms: N_6  and  C_7
REMARK    5  A    between atoms: C_7  and  C_8
REMARK    6  A    between atoms: C_7  and  C_9
REMARK    7  A    between atoms: N_11  and  C_12
REMARK    8  A    between atoms: C_12  and  C_13
REMARK    9  A    between atoms: C_12  and  C_14
REMARK   10  A    between atoms: N_16  and  C_17
REMARK   11  A    between atoms: C_17  and  C_18
REMARK   12  A    between atoms: C_17  and  C_23
REMARK   13  A    between atoms: C_18  and  C_19
REMARK   14  A    between atoms: C_19  and  C_20
REMARK   15  A    between atoms: C_20  and  C_21
REMARK   16  A    between atoms: C_21  and  N_22
REMARK                            x       y       z     vdW  Elec       q    Type
REMARK                         _______ _______ _______ _____ _____    ______ ____
ROOT
ATOM      1  C   UNL     1       5.955   4.773  18.563  0.00  0.00    +0.000 C 
ATOM      2  C   UNL     1       7.012   5.709  19.142  0.00  0.00    +0.000 C 
ENDROOT
BRANCH   1   5
ATOM      3  C   UNL     1       6.846   4.674  16.258  0.00  0.00    +0.000 C 
ATOM      4  O   UNL     1       7.831   4.038  16.630  0.00  0.00    +0.000 OA
ATOM      5  N   UNL     1       5.813   5.004  17.117  0.00  0.00    +0.000 N 
ATOM      6  H   UNL     1       5.195   5.754  16.828  0.00  0.00    +0.000 HD
BRANCH   3   7
ATOM      7  C   UNL     1       6.619   5.066  14.784  0.00  0.00    +0.000 C 
ATOM      8  C   UNL     1       5.492   6.090  14.680  0.00  0.00    +0.000 C 
BRANCH   7  11
ATOM      9  C   UNL     1       6.631   3.687  12.721  0.00  0.00    +0.000 C 
ATOM     10  O   UNL     1       7.250   4.545  12.092  0.00  0.00    +0.000 OA
ATOM     11  N   UNL     1       6.280   3.860  14.038  0.00  0.00    +0.000 N 
ATOM     12  H   UNL     1       5.806   3.119  14.546  0.00  0.00    +0.000 HD
BRANCH   9  14
ATOM     13  C   UNL     1       7.140   1.800  11.079  0.00  0.00    +0.000 C 
ATOM     14  C   UNL     1       6.137   2.370  12.074  0.00  0.00    +0.000 C 
BRANCH  14  15
ATOM     15  N   UNL     1       4.856   2.609  11.378  0.00  0.00    +0.000 NA
ATOM     16  H   UNL     1       4.176   2.927  12.073  0.00  0.00    +0.000 HD
ATOM     17  H   UNL     1       4.488   1.698  11.090  0.00  0.00    +0.000 HD
ENDBRANCH  14  15
ENDBRANCH   9  14
ENDBRANCH   7  11
ENDBRANCH   3   7
ENDBRANCH   1   5
BRANCH   1  18
ATOM     18  C   UNL     1       4.625   5.030  19.312  0.00  0.00    +0.000 C 
ATOM     19  O   UNL     1       4.098   6.136  19.356  0.00  0.00    +0.000 OA
ATOM     20  N   UNL     1       4.016   3.887  19.781  0.00  0.00    +0.000 N 
ATOM     21  H   UNL     1       4.572   3.041  19.799  0.00  0.00    +0.000 HD
BRANCH  20  22
ATOM     22  C   UNL     1       2.758   3.902  20.525  0.00  0.00    +0.000 C 
BRANCH  22  23
ATOM     23  C   UNL     1       2.636   2.734  21.529  0.00  0.00    +0.000 C 
ATOM     24  N   UNL     1       1.469   2.626  22.230  0.00  0.00    +0.000 N 
ATOM     25  O   UNL     1       3.547   1.934  21.737  0.00  0.00    +0.000 OA
ATOM     26  H   UNL     1       0.610   3.027  21.859  0.00  0.00    +0.000 HD
ATOM     27  H   UNL     1       1.367   1.775  22.767  0.00  0.00    +0.000 HD
ENDBRANCH  22  23
BRANCH  22  28
ATOM     28  C   UNL     1       1.570   3.851  19.548  0.00  0.00    +0.000 C 
BRANCH  28  29
ATOM     29  C   UNL     1       1.552   2.547  18.745  0.00  0.00    +0.000 C 
BRANCH  29  30
ATOM     30  C   UNL     1       2.230   2.684  17.383  0.00  0.00    +0.000 C 
BRANCH  30  31
ATOM     31  C   UNL     1       3.592   1.992  17.406  0.00  0.00    +0.000 C 
BRANCH  31  32
ATOM     32  N   UNL     1       3.694   1.064  18.524  0.00  0.00    +0.000 NA
ATOM     33  H   UNL     1       4.533   0.495  18.426  0.00  0.00    +0.000 HD
ATOM     34  H   UNL     1       2.906   0.419  18.497  0.00  0.00    +0.000 HD
ENDBRANCH  31  32
ENDBRANCH  30  31
ENDBRANCH  29  30
ENDBRANCH  28  29
ENDBRANCH  22  28
ENDBRANCH  20  22
ENDBRANCH   1  18
TORSDOF 13
ENDMDL
MODEL 8
REMARK VINA RESULT:      -6.1      3.954      8.469
REMARK  Name = 
REMARK  16 active torsions:
REMARK  status: ('A' for Active; 'I' for Inactive)
REMARK    1  A    between atoms: C_1  and  C_2
REMARK    2  A    between atoms: C_2  and  N_3
REMARK    3  A    between atoms: C_2  and  C_4
REMARK    4  A    between atoms: N_6  and  C_7
REMARK    5  A    between atoms: C_7  and  C_8
REMARK    6  A    between atoms: C_7  and  C_9
REMARK    7  A    between atoms: N_11  and  C_12
REMARK    8  A    between atoms: C_12  and  C_13
REMARK    9  A    between atoms: C_12  and  C_14
REMARK   10  A    between atoms: N_16  and  C_17
REMARK   11  A    between atoms: C_17  and  C_18
REMARK   12  A    between atoms: C_17  and  C_23
REMARK   13  A    between atoms: C_18  and  C_19
REMARK   14  A    between atoms: C_19  and  C_20
REMARK   15  A    between atoms: C_20  and  C_21
REMARK   16  A    between atoms: C_21  and  N_22
REMARK                            x       y       z     vdW  Elec       q    Type
REMARK                         _______ _______ _______ _____ _____    ______ ____
ROOT
ATOM      1  C   UNL     1       2.409   5.845  19.650  0.00  0.00    +0.000 C 
ATOM      2  C   UNL     1       2.011   5.159  20.953  0.00  0.00    +0.000 C 
ENDROOT
BRANCH   1   5
ATOM      3  C   UNL     1       4.219   4.459  18.691  0.00  0.00    +0.000 C 
ATOM      4  O   UNL     1       3.405   3.699  18.168  0.00  0.00    +0.000 OA
ATOM      5  N   UNL     1       3.831   5.604  19.365  0.00  0.00    +0.000 N 
ATOM      6  H   UNL     1       4.505   6.014  20.002  0.00  0.00    +0.000 HD
BRANCH   3   7
ATOM      7  C   UNL     1       5.742   4.268  18.552  0.00  0.00    +0.000 C 
ATOM      8  C   UNL     1       6.482   5.356  19.325  0.00  0.00    +0.000 C 
BRANCH   7  11
ATOM      9  C   UNL     1       5.724   5.392  16.340  0.00  0.00    +0.000 C 
ATOM     10  O   UNL     1       5.088   6.351  16.776  0.00  0.00    +0.000 OA
ATOM     11  N   UNL     1       6.082   4.332  17.135  0.00  0.00    +0.000 N 
ATOM     12  H   UNL     1       6.642   3.572  16.759  0.00  0.00    +0.000 HD
BRANCH   9  14
ATOM     13  C   UNL     1       5.588   3.981  14.217  0.00  0.00    +0.000 C 
ATOM     14  C   UNL     1       6.119   5.262  14.847  0.00  0.00    +0.000 C 
BRANCH  14  15
ATOM     15  N   UNL     1       7.591   5.285  14.719  0.00  0.00    +0.000 NA
ATOM     16  H   UNL     1       7.823   5.789  13.860  0.00  0.00    +0.000 HD
ATOM     17  H   UNL     1       7.897   4.329  14.519  0.00  0.00    +0.000 HD
ENDBRANCH  14  15
ENDBRANCH   9  14
ENDBRANCH   7  11
ENDBRANCH   3   7
ENDBRANCH   1   5
BRANCH   1  18
ATOM     18  C   UNL     1       2.108   7.357  19.794  0.00  0.00    +0.000 C 
ATOM     19  O   UNL     1       2.359   8.165  18.907  0.00  0.00    +0.000 OA
ATOM     20  N   UNL     1       1.397   7.681  20.928  0.00  0.00    +0.000 N 
ATOM     21  H   UNL     1       1.333   6.976  21.652  0.00  0.00    +0.000 HD
BRANCH  20  22
ATOM     22  C   UNL     1       1.015   9.051  21.266  0.00  0.00    +0.000 C 
BRANCH  22  23
ATOM     23  C   UNL     1       0.860   9.277  22.787  0.00  0.00    +0.000 C 
ATOM     24  N   UNL     1      -0.409   9.383  23.280  0.00  0.00    +0.000 N 
ATOM     25  O   UNL     1       1.820   9.393  23.546  0.00  0.00    +0.000 OA
ATOM     26  H   UNL     1      -1.190   8.966  22.778  0.00  0.00    +0.000 HD
ATOM     27  H   UNL     1      -0.479   9.385  24.289  0.00  0.00    +0.000 HD
ENDBRANCH  22  23
BRANCH  22  28
ATOM     28  C   UNL     1      -0.306   9.416  20.566  0.00  0.00    +0.000 C 
BRANCH  28  29
ATOM     29  C   UNL     1      -0.103  10.499  19.502  0.00  0.00    +0.000 C 
BRANCH  29  30
ATOM     30  C   UNL     1      -0.989  10.293  18.275  0.00  0.00    +0.000 C 
BRANCH  30  31
ATOM     31  C   UNL     1      -1.867  11.523  18.053  0.00  0.00    +0.000 C 
BRANCH  31  32
ATOM     32  N   UNL     1      -2.059  11.786  16.634  0.00  0.00    +0.000 NA
ATOM     33  H   UNL     1      -2.620  11.045  16.216  0.00  0.00    +0.000 HD
ATOM     34  H   UNL     1      -1.155  11.760  16.163  0.00  0.00    +0.000 HD
ENDBRANCH  31  32
ENDBRANCH  30  31
ENDBRANCH  29  30
ENDBRANCH  28  29
ENDBRANCH  22  28
ENDBRANCH  20  22
ENDBRANCH   1  18
TORSDOF 13
ENDMDL
MODEL 9
REMARK VINA RESULT:      -6.1      3.618      6.058
REMARK  Name = 
REMARK  16 active torsions:
REMARK  status: ('A' for Active; 'I' for Inactive)
REMARK    1  A    between atoms: C_1  and  C_2
REMARK    2  A    between atoms: C_2  and  N_3
REMARK    3  A    between atoms: C_2  and  C_4
REMARK    4  A    between atoms: N_6  and  C_7
REMARK    5  A    between atoms: C_7  and  C_8
REMARK    6  A    between atoms: C_7  and  C_9
REMARK    7  A    between atoms: N_11  and  C_12
REMARK    8  A    between atoms: C_12  and  C_13
REMARK    9  A    between atoms: C_12  and  C_14
REMARK   10  A    between atoms: N_16  and  C_17
REMARK   11  A    between atoms: C_17  and  C_18
REMARK   12  A    between atoms: C_17  and  C_23
REMARK   13  A    between atoms: C_18  and  C_19
REMARK   14  A    between atoms: C_19  and  C_20
REMARK   15  A    between atoms: C_20  and  C_21
REMARK   16  A    between atoms: C_21  and  N_22
REMARK                            x       y       z     vdW  Elec       q    Type
REMARK                         _______ _______ _______ _____ _____    ______ ____
ROOT
ATOM      1  C   UNL     1       2.810   5.294  20.103  0.00  0.00    +0.000 C 
ATOM      2  C   UNL     1       1.644   4.311  20.112  0.00  0.00    +0.000 C 
ENDROOT
BRANCH   1   5
ATOM      3  C   UNL     1       1.900   7.559  19.705  0.00  0.00    +0.000 C 
ATOM      4  O   UNL     1       1.734   7.740  20.911  0.00  0.00    +0.000 OA
ATOM      5  N   UNL     1       2.513   6.422  19.208  0.00  0.00    +0.000 N 
ATOM      6  H   UNL     1       2.360   6.207  18.229  0.00  0.00    +0.000 HD
BRANCH   3   7
ATOM      7  C   UNL     1       1.543   8.623  18.649  0.00  0.00    +0.000 C 
ATOM      8  C   UNL     1       2.643   8.707  17.594  0.00  0.00    +0.000 C 
BRANCH   7  11
ATOM      9  C   UNL     1       0.322  10.737  19.092  0.00  0.00    +0.000 C 
ATOM     10  O   UNL     1      -0.566  10.450  18.291  0.00  0.00    +0.000 OA
ATOM     11  N   UNL     1       1.389   9.905  19.326  0.00  0.00    +0.000 N 
ATOM     12  H   UNL     1       2.088  10.147  20.023  0.00  0.00    +0.000 HD
BRANCH   9  14
ATOM     13  C   UNL     1       0.957  13.209  19.025  0.00  0.00    +0.000 C 
ATOM     14  C   UNL     1       0.355  12.084  19.857  0.00  0.00    +0.000 C 
BRANCH  14  15
ATOM     15  N   UNL     1       1.141  11.932  21.098  0.00  0.00    +0.000 NA
ATOM     16  H   UNL     1       0.650  11.268  21.702  0.00  0.00    +0.000 HD
ATOM     17  H   UNL     1       1.074  12.812  21.614  0.00  0.00    +0.000 HD
ENDBRANCH  14  15
ENDBRANCH   9  14
ENDBRANCH   7  11
ENDBRANCH   3   7
ENDBRANCH   1   5
BRANCH   1  18
ATOM     18  C   UNL     1       4.078   4.529  19.650  0.00  0.00    +0.000 C 
ATOM     19  O   UNL     1       4.105   3.309  19.536  0.00  0.00    +0.000 OA
ATOM     20  N   UNL     1       5.108   5.347  19.240  0.00  0.00    +0.000 N 
ATOM     21  H   UNL     1       5.041   6.329  19.474  0.00  0.00    +0.000 HD
BRANCH  20  22
ATOM     22  C   UNL     1       6.399   4.834  18.783  0.00  0.00    +0.000 C 
BRANCH  22  23
ATOM     23  C   UNL     1       7.582   5.753  19.162  0.00  0.00    +0.000 C 
ATOM     24  N   UNL     1       8.266   5.458  20.307  0.00  0.00    +0.000 N 
ATOM     25  O   UNL     1       7.903   6.737  18.498  0.00  0.00    +0.000 OA
ATOM     26  H   UNL     1       8.262   4.509  20.675  0.00  0.00    +0.000 HD
ATOM     27  H   UNL     1       9.117   5.986  20.448  0.00  0.00    +0.000 HD
ENDBRANCH  22  23
BRANCH  22  28
ATOM     28  C   UNL     1       6.377   4.645  17.256  0.00  0.00    +0.000 C 
BRANCH  28  29
ATOM     29  C   UNL     1       5.393   5.605  16.580  0.00  0.00    +0.000 C 
BRANCH  29  30
ATOM     30  C   UNL     1       5.443   5.523  15.056  0.00  0.00    +0.000 C 
BRANCH  30  31
ATOM     31  C   UNL     1       6.684   4.750  14.615  0.00  0.00    +0.000 C 
BRANCH  31  32
ATOM     32  N   UNL     1       6.324   3.579  13.827  0.00  0.00    +0.000 NA
ATOM     33  H   UNL     1       5.311   3.492  13.777  0.00  0.00    +0.000 HD
ATOM     34  H   UNL     1       6.661   2.741  14.299  0.00  0.00    +0.000 HD
ENDBRANCH  31  32
ENDBRANCH  30  31
ENDBRANCH  29  30
ENDBRANCH  28  29
ENDBRANCH  22  28
ENDBRANCH  20  22
ENDBRANCH   1  18
TORSDOF 13
ENDMDL
