MODEL 1
REMARK VINA RESULT:      -8.0      0.000      0.000
REMARK  Name = 
REMARK  4 active torsions:
REMARK  status: ('A' for Active; 'I' for Inactive)
REMARK    1  A    between atoms: C_1  and  C_2
REMARK    2  A    between atoms: C_8  and  C_9
REMARK    3  A    between atoms: C_9  and  N_10
REMARK    4  A    between atoms: C_17  and  C_18
REMARK                            x       y       z     vdW  Elec       q    Type
REMARK                         _______ _______ _______ _____ _____    ______ ____
ROOT
ATOM      1  N   UNL     1       5.546   4.940  18.473  0.00  0.00    +0.000 N 
ATOM      2  N   UNL     1       5.478   3.809  19.217  0.00  0.00    +0.000 NA
ATOM      3  N   UNL     1       4.276   3.784  19.790  0.00  0.00    +0.000 NA
ATOM      4  C   UNL     1       3.588   4.899  19.378  0.00  0.00    +0.000 A 
ATOM      5  C   UNL     1       2.316   5.412  19.647  0.00  0.00    +0.000 A 
ATOM      6  N   UNL     1       1.404   4.805  20.482  0.00  0.00    +0.000 N 
ATOM      7  N   UNL     1       1.958   6.577  19.053  0.00  0.00    +0.000 NA
ATOM      8  C   UNL     1       2.821   7.213  18.214  0.00  0.00    +0.000 A 
ATOM      9  N   UNL     1       4.054   6.769  17.891  0.00  0.00    +0.000 NA
ATOM     10  C   UNL     1       4.373   5.632  18.516  0.00  0.00    +0.000 A 
ATOM     11  H   UNL     1       1.647   3.958  20.976  0.00  0.00    +0.000 HD
ATOM     12  H   UNL     1       0.532   5.282  20.647  0.00  0.00    +0.000 HD
ENDROOT
BRANCH   8  13
ATOM     13  C   UNL     1       2.382   8.516  17.590  0.00  0.00    +0.000 C 
ATOM     14  C   UNL     1       1.024   9.101  17.893  0.00  0.00    +0.000 C 
ATOM     15  C   UNL     1       2.246   9.746  18.469  0.00  0.00    +0.000 C 
ENDBRANCH   8  13
BRANCH   1  16
ATOM     16  C   UNL     1       6.748   5.299  17.752  0.00  0.00    +0.000 C 
BRANCH  16  24
ATOM     17  C   UNL     1       8.784   6.057  12.609  0.00  0.00    +0.000 C 
ATOM     18  C   UNL     1       7.679   5.076  12.901  0.00  0.00    +0.000 A 
ATOM     19  C   UNL     1       7.131   4.348  11.897  0.00  0.00    +0.000 A 
ATOM     20  C   UNL     1       6.052   3.397  12.115  0.00  0.00    +0.000 A 
ATOM     21  C   UNL     1       5.570   3.233  13.357  0.00  0.00    +0.000 A 
ATOM     22  N   UNL     1       6.123   3.972  14.395  0.00  0.00    +0.000 N 
ATOM     23  C   UNL     1       5.793   3.985  15.726  0.00  0.00    +0.000 A 
ATOM     24  C   UNL     1       6.658   4.882  16.323  0.00  0.00    +0.000 A 
ATOM     25  N   UNL     1       7.492   5.439  15.376  0.00  0.00    +0.000 NA
ATOM     26  C   UNL     1       7.160   4.882  14.228  0.00  0.00    +0.000 A 
ENDBRANCH  16  24
ENDBRANCH   1  16
TORSDOF 3
ENDMDL
MODEL 2
REMARK VINA RESULT:      -7.8      3.186      8.045
REMARK  Name = 
REMARK  4 active torsions:
REMARK  status: ('A' for Active; 'I' for Inactive)
REMARK    1  A    between atoms: C_1  and  C_2
REMARK    2  A    between atoms: C_8  and  C_9
REMARK    3  A    between atoms: C_9  and  N_10
REMARK    4  A    between atoms: C_17  and  C_18
REMARK                            x       y       z     vdW  Elec       q    Type
REMARK                         _______ _______ _______ _____ _____    ______ ____
ROOT
ATOM      1  N   UNL     1       2.700   6.383  18.715  0.00  0.00    +0.000 N 
ATOM      2  N   UNL     1       1.819   5.486  19.221  0.00  0.00    +0.000 NA
ATOM      3  N   UNL     1       2.489   4.358  19.449  0.00  0.00    +0.000 NA
ATOM      4  C   UNL     1       3.800   4.567  19.101  0.00  0.00    +0.000 A 
ATOM      5  C   UNL     1       4.948   3.769  19.106  0.00  0.00    +0.000 A 
ATOM      6  N   UNL     1       4.967   2.456  19.520  0.00  0.00    +0.000 N 
ATOM      7  N   UNL     1       6.111   4.318  18.675  0.00  0.00    +0.000 NA
ATOM      8  C   UNL     1       6.145   5.615  18.262  0.00  0.00    +0.000 A 
ATOM      9  N   UNL     1       5.086   6.452  18.248  0.00  0.00    +0.000 NA
ATOM     10  C   UNL     1       3.958   5.862  18.658  0.00  0.00    +0.000 A 
ATOM     11  H   UNL     1       4.115   1.997  19.808  0.00  0.00    +0.000 HD
ATOM     12  H   UNL     1       5.837   1.953  19.438  0.00  0.00    +0.000 HD
ENDROOT
BRANCH   8  13
ATOM     13  C   UNL     1       7.460   6.175  17.776  0.00  0.00    +0.000 C 
ATOM     14  C   UNL     1       7.614   7.648  17.485  0.00  0.00    +0.000 C 
ATOM     15  C   UNL     1       8.271   7.066  18.699  0.00  0.00    +0.000 C 
ENDBRANCH   8  13
BRANCH   1  16
ATOM     16  C   UNL     1       2.283   7.707  18.309  0.00  0.00    +0.000 C 
BRANCH  16  24
ATOM     17  C   UNL     1      -1.005  12.014  19.657  0.00  0.00    +0.000 C 
ATOM     18  C   UNL     1      -0.524  11.017  20.678  0.00  0.00    +0.000 A 
ATOM     19  C   UNL     1      -0.875  11.154  21.981  0.00  0.00    +0.000 A 
ATOM     20  C   UNL     1      -0.430  10.232  23.015  0.00  0.00    +0.000 A 
ATOM     21  C   UNL     1       0.365   9.206  22.674  0.00  0.00    +0.000 A 
ATOM     22  N   UNL     1       0.733   9.055  21.343  0.00  0.00    +0.000 N 
ATOM     23  C   UNL     1       1.535   8.106  20.764  0.00  0.00    +0.000 A 
ATOM     24  C   UNL     1       1.561   8.402  19.414  0.00  0.00    +0.000 A 
ATOM     25  N   UNL     1       0.811   9.531  19.162  0.00  0.00    +0.000 NA
ATOM     26  C   UNL     1       0.320   9.908  20.326  0.00  0.00    +0.000 A 
ENDBRANCH  16  24
ENDBRANCH   1  16
TORSDOF 3
ENDMDL
MODEL 3
REMARK VINA RESULT:      -7.8      1.643      7.461
REMARK  Name = 
REMARK  4 active torsions:
REMARK  status: ('A' for Active; 'I' for Inactive)
REMARK    1  A    between atoms: C_1  and  C_2
REMARK    2  A    between atoms: C_8  and  C_9
REMARK    3  A    between atoms: C_9  and  N_10
REMARK    4  A    between atoms: C_17  and  C_18
REMARK                            x       y       z     vdW  Elec       q    Type
REMARK                         _______ _______ _______ _____ _____    ______ ____
ROOT
ATOM      1  N   UNL     1       5.835   4.090  16.058  0.00  0.00    +0.000 N 
ATOM      2  N   UNL     1       6.743   4.856  16.710  0.00  0.00    +0.000 NA
ATOM      3  N   UNL     1       7.565   5.363  15.792  0.00  0.00    +0.000 NA
ATOM      4  C   UNL     1       7.147   4.922  14.561  0.00  0.00    +0.000 A 
ATOM      5  C   UNL     1       7.608   5.105  13.254  0.00  0.00    +0.000 A 
ATOM      6  N   UNL     1       8.710   5.866  12.928  0.00  0.00    +0.000 N 
ATOM      7  N   UNL     1       6.934   4.496  12.247  0.00  0.00    +0.000 NA
ATOM      8  C   UNL     1       5.835   3.740  12.516  0.00  0.00    +0.000 A 
ATOM      9  N   UNL     1       5.319   3.534  13.747  0.00  0.00    +0.000 NA
ATOM     10  C   UNL     1       6.029   4.133  14.709  0.00  0.00    +0.000 A 
ATOM     11  H   UNL     1       9.263   6.301  13.651  0.00  0.00    +0.000 HD
ATOM     12  H   UNL     1       8.987   5.894  11.959  0.00  0.00    +0.000 HD
ENDROOT
BRANCH   8  13
ATOM     13  C   UNL     1       5.129   3.069  11.363  0.00  0.00    +0.000 C 
ATOM     14  C   UNL     1       3.657   2.743  11.440  0.00  0.00    +0.000 C 
ATOM     15  C   UNL     1       4.117   3.860  10.555  0.00  0.00    +0.000 C 
ENDBRANCH   8  13
BRANCH   1  16
ATOM     16  C   UNL     1       4.818   3.349  16.772  0.00  0.00    +0.000 C 
BRANCH  16  24
ATOM     17  C   UNL     1       1.725   3.608  21.413  0.00  0.00    +0.000 C 
ATOM     18  C   UNL     1       2.036   4.826  20.584  0.00  0.00    +0.000 A 
ATOM     19  C   UNL     1       1.549   6.039  20.945  0.00  0.00    +0.000 A 
ATOM     20  C   UNL     1       1.803   7.248  20.177  0.00  0.00    +0.000 A 
ATOM     21  C   UNL     1       2.543   7.166  19.060  0.00  0.00    +0.000 A 
ATOM     22  N   UNL     1       3.048   5.929  18.678  0.00  0.00    +0.000 N 
ATOM     23  C   UNL     1       3.808   5.600  17.586  0.00  0.00    +0.000 A 
ATOM     24  C   UNL     1       4.052   4.243  17.688  0.00  0.00    +0.000 A 
ATOM     25  N   UNL     1       3.429   3.732  18.808  0.00  0.00    +0.000 NA
ATOM     26  C   UNL     1       2.835   4.755  19.391  0.00  0.00    +0.000 A 
ENDBRANCH  16  24
ENDBRANCH   1  16
TORSDOF 3
ENDMDL
MODEL 4
REMARK VINA RESULT:      -7.8      1.771      7.354
REMARK  Name = 
REMARK  4 active torsions:
REMARK  status: ('A' for Active; 'I' for Inactive)
REMARK    1  A    between atoms: C_1  and  C_2
REMARK    2  A    between atoms: C_8  and  C_9
REMARK    3  A    between atoms: C_9  and  N_10
REMARK    4  A    between atoms: C_17  and  C_18
REMARK                            x       y       z     vdW  Elec       q    Type
REMARK                         _______ _______ _______ _____ _____    ______ ____
ROOT
ATOM      1  N   UNL     1       4.108   5.222  18.581  0.00  0.00    +0.000 N 
ATOM      2  N   UNL     1       4.651   5.118  19.819  0.00  0.00    +0.000 NA
ATOM      3  N   UNL     1       5.951   4.875  19.662  0.00  0.00    +0.000 NA
ATOM      4  C   UNL     1       6.217   4.852  18.315  0.00  0.00    +0.000 A 
ATOM      5  C   UNL     1       7.370   4.636  17.555  0.00  0.00    +0.000 A 
ATOM      6  N   UNL     1       8.610   4.379  18.096  0.00  0.00    +0.000 N 
ATOM      7  N   UNL     1       7.262   4.680  16.203  0.00  0.00    +0.000 NA
ATOM      8  C   UNL     1       6.060   4.937  15.620  0.00  0.00    +0.000 A 
ATOM      9  N   UNL     1       4.910   5.175  16.286  0.00  0.00    +0.000 NA
ATOM     10  C   UNL     1       5.059   5.098  17.612  0.00  0.00    +0.000 A 
ATOM     11  H   UNL     1       8.725   4.297  19.096  0.00  0.00    +0.000 HD
ATOM     12  H   UNL     1       9.368   4.190  17.460  0.00  0.00    +0.000 HD
ENDROOT
BRANCH   8  13
ATOM     13  C   UNL     1       5.987   4.958  14.111  0.00  0.00    +0.000 C 
ATOM     14  C   UNL     1       7.187   4.589  13.273  0.00  0.00    +0.000 C 
ATOM     15  C   UNL     1       6.027   3.646  13.351  0.00  0.00    +0.000 C 
ENDBRANCH   8  13
BRANCH   1  16
ATOM     16  C   UNL     1       2.690   5.437  18.393  0.00  0.00    +0.000 C 
BRANCH  16  24
ATOM     17  C   UNL     1       0.570   9.054  22.081  0.00  0.00    +0.000 C 
ATOM     18  C   UNL     1       1.026   9.476  20.709  0.00  0.00    +0.000 A 
ATOM     19  C   UNL     1       0.917  10.772  20.324  0.00  0.00    +0.000 A 
ATOM     20  C   UNL     1       1.326  11.237  19.008  0.00  0.00    +0.000 A 
ATOM     21  C   UNL     1       1.827  10.353  18.131  0.00  0.00    +0.000 A 
ATOM     22  N   UNL     1       1.945   9.022  18.513  0.00  0.00    +0.000 N 
ATOM     23  C   UNL     1       2.409   7.949  17.797  0.00  0.00    +0.000 A 
ATOM     24  C   UNL     1       2.328   6.861  18.646  0.00  0.00    +0.000 A 
ATOM     25  N   UNL     1       1.795   7.245  19.859  0.00  0.00    +0.000 NA
ATOM     26  C   UNL     1       1.574   8.542  19.763  0.00  0.00    +0.000 A 
ENDBRANCH  16  24
ENDBRANCH   1  16
TORSDOF 3
ENDMDL
MODEL 5
REMARK VINA RESULT:      -7.7      1.613      7.776
REMARK  Name = 
REMARK  4 active torsions:
REMARK  status: ('A' for Active; 'I' for Inactive)
REMARK    1  A    between atoms: C_1  and  C_2
REMARK    2  A    between atoms: C_8  and  C_9
REMARK    3  A    between atoms: C_9  and  N_10
REMARK    4  A    between atoms: C_17  and  C_18
REMARK                            x       y       z     vdW  Elec       q    Type
REMARK                         _______ _______ _______ _____ _____    ______ ____
ROOT
ATOM      1  N   UNL     1       5.809   4.331  15.942  0.00  0.00    +0.000 N 
ATOM      2  N   UNL     1       6.516   5.297  16.579  0.00  0.00    +0.000 NA
ATOM      3  N   UNL     1       7.400   5.780  15.707  0.00  0.00    +0.000 NA
ATOM      4  C   UNL     1       7.222   5.122  14.515  0.00  0.00    +0.000 A 
ATOM      5  C   UNL     1       7.846   5.186  13.266  0.00  0.00    +0.000 A 
ATOM      6  N   UNL     1       8.888   6.037  12.971  0.00  0.00    +0.000 N 
ATOM      7  N   UNL     1       7.403   4.358  12.287  0.00  0.00    +0.000 NA
ATOM      8  C   UNL     1       6.372   3.503  12.527  0.00  0.00    +0.000 A 
ATOM      9  N   UNL     1       5.708   3.399  13.698  0.00  0.00    +0.000 NA
ATOM     10  C   UNL     1       6.193   4.215  14.639  0.00  0.00    +0.000 A 
ATOM     11  H   UNL     1       9.274   6.639  13.683  0.00  0.00    +0.000 HD
ATOM     12  H   UNL     1       9.300   5.971  12.054  0.00  0.00    +0.000 HD
ENDROOT
BRANCH   8  13
ATOM     13  C   UNL     1       5.926   2.590  11.410  0.00  0.00    +0.000 C 
ATOM     14  C   UNL     1       6.928   1.778  10.626  0.00  0.00    +0.000 C 
ATOM     15  C   UNL     1       6.024   1.088  11.600  0.00  0.00    +0.000 C 
ENDBRANCH   8  13
BRANCH   1  16
ATOM     16  C   UNL     1       4.791   3.564  16.625  0.00  0.00    +0.000 C 
BRANCH  16  24
ATOM     17  C   UNL     1       1.892   3.660  21.396  0.00  0.00    +0.000 C 
ATOM     18  C   UNL     1       2.121   4.896  20.567  0.00  0.00    +0.000 A 
ATOM     19  C   UNL     1       1.604   6.086  20.963  0.00  0.00    +0.000 A 
ATOM     20  C   UNL     1       1.779   7.311  20.198  0.00  0.00    +0.000 A 
ATOM     21  C   UNL     1       2.473   7.268  19.050  0.00  0.00    +0.000 A 
ATOM     22  N   UNL     1       3.008   6.056  18.633  0.00  0.00    +0.000 N 
ATOM     23  C   UNL     1       3.733   5.766  17.506  0.00  0.00    +0.000 A 
ATOM     24  C   UNL     1       4.031   4.418  17.582  0.00  0.00    +0.000 A 
ATOM     25  N   UNL     1       3.478   3.874  18.722  0.00  0.00    +0.000 NA
ATOM     26  C   UNL     1       2.871   4.868  19.341  0.00  0.00    +0.000 A 
ENDBRANCH  16  24
ENDBRANCH   1  16
TORSDOF 3
ENDMDL
MODEL 6
REMARK VINA RESULT:      -7.7      1.536      7.157
REMARK  Name = 
REMARK  4 active torsions:
REMARK  status: ('A' for Active; 'I' for Inactive)
REMARK    1  A    between atoms: C_1  and  C_2
REMARK    2  A    between atoms: C_8  and  C_9
REMARK    3  A    between atoms: C_9  and  N_10
REMARK    4  A    between atoms: C_17  and  C_18
REMARK                            x       y       z     vdW  Elec       q    Type
REMARK                         _______ _______ _______ _____ _____    ______ ____
ROOT
ATOM      1  N   UNL     1       5.718   4.109  16.182  0.00  0.00    +0.000 N 
ATOM      2  N   UNL     1       6.609   4.878  16.854  0.00  0.00    +0.000 NA
ATOM      3  N   UNL     1       7.460   5.374  15.957  0.00  0.00    +0.000 NA
ATOM      4  C   UNL     1       7.078   4.924  14.717  0.00  0.00    +0.000 A 
ATOM      5  C   UNL     1       7.578   5.094  13.423  0.00  0.00    +0.000 A 
ATOM      6  N   UNL     1       8.691   5.848  13.123  0.00  0.00    +0.000 N 
ATOM      7  N   UNL     1       6.932   4.478  12.402  0.00  0.00    +0.000 NA
ATOM      8  C   UNL     1       5.824   3.727  12.645  0.00  0.00    +0.000 A 
ATOM      9  N   UNL     1       5.271   3.534  13.862  0.00  0.00    +0.000 NA
ATOM     10  C   UNL     1       5.953   4.138  14.839  0.00  0.00    +0.000 A 
ATOM     11  H   UNL     1       9.224   6.288  13.859  0.00  0.00    +0.000 HD
ATOM     12  H   UNL     1       8.998   5.867  12.164  0.00  0.00    +0.000 HD
ENDROOT
BRANCH   8  13
ATOM     13  C   UNL     1       5.150   3.047  11.477  0.00  0.00    +0.000 C 
ATOM     14  C   UNL     1       3.665   2.778  11.489  0.00  0.00    +0.000 C 
ATOM     15  C   UNL     1       4.209   3.851  10.598  0.00  0.00    +0.000 C 
ENDBRANCH   8  13
BRANCH   1  16
ATOM     16  C   UNL     1       4.679   3.377  16.872  0.00  0.00    +0.000 C 
BRANCH  16  24
ATOM     17  C   UNL     1       2.626   8.510  17.654  0.00  0.00    +0.000 C 
ATOM     18  C   UNL     1       2.473   7.417  18.679  0.00  0.00    +0.000 A 
ATOM     19  C   UNL     1       1.831   7.664  19.847  0.00  0.00    +0.000 A 
ATOM     20  C   UNL     1       1.665   6.653  20.881  0.00  0.00    +0.000 A 
ATOM     21  C   UNL     1       2.171   5.426  20.679  0.00  0.00    +0.000 A 
ATOM     22  N   UNL     1       2.831   5.160  19.486  0.00  0.00    +0.000 N 
ATOM     23  C   UNL     1       3.433   4.003  19.064  0.00  0.00    +0.000 A 
ATOM     24  C   UNL     1       3.925   4.269  17.800  0.00  0.00    +0.000 A 
ATOM     25  N   UNL     1       3.658   5.577  17.453  0.00  0.00    +0.000 NA
ATOM     26  C   UNL     1       3.000   6.096  18.472  0.00  0.00    +0.000 A 
ENDBRANCH  16  24
ENDBRANCH   1  16
TORSDOF 3
ENDMDL
MODEL 7
REMARK VINA RESULT:      -7.6      2.460      7.947
REMARK  Name = 
REMARK  4 active torsions:
REMARK  status: ('A' for Active; 'I' for Inactive)
REMARK    1  A    between atoms: C_1  and  C_2
REMARK    2  A    between atoms: C_8  and  C_9
REMARK    3  A    between atoms: C_9  and  N_10
REMARK    4  A    between atoms: C_17  and  C_18
REMARK                            x       y       z     vdW  Elec       q    Type
REMARK                         _______ _______ _______ _____ _____    ______ ____
ROOT
ATOM      1  N   UNL     1       2.534   7.415  18.818  0.00  0.00    +0.000 N 
ATOM      2  N   UNL     1       1.906   7.331  20.017  0.00  0.00    +0.000 NA
ATOM      3  N   UNL     1       2.041   6.077  20.448  0.00  0.00    +0.000 NA
ATOM      4  C   UNL     1       2.778   5.388  19.516  0.00  0.00    +0.000 A 
ATOM      5  C   UNL     1       3.223   4.066  19.412  0.00  0.00    +0.000 A 
ATOM      6  N   UNL     1       2.969   3.094  20.353  0.00  0.00    +0.000 N 
ATOM      7  N   UNL     1       3.944   3.720  18.317  0.00  0.00    +0.000 NA
ATOM      8  C   UNL     1       4.228   4.646  17.361  0.00  0.00    +0.000 A 
ATOM      9  N   UNL     1       3.852   5.942  17.402  0.00  0.00    +0.000 NA
ATOM     10  C   UNL     1       3.124   6.232  18.485  0.00  0.00    +0.000 A 
ATOM     11  H   UNL     1       2.400   3.301  21.162  0.00  0.00    +0.000 HD
ATOM     12  H   UNL     1       3.293   2.160  20.160  0.00  0.00    +0.000 HD
ENDROOT
BRANCH   8  13
ATOM     13  C   UNL     1       5.020   4.206  16.152  0.00  0.00    +0.000 C 
ATOM     14  C   UNL     1       5.639   5.221  15.222  0.00  0.00    +0.000 C 
ATOM     15  C   UNL     1       6.521   4.426  16.134  0.00  0.00    +0.000 C 
ENDBRANCH   8  13
BRANCH   1  16
ATOM     16  C   UNL     1       2.533   8.640  18.049  0.00  0.00    +0.000 C 
BRANCH  16  24
ATOM     17  C   UNL     1      -2.723   9.878  16.630  0.00  0.00    +0.000 C 
ATOM     18  C   UNL     1      -2.022  10.545  17.784  0.00  0.00    +0.000 A 
ATOM     19  C   UNL     1      -2.661  11.493  18.514  0.00  0.00    +0.000 A 
ATOM     20  C   UNL     1      -2.032  12.182  19.630  0.00  0.00    +0.000 A 
ATOM     21  C   UNL     1      -0.765  11.877  19.953  0.00  0.00    +0.000 A 
ATOM     22  N   UNL     1      -0.099  10.907  19.214  0.00  0.00    +0.000 N 
ATOM     23  C   UNL     1       1.184  10.441  19.345  0.00  0.00    +0.000 A 
ATOM     24  C   UNL     1       1.338   9.472  18.372  0.00  0.00    +0.000 A 
ATOM     25  N   UNL     1       0.181   9.357  17.630  0.00  0.00    +0.000 NA
ATOM     26  C   UNL     1      -0.670  10.221  18.148  0.00  0.00    +0.000 A 
ENDBRANCH  16  24
ENDBRANCH   1  16
TORSDOF 3
ENDMDL
MODEL 8
REMARK VINA RESULT:      -7.6      1.509      7.483
REMARK  Name = 
REMARK  4 active torsions:
REMARK  status: ('A' for Active; 'I' for Inactive)
REMARK    1  A    between atoms: C_1  and  C_2
REMARK    2  A    between atoms: C_8  and  C_9
REMARK    3  A    between atoms: C_9  and  N_10
REMARK    4  A    between atoms: C_17  and  C_18
REMARK                            x       y       z     vdW  Elec       q    Type
REMARK                         _______ _______ _______ _____ _____    ______ ____
ROOT
ATOM      1  N   UNL     1       5.835   4.262  15.999  0.00  0.00    +0.000 N 
ATOM      2  N   UNL     1       6.525   5.225  16.659  0.00  0.00    +0.000 NA
ATOM      3  N   UNL     1       7.397   5.747  15.798  0.00  0.00    +0.000 NA
ATOM      4  C   UNL     1       7.229   5.116  14.590  0.00  0.00    +0.000 A 
ATOM      5  C   UNL     1       7.848   5.223  13.342  0.00  0.00    +0.000 A 
ATOM      6  N   UNL     1       8.872   6.102  13.066  0.00  0.00    +0.000 N 
ATOM      7  N   UNL     1       7.419   4.412  12.343  0.00  0.00    +0.000 NA
ATOM      8  C   UNL     1       6.406   3.531  12.564  0.00  0.00    +0.000 A 
ATOM      9  N   UNL     1       5.747   3.385  13.733  0.00  0.00    +0.000 NA
ATOM     10  C   UNL     1       6.218   4.186  14.693  0.00  0.00    +0.000 A 
ATOM     11  H   UNL     1       9.249   6.693  13.792  0.00  0.00    +0.000 HD
ATOM     12  H   UNL     1       9.283   6.067  12.146  0.00  0.00    +0.000 HD
ENDROOT
BRANCH   8  13
ATOM     13  C   UNL     1       5.975   2.637  11.425  0.00  0.00    +0.000 C 
ATOM     14  C   UNL     1       6.978   1.784  10.687  0.00  0.00    +0.000 C 
ATOM     15  C   UNL     1       6.000   1.132  11.616  0.00  0.00    +0.000 C 
ENDBRANCH   8  13
BRANCH   1  16
ATOM     16  C   UNL     1       4.834   3.458  16.666  0.00  0.00    +0.000 C 
BRANCH  16  24
ATOM     17  C   UNL     1       2.647   8.487  17.713  0.00  0.00    +0.000 C 
ATOM     18  C   UNL     1       2.510   7.334  18.672  0.00  0.00    +0.000 A 
ATOM     19  C   UNL     1       1.850   7.498  19.845  0.00  0.00    +0.000 A 
ATOM     20  C   UNL     1       1.698   6.426  20.817  0.00  0.00    +0.000 A 
ATOM     21  C   UNL     1       2.235   5.225  20.552  0.00  0.00    +0.000 A 
ATOM     22  N   UNL     1       2.915   5.043  19.353  0.00  0.00    +0.000 N 
ATOM     23  C   UNL     1       3.550   3.927  18.874  0.00  0.00    +0.000 A 
ATOM     24  C   UNL     1       4.049   4.277  17.633  0.00  0.00    +0.000 A 
ATOM     25  N   UNL     1       3.753   5.596  17.358  0.00  0.00    +0.000 NA
ATOM     26  C   UNL     1       3.072   6.039  18.397  0.00  0.00    +0.000 A 
ENDBRANCH  16  24
ENDBRANCH   1  16
TORSDOF 3
ENDMDL
MODEL 9
REMARK VINA RESULT:      -7.5      2.071      7.163
REMARK  Name = 
REMARK  4 active torsions:
REMARK  status: ('A' for Active; 'I' for Inactive)
REMARK    1  A    between atoms: C_1  and  C_2
REMARK    2  A    between atoms: C_8  and  C_9
REMARK    3  A    between atoms: C_9  and  N_10
REMARK    4  A    between atoms: C_17  and  C_18
REMARK                            x       y       z     vdW  Elec       q    Type
REMARK                         _______ _______ _______ _____ _____    ______ ____
ROOT
ATOM      1  N   UNL     1       3.829   4.891  18.407  0.00  0.00    +0.000 N 
ATOM      2  N   UNL     1       3.102   3.923  17.797  0.00  0.00    +0.000 NA
ATOM      3  N   UNL     1       3.679   3.675  16.623  0.00  0.00    +0.000 NA
ATOM      4  C   UNL     1       4.785   4.482  16.516  0.00  0.00    +0.000 A 
ATOM      5  C   UNL     1       5.758   4.676  15.531  0.00  0.00    +0.000 A 
ATOM      6  N   UNL     1       5.782   3.997  14.333  0.00  0.00    +0.000 N 
ATOM      7  N   UNL     1       6.733   5.589  15.766  0.00  0.00    +0.000 NA
ATOM      8  C   UNL     1       6.756   6.282  16.937  0.00  0.00    +0.000 A 
ATOM      9  N   UNL     1       5.866   6.135  17.942  0.00  0.00    +0.000 NA
ATOM     10  C   UNL     1       4.911   5.244  17.657  0.00  0.00    +0.000 A 
ATOM     11  H   UNL     1       5.051   3.340  14.102  0.00  0.00    +0.000 HD
ATOM     12  H   UNL     1       6.499   4.246  13.670  0.00  0.00    +0.000 HD
ENDROOT
BRANCH   8  13
ATOM     13  C   UNL     1       7.853   7.300  17.144  0.00  0.00    +0.000 C 
ATOM     14  C   UNL     1       7.555   8.644  17.761  0.00  0.00    +0.000 C 
ATOM     15  C   UNL     1       8.305   7.621  18.556  0.00  0.00    +0.000 C 
ENDBRANCH   8  13
BRANCH   1  16
ATOM     16  C   UNL     1       3.441   5.432  19.692  0.00  0.00    +0.000 C 
BRANCH  16  24
ATOM     17  C   UNL     1      -0.028   9.052  22.148  0.00  0.00    +0.000 C 
ATOM     18  C   UNL     1       0.457   9.234  20.734  0.00  0.00    +0.000 A 
ATOM     19  C   UNL     1       0.041  10.298  20.003  0.00  0.00    +0.000 A 
ATOM     20  C   UNL     1       0.464  10.519  18.628  0.00  0.00    +0.000 A 
ATOM     21  C   UNL     1       1.293   9.636  18.051  0.00  0.00    +0.000 A 
ATOM     22  N   UNL     1       1.726   8.541  18.789  0.00  0.00    +0.000 N 
ATOM     23  C   UNL     1       2.552   7.512  18.416  0.00  0.00    +0.000 A 
ATOM     24  C   UNL     1       2.672   6.699  19.527  0.00  0.00    +0.000 A 
ATOM     25  N   UNL     1       1.910   7.197  20.564  0.00  0.00    +0.000 NA
ATOM     26  C   UNL     1       1.353   8.301  20.106  0.00  0.00    +0.000 A 
ENDBRANCH  16  24
ENDBRANCH   1  16
TORSDOF 3
ENDMDL
