MODEL 1
REMARK VINA RESULT:      -9.1      0.000      0.000
REMARK  Name = 
REMARK  8 active torsions:
REMARK  status: ('A' for Active; 'I' for Inactive)
REMARK    1  A    between atoms: C_1  and  C_2
REMARK    2  A    between atoms: C_4  and  C_5
REMARK    3  A    between atoms: C_7  and  N_8
REMARK    4  A    between atoms: C_12  and  O_13
REMARK    5  A    between atoms: O_13  and  C_14
REMARK    6  A    between atoms: C_14  and  C_15
REMARK    7  A    between atoms: C_16  and  C_17
REMARK    8  A    between atoms: C_20  and  C_21
REMARK                            x       y       z     vdW  Elec       q    Type
REMARK                         _______ _______ _______ _____ _____    ______ ____
ROOT
ATOM      1  N   UNL     1       2.164   7.674  19.285  0.00  0.00    +0.000 N 
ATOM      2  N   UNL     1       2.854   7.998  18.143  0.00  0.00    +0.000 NA
ATOM      3  C   UNL     1       3.531   6.893  17.831  0.00  0.00    +0.000 A 
ATOM      4  C   UNL     1       3.273   5.835  18.708  0.00  0.00    +0.000 A 
ATOM      5  C   UNL     1       3.654   4.506  18.835  0.00  0.00    +0.000 A 
ATOM      6  N   UNL     1       3.163   3.759  19.845  0.00  0.00    +0.000 NA
ATOM      7  C   UNL     1       2.314   4.363  20.700  0.00  0.00    +0.000 A 
ATOM      8  N   UNL     1       1.876   5.637  20.678  0.00  0.00    +0.000 NA
ATOM      9  C   UNL     1       2.392   6.344  19.648  0.00  0.00    +0.000 A 
ENDROOT
BRANCH   1  16
ATOM     10  C   UNL     1      -0.030   9.546  23.347  0.00  0.00    +0.000 C 
ATOM     11  C   UNL     1       0.251   9.605  21.874  0.00  0.00    +0.000 A 
ATOM     12  C   UNL     1      -0.246  10.654  21.091  0.00  0.00    +0.000 A 
ATOM     13  C   UNL     1       0.047  10.724  19.725  0.00  0.00    +0.000 A 
ATOM     14  C   UNL     1      -0.499  11.832  18.875  0.00  0.00    +0.000 C 
ATOM     15  C   UNL     1       0.861   9.737  19.149  0.00  0.00    +0.000 A 
ATOM     16  C   UNL     1       1.353   8.665  19.915  0.00  0.00    +0.000 A 
ATOM     17  C   UNL     1       1.037   8.605  21.278  0.00  0.00    +0.000 A 
ENDBRANCH   1  16
BRANCH   5  18
ATOM     18  O   UNL     1       4.577   3.984  17.959  0.00  0.00    +0.000 OA
BRANCH  18  19
ATOM     19  C   UNL     1       5.929   4.234  18.338  0.00  0.00    +0.000 C 
BRANCH  19  20
ATOM     20  C   UNL     1       6.618   4.966  17.236  0.00  0.00    +0.000 A 
ATOM     21  C   UNL     1       6.598   4.710  15.836  0.00  0.00    +0.000 A 
ATOM     22  C   UNL     1       5.904   3.645  15.075  0.00  0.00    +0.000 C 
ATOM     23  N   UNL     1       7.330   5.608  15.164  0.00  0.00    +0.000 NA
ATOM     24  O   UNL     1       7.827   6.477  16.113  0.00  0.00    +0.000 OA
ATOM     25  C   UNL     1       7.399   6.098  17.343  0.00  0.00    +0.000 A 
ATOM     26  C   UNL     1       7.830   6.945  18.471  0.00  0.00    +0.000 C 
ENDBRANCH  19  20
ENDBRANCH  18  19
ENDBRANCH   5  18
TORSDOF 4
ENDMDL
MODEL 2
REMARK VINA RESULT:      -9.1      0.078      1.693
REMARK  Name = 
REMARK  8 active torsions:
REMARK  status: ('A' for Active; 'I' for Inactive)
REMARK    1  A    between atoms: C_1  and  C_2
REMARK    2  A    between atoms: C_4  and  C_5
REMARK    3  A    between atoms: C_7  and  N_8
REMARK    4  A    between atoms: C_12  and  O_13
REMARK    5  A    between atoms: O_13  and  C_14
REMARK    6  A    between atoms: C_14  and  C_15
REMARK    7  A    between atoms: C_16  and  C_17
REMARK    8  A    between atoms: C_20  and  C_21
REMARK                            x       y       z     vdW  Elec       q    Type
REMARK                         _______ _______ _______ _____ _____    ______ ____
ROOT
ATOM      1  N   UNL     1       2.137   7.721  19.222  0.00  0.00    +0.000 N 
ATOM      2  N   UNL     1       2.840   8.026  18.083  0.00  0.00    +0.000 NA
ATOM      3  C   UNL     1       3.527   6.919  17.803  0.00  0.00    +0.000 A 
ATOM      4  C   UNL     1       3.265   5.878  18.699  0.00  0.00    +0.000 A 
ATOM      5  C   UNL     1       3.652   4.555  18.858  0.00  0.00    +0.000 A 
ATOM      6  N   UNL     1       3.152   3.826  19.877  0.00  0.00    +0.000 NA
ATOM      7  C   UNL     1       2.289   4.442  20.708  0.00  0.00    +0.000 A 
ATOM      8  N   UNL     1       1.843   5.712  20.654  0.00  0.00    +0.000 NA
ATOM      9  C   UNL     1       2.368   6.400  19.616  0.00  0.00    +0.000 A 
ENDROOT
BRANCH   1  16
ATOM     10  C   UNL     1      -0.674  11.819  18.858  0.00  0.00    +0.000 C 
ATOM     11  C   UNL     1      -0.059  10.731  19.689  0.00  0.00    +0.000 A 
ATOM     12  C   UNL     1      -0.310  10.649  21.064  0.00  0.00    +0.000 A 
ATOM     13  C   UNL     1       0.237   9.613  21.827  0.00  0.00    +0.000 A 
ATOM     14  C   UNL     1      -0.011   9.531  23.305  0.00  0.00    +0.000 C 
ATOM     15  C   UNL     1       1.031   8.644  21.196  0.00  0.00    +0.000 A 
ATOM     16  C   UNL     1       1.311   8.720  19.821  0.00  0.00    +0.000 A 
ATOM     17  C   UNL     1       0.765   9.772  19.075  0.00  0.00    +0.000 A 
ENDBRANCH   1  16
BRANCH   5  18
ATOM     18  O   UNL     1       4.590   4.020  18.005  0.00  0.00    +0.000 OA
BRANCH  18  19
ATOM     19  C   UNL     1       5.935   4.301  18.387  0.00  0.00    +0.000 C 
BRANCH  19  20
ATOM     20  C   UNL     1       6.625   5.003  17.266  0.00  0.00    +0.000 A 
ATOM     21  C   UNL     1       6.594   4.719  15.872  0.00  0.00    +0.000 A 
ATOM     22  C   UNL     1       5.884   3.646  15.137  0.00  0.00    +0.000 C 
ATOM     23  N   UNL     1       7.331   5.595  15.178  0.00  0.00    +0.000 NA
ATOM     24  O   UNL     1       7.843   6.478  16.106  0.00  0.00    +0.000 OA
ATOM     25  C   UNL     1       7.418   6.129  17.347  0.00  0.00    +0.000 A 
ATOM     26  C   UNL     1       7.864   6.994  18.455  0.00  0.00    +0.000 C 
ENDBRANCH  19  20
ENDBRANCH  18  19
ENDBRANCH   5  18
TORSDOF 4
ENDMDL
MODEL 3
REMARK VINA RESULT:      -8.9      0.404      1.593
REMARK  Name = 
REMARK  8 active torsions:
REMARK  status: ('A' for Active; 'I' for Inactive)
REMARK    1  A    between atoms: C_1  and  C_2
REMARK    2  A    between atoms: C_4  and  C_5
REMARK    3  A    between atoms: C_7  and  N_8
REMARK    4  A    between atoms: C_12  and  O_13
REMARK    5  A    between atoms: O_13  and  C_14
REMARK    6  A    between atoms: C_14  and  C_15
REMARK    7  A    between atoms: C_16  and  C_17
REMARK    8  A    between atoms: C_20  and  C_21
REMARK                            x       y       z     vdW  Elec       q    Type
REMARK                         _______ _______ _______ _____ _____    ______ ____
ROOT
ATOM      1  N   UNL     1       2.157   7.637  19.265  0.00  0.00    +0.000 N 
ATOM      2  N   UNL     1       2.822   7.940  18.103  0.00  0.00    +0.000 NA
ATOM      3  C   UNL     1       3.469   6.821  17.781  0.00  0.00    +0.000 A 
ATOM      4  C   UNL     1       3.215   5.774  18.673  0.00  0.00    +0.000 A 
ATOM      5  C   UNL     1       3.575   4.439  18.798  0.00  0.00    +0.000 A 
ATOM      6  N   UNL     1       3.097   3.708  19.827  0.00  0.00    +0.000 NA
ATOM      7  C   UNL     1       2.283   4.334  20.700  0.00  0.00    +0.000 A 
ATOM      8  N   UNL     1       1.869   5.616  20.680  0.00  0.00    +0.000 NA
ATOM      9  C   UNL     1       2.370   6.305  19.631  0.00  0.00    +0.000 A 
ENDROOT
BRANCH   1  16
ATOM     10  C   UNL     1      -0.001   9.509  23.346  0.00  0.00    +0.000 C 
ATOM     11  C   UNL     1       0.298   9.589  21.878  0.00  0.00    +0.000 A 
ATOM     12  C   UNL     1      -0.145  10.676  21.114  0.00  0.00    +0.000 A 
ATOM     13  C   UNL     1       0.167  10.764  19.754  0.00  0.00    +0.000 A 
ATOM     14  C   UNL     1      -0.323  11.914  18.924  0.00  0.00    +0.000 C 
ATOM     15  C   UNL     1       0.944   9.757  19.163  0.00  0.00    +0.000 A 
ATOM     16  C   UNL     1       1.381   8.648  19.909  0.00  0.00    +0.000 A 
ATOM     17  C   UNL     1       1.048   8.571  21.268  0.00  0.00    +0.000 A 
ENDBRANCH   1  16
BRANCH   5  18
ATOM     18  O   UNL     1       4.464   3.894  17.902  0.00  0.00    +0.000 OA
BRANCH  18  19
ATOM     19  C   UNL     1       5.830   4.058  18.280  0.00  0.00    +0.000 C 
BRANCH  19  20
ATOM     20  C   UNL     1       6.519   4.903  17.262  0.00  0.00    +0.000 A 
ATOM     21  C   UNL     1       7.357   6.037  17.452  0.00  0.00    +0.000 A 
ATOM     22  C   UNL     1       7.774   6.710  18.705  0.00  0.00    +0.000 C 
ATOM     23  N   UNL     1       7.807   6.514  16.285  0.00  0.00    +0.000 NA
ATOM     24  O   UNL     1       7.285   5.689  15.312  0.00  0.00    +0.000 OA
ATOM     25  C   UNL     1       6.524   4.728  15.894  0.00  0.00    +0.000 A 
ATOM     26  C   UNL     1       5.908   3.745  14.982  0.00  0.00    +0.000 C 
ENDBRANCH  19  20
ENDBRANCH  18  19
ENDBRANCH   5  18
TORSDOF 4
ENDMDL
MODEL 4
REMARK VINA RESULT:      -8.9      0.399      2.323
REMARK  Name = 
REMARK  8 active torsions:
REMARK  status: ('A' for Active; 'I' for Inactive)
REMARK    1  A    between atoms: C_1  and  C_2
REMARK    2  A    between atoms: C_4  and  C_5
REMARK    3  A    between atoms: C_7  and  N_8
REMARK    4  A    between atoms: C_12  and  O_13
REMARK    5  A    between atoms: O_13  and  C_14
REMARK    6  A    between atoms: C_14  and  C_15
REMARK    7  A    between atoms: C_16  and  C_17
REMARK    8  A    between atoms: C_20  and  C_21
REMARK                            x       y       z     vdW  Elec       q    Type
REMARK                         _______ _______ _______ _____ _____    ______ ____
ROOT
ATOM      1  N   UNL     1       2.149   7.678  19.262  0.00  0.00    +0.000 N 
ATOM      2  N   UNL     1       2.834   7.964  18.108  0.00  0.00    +0.000 NA
ATOM      3  C   UNL     1       3.496   6.844  17.820  0.00  0.00    +0.000 A 
ATOM      4  C   UNL     1       3.231   5.811  18.726  0.00  0.00    +0.000 A 
ATOM      5  C   UNL     1       3.597   4.482  18.884  0.00  0.00    +0.000 A 
ATOM      6  N   UNL     1       3.104   3.767  19.916  0.00  0.00    +0.000 NA
ATOM      7  C   UNL     1       2.269   4.403  20.761  0.00  0.00    +0.000 A 
ATOM      8  N   UNL     1       1.846   5.681  20.709  0.00  0.00    +0.000 NA
ATOM      9  C   UNL     1       2.363   6.355  19.658  0.00  0.00    +0.000 A 
ENDROOT
BRANCH   1  16
ATOM     10  C   UNL     1      -0.541  11.860  18.944  0.00  0.00    +0.000 C 
ATOM     11  C   UNL     1       0.044  10.746  19.763  0.00  0.00    +0.000 A 
ATOM     12  C   UNL     1      -0.208  10.658  21.137  0.00  0.00    +0.000 A 
ATOM     13  C   UNL     1       0.310   9.600  21.890  0.00  0.00    +0.000 A 
ATOM     14  C   UNL     1       0.062   9.510  23.366  0.00  0.00    +0.000 C 
ATOM     15  C   UNL     1       1.074   8.614  21.248  0.00  0.00    +0.000 A 
ATOM     16  C   UNL     1       1.354   8.695  19.872  0.00  0.00    +0.000 A 
ATOM     17  C   UNL     1       0.837   9.770  19.138  0.00  0.00    +0.000 A 
ENDBRANCH   1  16
BRANCH   5  18
ATOM     18  O   UNL     1       4.508   3.926  18.016  0.00  0.00    +0.000 OA
BRANCH  18  19
ATOM     19  C   UNL     1       5.866   4.146  18.394  0.00  0.00    +0.000 C 
BRANCH  19  20
ATOM     20  C   UNL     1       6.540   4.959  17.341  0.00  0.00    +0.000 A 
ATOM     21  C   UNL     1       7.391   6.090  17.486  0.00  0.00    +0.000 A 
ATOM     22  C   UNL     1       7.840   6.790  18.712  0.00  0.00    +0.000 C 
ATOM     23  N   UNL     1       7.820   6.534  16.298  0.00  0.00    +0.000 NA
ATOM     24  O   UNL     1       7.271   5.689  15.357  0.00  0.00    +0.000 OA
ATOM     25  C   UNL     1       6.514   4.750  15.978  0.00  0.00    +0.000 A 
ATOM     26  C   UNL     1       5.871   3.750  15.104  0.00  0.00    +0.000 C 
ENDBRANCH  19  20
ENDBRANCH  18  19
ENDBRANCH   5  18
TORSDOF 4
ENDMDL
MODEL 5
REMARK VINA RESULT:      -8.6      0.920      1.900
REMARK  Name = 
REMARK  8 active torsions:
REMARK  status: ('A' for Active; 'I' for Inactive)
REMARK    1  A    between atoms: C_1  and  C_2
REMARK    2  A    between atoms: C_4  and  C_5
REMARK    3  A    between atoms: C_7  and  N_8
REMARK    4  A    between atoms: C_12  and  O_13
REMARK    5  A    between atoms: O_13  and  C_14
REMARK    6  A    between atoms: C_14  and  C_15
REMARK    7  A    between atoms: C_16  and  C_17
REMARK    8  A    between atoms: C_20  and  C_21
REMARK                            x       y       z     vdW  Elec       q    Type
REMARK                         _______ _______ _______ _____ _____    ______ ____
ROOT
ATOM      1  N   UNL     1       2.335   7.624  18.998  0.00  0.00    +0.000 N 
ATOM      2  N   UNL     1       3.142   8.038  17.968  0.00  0.00    +0.000 NA
ATOM      3  C   UNL     1       3.899   6.979  17.683  0.00  0.00    +0.000 A 
ATOM      4  C   UNL     1       3.584   5.863  18.465  0.00  0.00    +0.000 A 
ATOM      5  C   UNL     1       4.004   4.544  18.567  0.00  0.00    +0.000 A 
ATOM      6  N   UNL     1       3.428   3.722  19.469  0.00  0.00    +0.000 NA
ATOM      7  C   UNL     1       2.458   4.244  20.244  0.00  0.00    +0.000 A 
ATOM      8  N   UNL     1       1.970   5.501  20.236  0.00  0.00    +0.000 NA
ATOM      9  C   UNL     1       2.575   6.284  19.315  0.00  0.00    +0.000 A 
ENDROOT
BRANCH   1  16
ATOM     10  C   UNL     1      -0.032   9.485  22.967  0.00  0.00    +0.000 C 
ATOM     11  C   UNL     1       0.221   9.475  21.487  0.00  0.00    +0.000 A 
ATOM     12  C   UNL     1      -0.414  10.395  20.645  0.00  0.00    +0.000 A 
ATOM     13  C   UNL     1      -0.148  10.405  19.272  0.00  0.00    +0.000 A 
ATOM     14  C   UNL     1      -0.841  11.373  18.360  0.00  0.00    +0.000 C 
ATOM     15  C   UNL     1       0.778   9.490  18.748  0.00  0.00    +0.000 A 
ATOM     16  C   UNL     1       1.411   8.546  19.575  0.00  0.00    +0.000 A 
ATOM     17  C   UNL     1       1.122   8.543  20.946  0.00  0.00    +0.000 A 
ENDBRANCH   1  16
BRANCH   5  18
ATOM     18  O   UNL     1       5.048   4.107  17.785  0.00  0.00    +0.000 OA
BRANCH  18  19
ATOM     19  C   UNL     1       4.705   3.954  16.408  0.00  0.00    +0.000 C 
BRANCH  19  20
ATOM     20  C   UNL     1       5.801   4.515  15.567  0.00  0.00    +0.000 A 
ATOM     21  C   UNL     1       6.918   5.307  15.955  0.00  0.00    +0.000 A 
ATOM     22  C   UNL     1       7.307   5.809  17.294  0.00  0.00    +0.000 C 
ATOM     23  N   UNL     1       7.698   5.600  14.907  0.00  0.00    +0.000 NA
ATOM     24  O   UNL     1       7.113   4.990  13.818  0.00  0.00    +0.000 OA
ATOM     25  C   UNL     1       5.988   4.341  14.211  0.00  0.00    +0.000 A 
ATOM     26  C   UNL     1       5.254   3.614  13.159  0.00  0.00    +0.000 C 
ENDBRANCH  19  20
ENDBRANCH  18  19
ENDBRANCH   5  18
TORSDOF 4
ENDMDL
MODEL 6
REMARK VINA RESULT:      -8.1      1.441      1.754
REMARK  Name = 
REMARK  8 active torsions:
REMARK  status: ('A' for Active; 'I' for Inactive)
REMARK    1  A    between atoms: C_1  and  C_2
REMARK    2  A    between atoms: C_4  and  C_5
REMARK    3  A    between atoms: C_7  and  N_8
REMARK    4  A    between atoms: C_12  and  O_13
REMARK    5  A    between atoms: O_13  and  C_14
REMARK    6  A    between atoms: C_14  and  C_15
REMARK    7  A    between atoms: C_16  and  C_17
REMARK    8  A    between atoms: C_20  and  C_21
REMARK                            x       y       z     vdW  Elec       q    Type
REMARK                         _______ _______ _______ _____ _____    ______ ____
ROOT
ATOM      1  N   UNL     1       1.561   8.920  18.672  0.00  0.00    +0.000 N 
ATOM      2  N   UNL     1       2.275   8.989  17.502  0.00  0.00    +0.000 NA
ATOM      3  C   UNL     1       3.017   7.882  17.492  0.00  0.00    +0.000 A 
ATOM      4  C   UNL     1       2.780   7.062  18.600  0.00  0.00    +0.000 A 
ATOM      5  C   UNL     1       3.222   5.831  19.064  0.00  0.00    +0.000 A 
ATOM      6  N   UNL     1       2.732   5.332  20.217  0.00  0.00    +0.000 NA
ATOM      7  C   UNL     1       1.824   6.080  20.875  0.00  0.00    +0.000 A 
ATOM      8  N   UNL     1       1.324   7.281  20.524  0.00  0.00    +0.000 NA
ATOM      9  C   UNL     1       1.842   7.737  19.362  0.00  0.00    +0.000 A 
ENDROOT
BRANCH   1  16
ATOM     10  C   UNL     1       0.530  13.021  21.307  0.00  0.00    +0.000 C 
ATOM     11  C   UNL     1       0.129  11.988  20.295  0.00  0.00    +0.000 A 
ATOM     12  C   UNL     1      -1.104  12.069  19.637  0.00  0.00    +0.000 A 
ATOM     13  C   UNL     1      -1.459  11.124  18.669  0.00  0.00    +0.000 A 
ATOM     14  C   UNL     1      -2.787  11.192  17.976  0.00  0.00    +0.000 C 
ATOM     15  C   UNL     1      -0.556  10.098  18.352  0.00  0.00    +0.000 A 
ATOM     16  C   UNL     1       0.679   9.989  19.015  0.00  0.00    +0.000 A 
ATOM     17  C   UNL     1       1.011  10.937  19.991  0.00  0.00    +0.000 A 
ENDBRANCH   1  16
BRANCH   5  18
ATOM     18  O   UNL     1       4.201   5.161  18.368  0.00  0.00    +0.000 OA
BRANCH  18  19
ATOM     19  C   UNL     1       5.526   5.524  18.753  0.00  0.00    +0.000 C 
BRANCH  19  20
ATOM     20  C   UNL     1       6.367   5.667  17.530  0.00  0.00    +0.000 A 
ATOM     21  C   UNL     1       6.361   4.890  16.338  0.00  0.00    +0.000 A 
ATOM     22  C   UNL     1       5.532   3.717  15.973  0.00  0.00    +0.000 C 
ATOM     23  N   UNL     1       7.256   5.345  15.452  0.00  0.00    +0.000 NA
ATOM     24  O   UNL     1       7.851   6.439  16.045  0.00  0.00    +0.000 OA
ATOM     25  C   UNL     1       7.319   6.633  17.278  0.00  0.00    +0.000 A 
ATOM     26  C   UNL     1       7.838   7.786  18.037  0.00  0.00    +0.000 C 
ENDBRANCH  19  20
ENDBRANCH  18  19
ENDBRANCH   5  18
TORSDOF 4
ENDMDL
MODEL 7
REMARK VINA RESULT:      -7.9      3.474      7.990
REMARK  Name = 
REMARK  8 active torsions:
REMARK  status: ('A' for Active; 'I' for Inactive)
REMARK    1  A    between atoms: C_1  and  C_2
REMARK    2  A    between atoms: C_4  and  C_5
REMARK    3  A    between atoms: C_7  and  N_8
REMARK    4  A    between atoms: C_12  and  O_13
REMARK    5  A    between atoms: O_13  and  C_14
REMARK    6  A    between atoms: C_14  and  C_15
REMARK    7  A    between atoms: C_16  and  C_17
REMARK    8  A    between atoms: C_20  and  C_21
REMARK                            x       y       z     vdW  Elec       q    Type
REMARK                         _______ _______ _______ _____ _____    ______ ____
ROOT
ATOM      1  N   UNL     1       5.416   4.439  16.005  0.00  0.00    +0.000 N 
ATOM      2  N   UNL     1       5.384   3.302  16.773  0.00  0.00    +0.000 NA
ATOM      3  C   UNL     1       4.825   3.683  17.921  0.00  0.00    +0.000 A 
ATOM      4  C   UNL     1       4.446   5.029  17.917  0.00  0.00    +0.000 A 
ATOM      5  C   UNL     1       3.816   5.908  18.788  0.00  0.00    +0.000 A 
ATOM      6  N   UNL     1       3.596   7.184  18.411  0.00  0.00    +0.000 NA
ATOM      7  C   UNL     1       4.018   7.545  17.183  0.00  0.00    +0.000 A 
ATOM      8  N   UNL     1       4.636   6.785  16.259  0.00  0.00    +0.000 NA
ATOM      9  C   UNL     1       4.831   5.515  16.680  0.00  0.00    +0.000 A 
ENDROOT
BRANCH   1  16
ATOM     10  C   UNL     1       8.840   5.950  12.717  0.00  0.00    +0.000 C 
ATOM     11  C   UNL     1       7.645   5.110  13.060  0.00  0.00    +0.000 A 
ATOM     12  C   UNL     1       7.096   4.227  12.122  0.00  0.00    +0.000 A 
ATOM     13  C   UNL     1       6.004   3.420  12.457  0.00  0.00    +0.000 A 
ATOM     14  C   UNL     1       5.397   2.488  11.450  0.00  0.00    +0.000 C 
ATOM     15  C   UNL     1       5.472   3.493  13.753  0.00  0.00    +0.000 A 
ATOM     16  C   UNL     1       5.997   4.387  14.703  0.00  0.00    +0.000 A 
ATOM     17  C   UNL     1       7.083   5.196  14.344  0.00  0.00    +0.000 A 
ENDBRANCH   1  16
BRANCH   5  18
ATOM     18  O   UNL     1       3.477   5.479  20.049  0.00  0.00    +0.000 OA
BRANCH  18  19
ATOM     19  C   UNL     1       2.070   5.379  20.260  0.00  0.00    +0.000 C 
BRANCH  19  20
ATOM     20  C   UNL     1       1.601   4.039  19.802  0.00  0.00    +0.000 A 
ATOM     21  C   UNL     1       1.192   3.624  18.504  0.00  0.00    +0.000 A 
ATOM     22  C   UNL     1       1.101   4.399  17.244  0.00  0.00    +0.000 C 
ATOM     23  N   UNL     1       0.859   2.328  18.487  0.00  0.00    +0.000 NA
ATOM     24  O   UNL     1       1.063   1.868  19.771  0.00  0.00    +0.000 OA
ATOM     25  C   UNL     1       1.509   2.884  20.552  0.00  0.00    +0.000 A 
ATOM     26  C   UNL     1       1.797   2.547  21.958  0.00  0.00    +0.000 C 
ENDBRANCH  19  20
ENDBRANCH  18  19
ENDBRANCH   5  18
TORSDOF 4
ENDMDL
MODEL 8
REMARK VINA RESULT:      -7.9      1.269      2.149
REMARK  Name = 
REMARK  8 active torsions:
REMARK  status: ('A' for Active; 'I' for Inactive)
REMARK    1  A    between atoms: C_1  and  C_2
REMARK    2  A    between atoms: C_4  and  C_5
REMARK    3  A    between atoms: C_7  and  N_8
REMARK    4  A    between atoms: C_12  and  O_13
REMARK    5  A    between atoms: O_13  and  C_14
REMARK    6  A    between atoms: C_14  and  C_15
REMARK    7  A    between atoms: C_16  and  C_17
REMARK    8  A    between atoms: C_20  and  C_21
REMARK                            x       y       z     vdW  Elec       q    Type
REMARK                         _______ _______ _______ _____ _____    ______ ____
ROOT
ATOM      1  N   UNL     1       1.912   8.401  18.593  0.00  0.00    +0.000 N 
ATOM      2  N   UNL     1       2.786   8.610  17.555  0.00  0.00    +0.000 NA
ATOM      3  C   UNL     1       3.608   7.561  17.588  0.00  0.00    +0.000 A 
ATOM      4  C   UNL     1       3.275   6.644  18.590  0.00  0.00    +0.000 A 
ATOM      5  C   UNL     1       3.740   5.414  19.035  0.00  0.00    +0.000 A 
ATOM      6  N   UNL     1       3.124   4.795  20.063  0.00  0.00    +0.000 NA
ATOM      7  C   UNL     1       2.070   5.424  20.618  0.00  0.00    +0.000 A 
ATOM      8  N   UNL     1       1.533   6.611  20.274  0.00  0.00    +0.000 NA
ATOM      9  C   UNL     1       2.181   7.191  19.239  0.00  0.00    +0.000 A 
ENDROOT
BRANCH   1  16
ATOM     10  C   UNL     1      -0.097  11.854  21.570  0.00  0.00    +0.000 C 
ATOM     11  C   UNL     1      -0.118  11.060  20.296  0.00  0.00    +0.000 A 
ATOM     12  C   UNL     1      -1.105  11.283  19.329  0.00  0.00    +0.000 A 
ATOM     13  C   UNL     1      -1.100  10.566  18.128  0.00  0.00    +0.000 A 
ATOM     14  C   UNL     1      -2.166  10.784  17.096  0.00  0.00    +0.000 C 
ATOM     15  C   UNL     1      -0.083   9.628  17.896  0.00  0.00    +0.000 A 
ATOM     16  C   UNL     1       0.905   9.376  18.864  0.00  0.00    +0.000 A 
ATOM     17  C   UNL     1       0.876  10.095  20.066  0.00  0.00    +0.000 A 
ENDBRANCH   1  16
BRANCH   5  18
ATOM     18  O   UNL     1       4.863   4.870  18.457  0.00  0.00    +0.000 OA
BRANCH  18  19
ATOM     19  C   UNL     1       4.677   4.486  17.096  0.00  0.00    +0.000 C 
BRANCH  19  20
ATOM     20  C   UNL     1       5.830   4.976  16.288  0.00  0.00    +0.000 A 
ATOM     21  C   UNL     1       6.915   5.809  16.682  0.00  0.00    +0.000 A 
ATOM     22  C   UNL     1       7.205   6.435  17.994  0.00  0.00    +0.000 C 
ATOM     23  N   UNL     1       7.768   6.012  15.670  0.00  0.00    +0.000 NA
ATOM     24  O   UNL     1       7.265   5.300  14.602  0.00  0.00    +0.000 OA
ATOM     25  C   UNL     1       6.116   4.680  14.971  0.00  0.00    +0.000 A 
ATOM     26  C   UNL     1       5.460   3.855  13.940  0.00  0.00    +0.000 C 
ENDBRANCH  19  20
ENDBRANCH  18  19
ENDBRANCH   5  18
TORSDOF 4
ENDMDL
MODEL 9
REMARK VINA RESULT:      -7.9      1.399      1.669
REMARK  Name = 
REMARK  8 active torsions:
REMARK  status: ('A' for Active; 'I' for Inactive)
REMARK    1  A    between atoms: C_1  and  C_2
REMARK    2  A    between atoms: C_4  and  C_5
REMARK    3  A    between atoms: C_7  and  N_8
REMARK    4  A    between atoms: C_12  and  O_13
REMARK    5  A    between atoms: O_13  and  C_14
REMARK    6  A    between atoms: C_14  and  C_15
REMARK    7  A    between atoms: C_16  and  C_17
REMARK    8  A    between atoms: C_20  and  C_21
REMARK                            x       y       z     vdW  Elec       q    Type
REMARK                         _______ _______ _______ _____ _____    ______ ____
ROOT
ATOM      1  N   UNL     1       1.442   9.190  19.178  0.00  0.00    +0.000 N 
ATOM      2  N   UNL     1       1.935   9.490  17.933  0.00  0.00    +0.000 NA
ATOM      3  C   UNL     1       2.634   8.414  17.575  0.00  0.00    +0.000 A 
ATOM      4  C   UNL     1       2.580   7.392  18.529  0.00  0.00    +0.000 A 
ATOM      5  C   UNL     1       3.066   6.099  18.660  0.00  0.00    +0.000 A 
ATOM      6  N   UNL     1       2.779   5.381  19.765  0.00  0.00    +0.000 NA
ATOM      7  C   UNL     1       2.025   5.979  20.708  0.00  0.00    +0.000 A 
ATOM      8  N   UNL     1       1.501   7.220  20.692  0.00  0.00    +0.000 NA
ATOM      9  C   UNL     1       1.812   7.898  19.565  0.00  0.00    +0.000 A 
ENDROOT
BRANCH   1  16
ATOM     10  C   UNL     1      -1.117  10.628  23.203  0.00  0.00    +0.000 C 
ATOM     11  C   UNL     1      -0.608  10.899  21.817  0.00  0.00    +0.000 A 
ATOM     12  C   UNL     1      -0.854  12.126  21.191  0.00  0.00    +0.000 A 
ATOM     13  C   UNL     1      -0.348  12.388  19.914  0.00  0.00    +0.000 A 
ATOM     14  C   UNL     1      -0.625  13.693  19.227  0.00  0.00    +0.000 C 
ATOM     15  C   UNL     1       0.424  11.409  19.270  0.00  0.00    +0.000 A 
ATOM     16  C   UNL     1       0.664  10.163  19.875  0.00  0.00    +0.000 A 
ATOM     17  C   UNL     1       0.139   9.915  21.149  0.00  0.00    +0.000 A 
ENDBRANCH   1  16
BRANCH   5  18
ATOM     18  O   UNL     1       3.886   5.586  17.681  0.00  0.00    +0.000 OA
BRANCH  18  19
ATOM     19  C   UNL     1       5.025   6.400  17.406  0.00  0.00    +0.000 C 
BRANCH  19  20
ATOM     20  C   UNL     1       6.204   5.521  17.161  0.00  0.00    +0.000 A 
ATOM     21  C   UNL     1       6.562   4.801  15.986  0.00  0.00    +0.000 A 
ATOM     22  C   UNL     1       5.866   4.708  14.681  0.00  0.00    +0.000 C 
ATOM     23  N   UNL     1       7.713   4.138  16.150  0.00  0.00    +0.000 NA
ATOM     24  O   UNL     1       8.137   4.426  17.430  0.00  0.00    +0.000 OA
ATOM     25  C   UNL     1       7.243   5.253  18.029  0.00  0.00    +0.000 A 
ATOM     26  C   UNL     1       7.565   5.675  19.405  0.00  0.00    +0.000 C 
ENDBRANCH  19  20
ENDBRANCH  18  19
ENDBRANCH   5  18
TORSDOF 4
ENDMDL
