MODEL 1
REMARK VINA RESULT:      -6.3      0.000      0.000
REMARK  Name = 
REMARK  5 active torsions:
REMARK  status: ('A' for Active; 'I' for Inactive)
REMARK    1  A    between atoms: C_7  and  S_8
REMARK    2  A    between atoms: S_8  and  C_9
REMARK    3  A    between atoms: C_9  and  C_10
REMARK    4  A    between atoms: C_10  and  C_11
REMARK    5  A    between atoms: C_11  and  N_12
REMARK                            x       y       z     vdW  Elec       q    Type
REMARK                         _______ _______ _______ _____ _____    ______ ____
ROOT
ATOM      1  C   UNL     1       4.077   3.446  17.592  0.00  0.00    +0.000 C 
ENDROOT
BRANCH   1   2
ATOM      2  S   UNL     1       2.314   3.625  18.041  0.00  0.00    +0.000 S 
BRANCH   2   9
ATOM      3 CL   UNL     1       2.386   9.117  17.963  0.00  0.00    +0.000 Cl
ATOM      4  C   UNL     1       2.207   7.644  18.839  0.00  0.00    +0.000 A 
ATOM      5  C   UNL     1       1.876   7.690  20.189  0.00  0.00    +0.000 A 
ATOM      6  C   UNL     1       1.715   6.502  20.894  0.00  0.00    +0.000 A 
ATOM      7  C   UNL     1       1.889   5.271  20.252  0.00  0.00    +0.000 A 
ATOM      8 CL   UNL     1       1.665   3.854  21.225  0.00  0.00    +0.000 Cl
ATOM      9  C   UNL     1       2.224   5.210  18.881  0.00  0.00    +0.000 A 
ATOM     10  C   UNL     1       2.377   6.420  18.183  0.00  0.00    +0.000 A 
ENDBRANCH   2   9
ENDBRANCH   1   2
BRANCH   1  11
ATOM     11  C   UNL     1       4.955   3.397  18.853  0.00  0.00    +0.000 C 
BRANCH  11  12
ATOM     12  C   UNL     1       5.649   4.728  19.212  0.00  0.00    +0.000 C 
BRANCH  12  13
ATOM     13  N   UNL     1       7.015   4.801  18.689  0.00  0.00    +0.000 NA
ATOM     14  C   UNL     1       7.153   4.403  17.274  0.00  0.00    +0.000 C 
ATOM     15  C   UNL     1       6.979   5.517  16.216  0.00  0.00    +0.000 C 
ATOM     16  N   UNL     1       7.718   6.746  16.526  0.00  0.00    +0.000 NA
ATOM     17  C   UNL     1       7.358   7.195  17.876  0.00  0.00    +0.000 C 
ATOM     18  C   UNL     1       7.654   6.111  18.936  0.00  0.00    +0.000 C 
ATOM     19  H   UNL     1       7.488   7.468  15.847  0.00  0.00    +0.000 HD
ENDBRANCH  12  13
ENDBRANCH  11  12
ENDBRANCH   1  11
TORSDOF 5
ENDMDL
MODEL 2
REMARK VINA RESULT:      -6.1      1.007      1.275
REMARK  Name = 
REMARK  5 active torsions:
REMARK  status: ('A' for Active; 'I' for Inactive)
REMARK    1  A    between atoms: C_7  and  S_8
REMARK    2  A    between atoms: S_8  and  C_9
REMARK    3  A    between atoms: C_9  and  C_10
REMARK    4  A    between atoms: C_10  and  C_11
REMARK    5  A    between atoms: C_11  and  N_12
REMARK                            x       y       z     vdW  Elec       q    Type
REMARK                         _______ _______ _______ _____ _____    ______ ____
ROOT
ATOM      1  C   UNL     1       3.361   2.202  18.199  0.00  0.00    +0.000 C 
ENDROOT
BRANCH   1   2
ATOM      2  S   UNL     1       1.698   2.961  18.168  0.00  0.00    +0.000 S 
BRANCH   2   9
ATOM      3 CL   UNL     1       2.598   8.356  17.664  0.00  0.00    +0.000 Cl
ATOM      4  C   UNL     1       2.285   6.987  18.662  0.00  0.00    +0.000 A 
ATOM      5  C   UNL     1       2.101   7.168  20.029  0.00  0.00    +0.000 A 
ATOM      6  C   UNL     1       1.832   6.067  20.835  0.00  0.00    +0.000 A 
ATOM      7  C   UNL     1       1.751   4.787  20.276  0.00  0.00    +0.000 A 
ATOM      8 CL   UNL     1       1.412   3.486  21.371  0.00  0.00    +0.000 Cl
ATOM      9  C   UNL     1       1.935   4.589  18.889  0.00  0.00    +0.000 A 
ATOM     10  C   UNL     1       2.200   5.713  18.090  0.00  0.00    +0.000 A 
ENDBRANCH   2   9
ENDBRANCH   1   2
BRANCH   1  11
ATOM     11  C   UNL     1       4.315   2.950  17.254  0.00  0.00    +0.000 C 
BRANCH  11  12
ATOM     12  C   UNL     1       5.329   3.878  17.958  0.00  0.00    +0.000 C 
BRANCH  12  13
ATOM     13  N   UNL     1       6.294   4.458  17.022  0.00  0.00    +0.000 NA
ATOM     14  C   UNL     1       5.774   5.581  16.219  0.00  0.00    +0.000 C 
ATOM     15  C   UNL     1       5.921   6.997  16.822  0.00  0.00    +0.000 C 
ATOM     16  N   UNL     1       7.256   7.270  17.366  0.00  0.00    +0.000 NA
ATOM     17  C   UNL     1       7.609   6.215  18.323  0.00  0.00    +0.000 C 
ATOM     18  C   UNL     1       7.575   4.816  17.668  0.00  0.00    +0.000 C 
ATOM     19  H   UNL     1       7.260   8.176  17.831  0.00  0.00    +0.000 HD
ENDBRANCH  12  13
ENDBRANCH  11  12
ENDBRANCH   1  11
TORSDOF 5
ENDMDL
MODEL 3
REMARK VINA RESULT:      -6.1      3.713      6.237
REMARK  Name = 
REMARK  5 active torsions:
REMARK  status: ('A' for Active; 'I' for Inactive)
REMARK    1  A    between atoms: C_7  and  S_8
REMARK    2  A    between atoms: S_8  and  C_9
REMARK    3  A    between atoms: C_9  and  C_10
REMARK    4  A    between atoms: C_10  and  C_11
REMARK    5  A    between atoms: C_11  and  N_12
REMARK                            x       y       z     vdW  Elec       q    Type
REMARK                         _______ _______ _______ _____ _____    ______ ____
ROOT
ATOM      1  C   UNL     1       3.845   2.382  18.142  0.00  0.00    +0.000 C 
ENDROOT
BRANCH   1   2
ATOM      2  S   UNL     1       4.607   4.033  18.328  0.00  0.00    +0.000 S 
BRANCH   2   9
ATOM      3 CL   UNL     1       5.187   3.675  12.877  0.00  0.00    +0.000 Cl
ATOM      4  C   UNL     1       5.817   4.136  14.413  0.00  0.00    +0.000 A 
ATOM      5  C   UNL     1       7.044   4.786  14.478  0.00  0.00    +0.000 A 
ATOM      6  C   UNL     1       7.548   5.174  15.715  0.00  0.00    +0.000 A 
ATOM      7  C   UNL     1       6.828   4.908  16.884  0.00  0.00    +0.000 A 
ATOM      8 CL   UNL     1       7.548   5.435  18.371  0.00  0.00    +0.000 Cl
ATOM      9  C   UNL     1       5.580   4.249  16.832  0.00  0.00    +0.000 A 
ATOM     10  C   UNL     1       5.083   3.870  15.574  0.00  0.00    +0.000 A 
ENDBRANCH   2   9
ENDBRANCH   1   2
BRANCH   1  11
ATOM     11  C   UNL     1       2.348   2.511  17.813  0.00  0.00    +0.000 C 
BRANCH  11  12
ATOM     12  C   UNL     1       1.720   3.874  18.173  0.00  0.00    +0.000 C 
BRANCH  12  13
ATOM     13  N   UNL     1       0.902   3.805  19.386  0.00  0.00    +0.000 NA
ATOM     14  C   UNL     1       0.889   2.485  20.044  0.00  0.00    +0.000 C 
ATOM     15  C   UNL     1       1.989   2.221  21.100  0.00  0.00    +0.000 C 
ATOM     16  N   UNL     1       2.165   3.321  22.054  0.00  0.00    +0.000 NA
ATOM     17  C   UNL     1       2.388   4.569  21.313  0.00  0.00    +0.000 C 
ATOM     18  C   UNL     1       1.219   4.878  20.353  0.00  0.00    +0.000 C 
ATOM     19  H   UNL     1       2.962   3.129  22.658  0.00  0.00    +0.000 HD
ENDBRANCH  12  13
ENDBRANCH  11  12
ENDBRANCH   1  11
TORSDOF 5
ENDMDL
MODEL 4
REMARK VINA RESULT:      -6.0      3.506      5.912
REMARK  Name = 
REMARK  5 active torsions:
REMARK  status: ('A' for Active; 'I' for Inactive)
REMARK    1  A    between atoms: C_7  and  S_8
REMARK    2  A    between atoms: S_8  and  C_9
REMARK    3  A    between atoms: C_9  and  C_10
REMARK    4  A    between atoms: C_10  and  C_11
REMARK    5  A    between atoms: C_11  and  N_12
REMARK                            x       y       z     vdW  Elec       q    Type
REMARK                         _______ _______ _______ _____ _____    ______ ____
ROOT
ATOM      1  C   UNL     1       2.494   5.889  17.858  0.00  0.00    +0.000 C 
ENDROOT
BRANCH   1   2
ATOM      2  S   UNL     1       3.970   5.480  18.856  0.00  0.00    +0.000 S 
BRANCH   2   9
ATOM      3 CL   UNL     1       5.421   4.028  13.761  0.00  0.00    +0.000 Cl
ATOM      4  C   UNL     1       5.865   4.428  15.377  0.00  0.00    +0.000 A 
ATOM      5  C   UNL     1       7.212   4.509  15.713  0.00  0.00    +0.000 A 
ATOM      6  C   UNL     1       7.573   4.848  17.013  0.00  0.00    +0.000 A 
ATOM      7  C   UNL     1       6.589   5.101  17.975  0.00  0.00    +0.000 A 
ATOM      8 CL   UNL     1       7.150   5.515  19.563  0.00  0.00    +0.000 Cl
ATOM      9  C   UNL     1       5.218   5.024  17.646  0.00  0.00    +0.000 A 
ATOM     10  C   UNL     1       4.871   4.687  16.327  0.00  0.00    +0.000 A 
ENDBRANCH   2   9
ENDBRANCH   1   2
BRANCH   1  11
ATOM     11  C   UNL     1       1.502   4.714  17.852  0.00  0.00    +0.000 C 
BRANCH  11  12
ATOM     12  C   UNL     1       2.153   3.315  17.899  0.00  0.00    +0.000 C 
BRANCH  12  13
ATOM     13  N   UNL     1       1.610   2.486  18.978  0.00  0.00    +0.000 NA
ATOM     14  C   UNL     1       2.620   1.716  19.729  0.00  0.00    +0.000 C 
ATOM     15  C   UNL     1       3.259   2.411  20.954  0.00  0.00    +0.000 C 
ATOM     16  N   UNL     1       2.285   3.065  21.835  0.00  0.00    +0.000 NA
ATOM     17  C   UNL     1       1.458   3.981  21.040  0.00  0.00    +0.000 C 
ATOM     18  C   UNL     1       0.731   3.243  19.894  0.00  0.00    +0.000 C 
ATOM     19  H   UNL     1       2.772   3.582  22.564  0.00  0.00    +0.000 HD
ENDBRANCH  12  13
ENDBRANCH  11  12
ENDBRANCH   1  11
TORSDOF 5
ENDMDL
MODEL 5
REMARK VINA RESULT:      -5.9      3.550      6.208
REMARK  Name = 
REMARK  5 active torsions:
REMARK  status: ('A' for Active; 'I' for Inactive)
REMARK    1  A    between atoms: C_7  and  S_8
REMARK    2  A    between atoms: S_8  and  C_9
REMARK    3  A    between atoms: C_9  and  C_10
REMARK    4  A    between atoms: C_10  and  C_11
REMARK    5  A    between atoms: C_11  and  N_12
REMARK                            x       y       z     vdW  Elec       q    Type
REMARK                         _______ _______ _______ _____ _____    ______ ____
ROOT
ATOM      1  C   UNL     1       4.364   5.669  19.288  0.00  0.00    +0.000 C 
ENDROOT
BRANCH   1   2
ATOM      2  S   UNL     1       4.986   4.026  18.784  0.00  0.00    +0.000 S 
BRANCH   2   9
ATOM      3 CL   UNL     1       5.098   3.693  13.302  0.00  0.00    +0.000 Cl
ATOM      4  C   UNL     1       5.823   4.213  14.776  0.00  0.00    +0.000 A 
ATOM      5  C   UNL     1       6.992   4.966  14.731  0.00  0.00    +0.000 A 
ATOM      6  C   UNL     1       7.570   5.401  15.919  0.00  0.00    +0.000 A 
ATOM      7  C   UNL     1       6.984   5.081  17.148  0.00  0.00    +0.000 A 
ATOM      8 CL   UNL     1       7.788   5.674  18.565  0.00  0.00    +0.000 Cl
ATOM      9  C   UNL     1       5.797   4.317  17.207  0.00  0.00    +0.000 A 
ATOM     10  C   UNL     1       5.223   3.891  15.998  0.00  0.00    +0.000 A 
ENDBRANCH   2   9
ENDBRANCH   1   2
BRANCH   1  11
ATOM     11  C   UNL     1       2.912   5.866  18.822  0.00  0.00    +0.000 C 
BRANCH  11  12
ATOM     12  C   UNL     1       2.216   4.585  18.311  0.00  0.00    +0.000 C 
BRANCH  12  13
ATOM     13  N   UNL     1       1.149   4.138  19.208  0.00  0.00    +0.000 NA
ATOM     14  C   UNL     1       0.968   2.674  19.265  0.00  0.00    +0.000 C 
ATOM     15  C   UNL     1       1.802   1.908  20.318  0.00  0.00    +0.000 C 
ATOM     16  N   UNL     1       1.784   2.526  21.649  0.00  0.00    +0.000 NA
ATOM     17  C   UNL     1       2.187   3.933  21.530  0.00  0.00    +0.000 C 
ATOM     18  C   UNL     1       1.265   4.711  20.566  0.00  0.00    +0.000 C 
ATOM     19  H   UNL     1       2.424   2.033  22.268  0.00  0.00    +0.000 HD
ENDBRANCH  12  13
ENDBRANCH  11  12
ENDBRANCH   1  11
TORSDOF 5
ENDMDL
MODEL 6
REMARK VINA RESULT:      -5.9      4.298      6.908
REMARK  Name = 
REMARK  5 active torsions:
REMARK  status: ('A' for Active; 'I' for Inactive)
REMARK    1  A    between atoms: C_7  and  S_8
REMARK    2  A    between atoms: S_8  and  C_9
REMARK    3  A    between atoms: C_9  and  C_10
REMARK    4  A    between atoms: C_10  and  C_11
REMARK    5  A    between atoms: C_11  and  N_12
REMARK                            x       y       z     vdW  Elec       q    Type
REMARK                         _______ _______ _______ _____ _____    ______ ____
ROOT
ATOM      1  C   UNL     1       2.311   8.453  18.056  0.00  0.00    +0.000 C 
ENDROOT
BRANCH   1   2
ATOM      2  S   UNL     1       2.423   7.213  19.394  0.00  0.00    +0.000 S 
BRANCH   2   9
ATOM      3 CL   UNL     1       5.318   4.366  15.694  0.00  0.00    +0.000 Cl
ATOM      4  C   UNL     1       4.133   4.406  16.944  0.00  0.00    +0.000 A 
ATOM      5  C   UNL     1       3.561   3.216  17.380  0.00  0.00    +0.000 A 
ATOM      6  C   UNL     1       2.617   3.244  18.401  0.00  0.00    +0.000 A 
ATOM      7  C   UNL     1       2.242   4.460  18.982  0.00  0.00    +0.000 A 
ATOM      8 CL   UNL     1       1.057   4.380  20.245  0.00  0.00    +0.000 Cl
ATOM      9  C   UNL     1       2.816   5.676  18.550  0.00  0.00    +0.000 A 
ATOM     10  C   UNL     1       3.773   5.629  17.522  0.00  0.00    +0.000 A 
ENDBRANCH   2   9
ENDBRANCH   1   2
BRANCH   1  11
ATOM     11  C   UNL     1       1.054   9.322  18.227  0.00  0.00    +0.000 C 
BRANCH  11  12
ATOM     12  C   UNL     1       1.000  10.133  19.540  0.00  0.00    +0.000 C 
BRANCH  12  13
ATOM     13  N   UNL     1      -0.250   9.919  20.273  0.00  0.00    +0.000 NA
ATOM     14  C   UNL     1      -0.151   8.962  21.391  0.00  0.00    +0.000 C 
ATOM     15  C   UNL     1       0.241   9.539  22.771  0.00  0.00    +0.000 C 
ATOM     16  N   UNL     1      -0.501  10.750  23.136  0.00  0.00    +0.000 NA
ATOM     17  C   UNL     1      -0.368  11.738  22.058  0.00  0.00    +0.000 C 
ATOM     18  C   UNL     1      -0.880  11.183  20.710  0.00  0.00    +0.000 C 
ATOM     19  H   UNL     1      -0.133  11.132  24.005  0.00  0.00    +0.000 HD
ENDBRANCH  12  13
ENDBRANCH  11  12
ENDBRANCH   1  11
TORSDOF 5
ENDMDL
MODEL 7
REMARK VINA RESULT:      -5.9      3.280      5.549
REMARK  Name = 
REMARK  5 active torsions:
REMARK  status: ('A' for Active; 'I' for Inactive)
REMARK    1  A    between atoms: C_7  and  S_8
REMARK    2  A    between atoms: S_8  and  C_9
REMARK    3  A    between atoms: C_9  and  C_10
REMARK    4  A    between atoms: C_10  and  C_11
REMARK    5  A    between atoms: C_11  and  N_12
REMARK                            x       y       z     vdW  Elec       q    Type
REMARK                         _______ _______ _______ _____ _____    ______ ____
ROOT
ATOM      1  C   UNL     1       3.237   6.117  19.005  0.00  0.00    +0.000 C 
ENDROOT
BRANCH   1   2
ATOM      2  S   UNL     1       4.082   7.009  17.652  0.00  0.00    +0.000 S 
BRANCH   2   9
ATOM      3 CL   UNL     1       5.733   3.930  13.414  0.00  0.00    +0.000 Cl
ATOM      4  C   UNL     1       5.947   4.462  15.038  0.00  0.00    +0.000 A 
ATOM      5  C   UNL     1       7.055   4.027  15.757  0.00  0.00    +0.000 A 
ATOM      6  C   UNL     1       7.240   4.468  17.064  0.00  0.00    +0.000 A 
ATOM      7  C   UNL     1       6.316   5.339  17.651  0.00  0.00    +0.000 A 
ATOM      8 CL   UNL     1       6.642   5.825  19.283  0.00  0.00    +0.000 Cl
ATOM      9  C   UNL     1       5.187   5.790  16.931  0.00  0.00    +0.000 A 
ATOM     10  C   UNL     1       5.020   5.339  15.611  0.00  0.00    +0.000 A 
ENDBRANCH   2   9
ENDBRANCH   1   2
BRANCH   1  11
ATOM     11  C   UNL     1       2.518   4.869  18.466  0.00  0.00    +0.000 C 
BRANCH  11  12
ATOM     12  C   UNL     1       1.498   4.238  19.437  0.00  0.00    +0.000 C 
BRANCH  12  13
ATOM     13  N   UNL     1       1.775   2.822  19.689  0.00  0.00    +0.000 NA
ATOM     14  C   UNL     1       1.987   2.012  18.474  0.00  0.00    +0.000 C 
ATOM     15  C   UNL     1       3.436   1.919  17.942  0.00  0.00    +0.000 C 
ATOM     16  N   UNL     1       4.430   1.636  18.983  0.00  0.00    +0.000 NA
ATOM     17  C   UNL     1       4.291   2.625  20.059  0.00  0.00    +0.000 C 
ATOM     18  C   UNL     1       2.869   2.616  20.662  0.00  0.00    +0.000 C 
ATOM     19  H   UNL     1       5.367   1.683  18.588  0.00  0.00    +0.000 HD
ENDBRANCH  12  13
ENDBRANCH  11  12
ENDBRANCH   1  11
TORSDOF 5
ENDMDL
MODEL 8
REMARK VINA RESULT:      -5.9      2.201      4.061
REMARK  Name = 
REMARK  5 active torsions:
REMARK  status: ('A' for Active; 'I' for Inactive)
REMARK    1  A    between atoms: C_7  and  S_8
REMARK    2  A    between atoms: S_8  and  C_9
REMARK    3  A    between atoms: C_9  and  C_10
REMARK    4  A    between atoms: C_10  and  C_11
REMARK    5  A    between atoms: C_11  and  N_12
REMARK                            x       y       z     vdW  Elec       q    Type
REMARK                         _______ _______ _______ _____ _____    ______ ____
ROOT
ATOM      1  C   UNL     1       2.818   6.773  19.646  0.00  0.00    +0.000 C 
ENDROOT
BRANCH   1   2
ATOM      2  S   UNL     1       1.718   5.405  20.154  0.00  0.00    +0.000 S 
BRANCH   2   9
ATOM      3 CL   UNL     1       5.184   1.182  20.722  0.00  0.00    +0.000 Cl
ATOM      4  C   UNL     1       4.013   2.030  19.784  0.00  0.00    +0.000 A 
ATOM      5  C   UNL     1       3.599   1.497  18.568  0.00  0.00    +0.000 A 
ATOM      6  C   UNL     1       2.642   2.171  17.817  0.00  0.00    +0.000 A 
ATOM      7  C   UNL     1       2.103   3.376  18.279  0.00  0.00    +0.000 A 
ATOM      8 CL   UNL     1       0.918   4.132  17.264  0.00  0.00    +0.000 Cl
ATOM      9  C   UNL     1       2.514   3.928  19.513  0.00  0.00    +0.000 A 
ATOM     10  C   UNL     1       3.477   3.231  20.262  0.00  0.00    +0.000 A 
ENDBRANCH   2   9
ENDBRANCH   1   2
BRANCH   1  11
ATOM     11  C   UNL     1       3.002   6.783  18.119  0.00  0.00    +0.000 C 
BRANCH  11  12
ATOM     12  C   UNL     1       4.462   6.633  17.640  0.00  0.00    +0.000 C 
BRANCH  12  13
ATOM     13  N   UNL     1       5.010   5.307  17.936  0.00  0.00    +0.000 NA
ATOM     14  C   UNL     1       5.314   4.489  16.747  0.00  0.00    +0.000 C 
ATOM     15  C   UNL     1       6.730   4.638  16.141  0.00  0.00    +0.000 C 
ATOM     16  N   UNL     1       7.805   4.598  17.138  0.00  0.00    +0.000 NA
ATOM     17  C   UNL     1       7.533   5.598  18.178  0.00  0.00    +0.000 C 
ATOM     18  C   UNL     1       6.166   5.357  18.856  0.00  0.00    +0.000 C 
ATOM     19  H   UNL     1       8.698   4.796  16.691  0.00  0.00    +0.000 HD
ENDBRANCH  12  13
ENDBRANCH  11  12
ENDBRANCH   1  11
TORSDOF 5
ENDMDL
MODEL 9
REMARK VINA RESULT:      -5.9      1.026      1.568
REMARK  Name = 
REMARK  5 active torsions:
REMARK  status: ('A' for Active; 'I' for Inactive)
REMARK    1  A    between atoms: C_7  and  S_8
REMARK    2  A    between atoms: S_8  and  C_9
REMARK    3  A    between atoms: C_9  and  C_10
REMARK    4  A    between atoms: C_10  and  C_11
REMARK    5  A    between atoms: C_11  and  N_12
REMARK                            x       y       z     vdW  Elec       q    Type
REMARK                         _______ _______ _______ _____ _____    ______ ____
ROOT
ATOM      1  C   UNL     1       2.972   2.083  18.207  0.00  0.00    +0.000 C 
ENDROOT
BRANCH   1   2
ATOM      2  S   UNL     1       1.356   2.934  18.289  0.00  0.00    +0.000 S 
BRANCH   2   9
ATOM      3 CL   UNL     1       2.269   8.309  17.618  0.00  0.00    +0.000 Cl
ATOM      4  C   UNL     1       2.094   6.949  18.661  0.00  0.00    +0.000 A 
ATOM      5  C   UNL     1       2.135   7.137  20.038  0.00  0.00    +0.000 A 
ATOM      6  C   UNL     1       1.977   6.043  20.883  0.00  0.00    +0.000 A 
ATOM      7  C   UNL     1       1.782   4.763  20.351  0.00  0.00    +0.000 A 
ATOM      8 CL   UNL     1       1.598   3.472  21.494  0.00  0.00    +0.000 Cl
ATOM      9  C   UNL     1       1.737   4.559  18.954  0.00  0.00    +0.000 A 
ATOM     10  C   UNL     1       1.892   5.676  18.116  0.00  0.00    +0.000 A 
ENDBRANCH   2   9
ENDBRANCH   1   2
BRANCH   1  11
ATOM     11  C   UNL     1       4.053   3.027  17.655  0.00  0.00    +0.000 C 
BRANCH  11  12
ATOM     12  C   UNL     1       5.055   3.552  18.706  0.00  0.00    +0.000 C 
BRANCH  12  13
ATOM     13  N   UNL     1       5.271   4.996  18.594  0.00  0.00    +0.000 NA
ATOM     14  C   UNL     1       6.450   5.499  19.323  0.00  0.00    +0.000 C 
ATOM     15  C   UNL     1       7.792   5.515  18.554  0.00  0.00    +0.000 C 
ATOM     16  N   UNL     1       7.689   6.075  17.202  0.00  0.00    +0.000 NA
ATOM     17  C   UNL     1       6.632   5.368  16.469  0.00  0.00    +0.000 C 
ATOM     18  C   UNL     1       5.271   5.468  17.193  0.00  0.00    +0.000 C 
ATOM     19  H   UNL     1       8.578   5.969  16.716  0.00  0.00    +0.000 HD
ENDBRANCH  12  13
ENDBRANCH  11  12
ENDBRANCH   1  11
TORSDOF 5
ENDMDL
