MODEL 1
REMARK VINA RESULT:      -7.5      0.000      0.000
REMARK  Name = 
REMARK  4 active torsions:
REMARK  status: ('A' for Active; 'I' for Inactive)
REMARK    1  A    between atoms: N_2  and  C_4
REMARK    2  A    between atoms: C_7  and  C_8
REMARK    3  A    between atoms: C_9  and  C_10
REMARK    4  A    between atoms: C_10  and  N_11
REMARK                            x       y       z     vdW  Elec       q    Type
REMARK                         _______ _______ _______ _____ _____    ______ ____
ROOT
ATOM      1  C   UNL     1       8.850   9.555  18.696  0.00  0.00    +0.000 C 
ATOM      2  C   UNL     1       8.243   8.716  17.832  0.00  0.00    +0.000 C 
ENDROOT
BRANCH   1   6
ATOM      3  C   UNL     1      10.169  13.468  17.622  0.00  0.00    +0.000 A 
ATOM      4  C   UNL     1      11.107  12.494  17.948  0.00  0.00    +0.000 A 
ATOM      5  C   UNL     1      10.666  11.210  18.290  0.00  0.00    +0.000 A 
ATOM      6  C   UNL     1       9.298  10.905  18.286  0.00  0.00    +0.000 A 
ATOM      7  C   UNL     1       8.380  11.892  17.865  0.00  0.00    +0.000 A 
ATOM      8  C   UNL     1       8.803  13.189  17.561  0.00  0.00    +0.000 A 
BRANCH   3  10
ATOM      9  O   UNL     1      11.806  14.967  17.039  0.00  0.00    +0.000 OA
ATOM     10  N   UNL     1      10.622  14.833  17.357  0.00  0.00    +0.000 N 
ATOM     11  O   UNL     1       9.782  15.731  17.476  0.00  0.00    +0.000 OA
ENDBRANCH   3  10
ENDBRANCH   1   6
BRANCH   2  12
ATOM     12  C   UNL     1       7.784   7.306  18.094  0.00  0.00    +0.000 C 
BRANCH  12  13
ATOM     13  N   UNL     1       7.071   6.737  16.932  0.00  0.00    +0.000 NA
ATOM     14  C   UNL     1       7.241   5.282  16.780  0.00  0.00    +0.000 C 
ATOM     15  C   UNL     1       6.512   4.408  17.820  0.00  0.00    +0.000 C 
ATOM     16  N   UNL     1       5.007   4.768  17.968  0.00  0.00    +0.000 N 
ATOM     17  C   UNL     1       4.470   4.148  19.298  0.00  0.00    +0.000 C 
ATOM     18  C   UNL     1       3.375   3.183  18.890  0.00  0.00    +0.000 C 
ATOM     19  C   UNL     1       3.718   2.788  17.473  0.00  0.00    +0.000 C 
ATOM     20  C   UNL     1       4.189   4.087  16.855  0.00  0.00    +0.000 C 
ATOM     21  C   UNL     1       4.764   6.297  17.970  0.00  0.00    +0.000 C 
ATOM     22  C   UNL     1       5.628   7.047  16.928  0.00  0.00    +0.000 C 
ENDBRANCH  12  13
ENDBRANCH   2  12
TORSDOF 4
ENDMDL
MODEL 2
REMARK VINA RESULT:      -7.5      1.329      1.814
REMARK  Name = 
REMARK  4 active torsions:
REMARK  status: ('A' for Active; 'I' for Inactive)
REMARK    1  A    between atoms: N_2  and  C_4
REMARK    2  A    between atoms: C_7  and  C_8
REMARK    3  A    between atoms: C_9  and  C_10
REMARK    4  A    between atoms: C_10  and  N_11
REMARK                            x       y       z     vdW  Elec       q    Type
REMARK                         _______ _______ _______ _____ _____    ______ ____
ROOT
ATOM      1  C   UNL     1       8.462   8.427  18.413  0.00  0.00    +0.000 C 
ATOM      2  C   UNL     1       7.628   8.019  17.435  0.00  0.00    +0.000 C 
ENDROOT
BRANCH   1   6
ATOM      3  C   UNL     1       9.518  12.536  18.864  0.00  0.00    +0.000 A 
ATOM      4  C   UNL     1       8.736  12.145  17.782  0.00  0.00    +0.000 A 
ATOM      5  C   UNL     1       8.387  10.796  17.647  0.00  0.00    +0.000 A 
ATOM      6  C   UNL     1       8.804   9.855  18.600  0.00  0.00    +0.000 A 
ATOM      7  C   UNL     1       9.521  10.302  19.731  0.00  0.00    +0.000 A 
ATOM      8  C   UNL     1       9.911  11.638  19.857  0.00  0.00    +0.000 A 
BRANCH   3  10
ATOM      9  O   UNL     1       9.330  14.656  19.722  0.00  0.00    +0.000 OA
ATOM     10  N   UNL     1       9.963  13.927  18.956  0.00  0.00    +0.000 N 
ATOM     11  O   UNL     1      10.931  14.248  18.258  0.00  0.00    +0.000 OA
ENDBRANCH   3  10
ENDBRANCH   1   6
BRANCH   2  12
ATOM     12  C   UNL     1       7.235   6.605  17.098  0.00  0.00    +0.000 C 
BRANCH  12  13
ATOM     13  N   UNL     1       5.899   6.543  16.469  0.00  0.00    +0.000 NA
ATOM     14  C   UNL     1       5.609   5.261  15.807  0.00  0.00    +0.000 C 
ATOM     15  C   UNL     1       5.366   4.061  16.744  0.00  0.00    +0.000 C 
ATOM     16  N   UNL     1       4.312   4.355  17.847  0.00  0.00    +0.000 N 
ATOM     17  C   UNL     1       4.441   3.273  18.968  0.00  0.00    +0.000 C 
ATOM     18  C   UNL     1       3.105   2.559  19.006  0.00  0.00    +0.000 C 
ATOM     19  C   UNL     1       2.531   2.742  17.621  0.00  0.00    +0.000 C 
ATOM     20  C   UNL     1       2.891   4.173  17.282  0.00  0.00    +0.000 C 
ATOM     21  C   UNL     1       4.481   5.766  18.462  0.00  0.00    +0.000 C 
ATOM     22  C   UNL     1       4.802   6.850  17.407  0.00  0.00    +0.000 C 
ENDBRANCH  12  13
ENDBRANCH   2  12
TORSDOF 4
ENDMDL
MODEL 3
REMARK VINA RESULT:      -7.4      4.293      9.777
REMARK  Name = 
REMARK  4 active torsions:
REMARK  status: ('A' for Active; 'I' for Inactive)
REMARK    1  A    between atoms: N_2  and  C_4
REMARK    2  A    between atoms: C_7  and  C_8
REMARK    3  A    between atoms: C_9  and  C_10
REMARK    4  A    between atoms: C_10  and  N_11
REMARK                            x       y       z     vdW  Elec       q    Type
REMARK                         _______ _______ _______ _____ _____    ______ ____
ROOT
ATOM      1  C   UNL     1       8.449   9.087  17.944  0.00  0.00    +0.000 C 
ATOM      2  C   UNL     1       8.918   9.665  19.069  0.00  0.00    +0.000 C 
ENDROOT
BRANCH   1   6
ATOM      3  C   UNL     1       6.296   5.407  18.083  0.00  0.00    +0.000 A 
ATOM      4  C   UNL     1       5.891   6.404  17.202  0.00  0.00    +0.000 A 
ATOM      5  C   UNL     1       6.609   7.606  17.156  0.00  0.00    +0.000 A 
ATOM      6  C   UNL     1       7.732   7.792  17.974  0.00  0.00    +0.000 A 
ATOM      7  C   UNL     1       8.166   6.726  18.791  0.00  0.00    +0.000 A 
ATOM      8  C   UNL     1       7.436   5.538  18.877  0.00  0.00    +0.000 A 
BRANCH   3  10
ATOM      9  O   UNL     1       5.446   3.668  19.315  0.00  0.00    +0.000 OA
ATOM     10  N   UNL     1       5.492   4.190  18.200  0.00  0.00    +0.000 N 
ATOM     11  O   UNL     1       4.932   3.793  17.172  0.00  0.00    +0.000 OA
ENDBRANCH   3  10
ENDBRANCH   1   6
BRANCH   2  12
ATOM     12  C   UNL     1       9.704  10.945  19.182  0.00  0.00    +0.000 C 
BRANCH  12  13
ATOM     13  N   UNL     1       9.925  11.570  17.861  0.00  0.00    +0.000 NA
ATOM     14  C   UNL     1       9.112  12.774  17.626  0.00  0.00    +0.000 C 
ATOM     15  C   UNL     1       9.516  14.025  18.430  0.00  0.00    +0.000 C 
ATOM     16  N   UNL     1      11.030  14.359  18.314  0.00  0.00    +0.000 N 
ATOM     17  C   UNL     1      11.416  15.349  19.460  0.00  0.00    +0.000 C 
ATOM     18  C   UNL     1      11.906  16.606  18.771  0.00  0.00    +0.000 C 
ATOM     19  C   UNL     1      11.231  16.592  17.419  0.00  0.00    +0.000 C 
ATOM     20  C   UNL     1      11.301  15.136  17.012  0.00  0.00    +0.000 C 
ATOM     21  C   UNL     1      11.920  13.095  18.394  0.00  0.00    +0.000 C 
ATOM     22  C   UNL     1      11.341  11.898  17.604  0.00  0.00    +0.000 C 
ENDBRANCH  12  13
ENDBRANCH   2  12
TORSDOF 4
ENDMDL
MODEL 4
REMARK VINA RESULT:      -7.4      0.566      1.240
REMARK  Name = 
REMARK  4 active torsions:
REMARK  status: ('A' for Active; 'I' for Inactive)
REMARK    1  A    between atoms: N_2  and  C_4
REMARK    2  A    between atoms: C_7  and  C_8
REMARK    3  A    between atoms: C_9  and  C_10
REMARK    4  A    between atoms: C_10  and  N_11
REMARK                            x       y       z     vdW  Elec       q    Type
REMARK                         _______ _______ _______ _____ _____    ______ ____
ROOT
ATOM      1  C   UNL     1       8.872   9.331  18.898  0.00  0.00    +0.000 C 
ATOM      2  C   UNL     1       8.217   8.626  17.953  0.00  0.00    +0.000 C 
ENDROOT
BRANCH   1   6
ATOM      3  C   UNL     1      10.113  13.342  18.141  0.00  0.00    +0.000 A 
ATOM      4  C   UNL     1       8.931  12.873  17.578  0.00  0.00    +0.000 A 
ATOM      5  C   UNL     1       8.526  11.558  17.839  0.00  0.00    +0.000 A 
ATOM      6  C   UNL     1       9.293  10.732  18.672  0.00  0.00    +0.000 A 
ATOM      7  C   UNL     1      10.440  11.269  19.297  0.00  0.00    +0.000 A 
ATOM      8  C   UNL     1      10.877  12.566  19.013  0.00  0.00    +0.000 A 
BRANCH   3  10
ATOM      9  O   UNL     1      10.392  15.567  18.630  0.00  0.00    +0.000 OA
ATOM     10  N   UNL     1      10.585  14.683  17.793  0.00  0.00    +0.000 N 
ATOM     11  O   UNL     1      11.133  14.811  16.693  0.00  0.00    +0.000 OA
ENDBRANCH   3  10
ENDBRANCH   1   6
BRANCH   2  12
ATOM     12  C   UNL     1       7.776   7.188  18.025  0.00  0.00    +0.000 C 
BRANCH  12  13
ATOM     13  N   UNL     1       6.824   6.853  16.946  0.00  0.00    +0.000 NA
ATOM     14  C   UNL     1       6.942   5.471  16.452  0.00  0.00    +0.000 C 
ATOM     15  C   UNL     1       6.446   4.370  17.410  0.00  0.00    +0.000 C 
ATOM     16  N   UNL     1       5.012   4.634  17.948  0.00  0.00    +0.000 N 
ATOM     17  C   UNL     1       4.769   3.726  19.196  0.00  0.00    +0.000 C 
ATOM     18  C   UNL     1       3.601   2.830  18.833  0.00  0.00    +0.000 C 
ATOM     19  C   UNL     1       3.628   2.758  17.324  0.00  0.00    +0.000 C 
ATOM     20  C   UNL     1       3.967   4.175  16.914  0.00  0.00    +0.000 C 
ATOM     21  C   UNL     1       4.791   6.117  18.331  0.00  0.00    +0.000 C 
ATOM     22  C   UNL     1       5.417   7.103  17.316  0.00  0.00    +0.000 C 
ENDBRANCH  12  13
ENDBRANCH   2  12
TORSDOF 4
ENDMDL
MODEL 5
REMARK VINA RESULT:      -7.4      1.399      1.549
REMARK  Name = 
REMARK  4 active torsions:
REMARK  status: ('A' for Active; 'I' for Inactive)
REMARK    1  A    between atoms: N_2  and  C_4
REMARK    2  A    between atoms: C_7  and  C_8
REMARK    3  A    between atoms: C_9  and  C_10
REMARK    4  A    between atoms: C_10  and  N_11
REMARK                            x       y       z     vdW  Elec       q    Type
REMARK                         _______ _______ _______ _____ _____    ______ ____
ROOT
ATOM      1  C   UNL     1       8.421   8.477  18.517  0.00  0.00    +0.000 C 
ATOM      2  C   UNL     1       7.694   8.045  17.467  0.00  0.00    +0.000 C 
ENDROOT
BRANCH   1   6
ATOM      3  C   UNL     1       9.457  12.585  19.024  0.00  0.00    +0.000 A 
ATOM      4  C   UNL     1       9.820  11.661  19.999  0.00  0.00    +0.000 A 
ATOM      5  C   UNL     1       9.485  10.314  19.820  0.00  0.00    +0.000 A 
ATOM      6  C   UNL     1       8.807   9.898  18.665  0.00  0.00    +0.000 A 
ATOM      7  C   UNL     1       8.532  10.847  17.657  0.00  0.00    +0.000 A 
ATOM      8  C   UNL     1       8.825  12.202  17.840  0.00  0.00    +0.000 A 
BRANCH   3  10
ATOM      9  O   UNL     1      10.871  14.392  19.027  0.00  0.00    +0.000 OA
ATOM     10  N   UNL     1       9.722  14.005  19.254  0.00  0.00    +0.000 N 
ATOM     11  O   UNL     1       8.776  14.690  19.655  0.00  0.00    +0.000 OA
ENDBRANCH   3  10
ENDBRANCH   1   6
BRANCH   2  12
ATOM     12  C   UNL     1       7.275   6.630  17.163  0.00  0.00    +0.000 C 
BRANCH  12  13
ATOM     13  N   UNL     1       5.944   6.578  16.524  0.00  0.00    +0.000 NA
ATOM     14  C   UNL     1       5.656   5.304  15.846  0.00  0.00    +0.000 C 
ATOM     15  C   UNL     1       5.404   4.094  16.767  0.00  0.00    +0.000 C 
ATOM     16  N   UNL     1       4.342   4.378  17.866  0.00  0.00    +0.000 N 
ATOM     17  C   UNL     1       4.461   3.283  18.975  0.00  0.00    +0.000 C 
ATOM     18  C   UNL     1       3.124   2.571  18.997  0.00  0.00    +0.000 C 
ATOM     19  C   UNL     1       2.560   2.771  17.609  0.00  0.00    +0.000 C 
ATOM     20  C   UNL     1       2.925   4.205  17.289  0.00  0.00    +0.000 C 
ATOM     21  C   UNL     1       4.509   5.781  18.498  0.00  0.00    +0.000 C 
ATOM     22  C   UNL     1       4.840   6.877  17.458  0.00  0.00    +0.000 C 
ENDBRANCH  12  13
ENDBRANCH   2  12
TORSDOF 4
ENDMDL
MODEL 6
REMARK VINA RESULT:      -7.4      1.799      2.378
REMARK  Name = 
REMARK  4 active torsions:
REMARK  status: ('A' for Active; 'I' for Inactive)
REMARK    1  A    between atoms: N_2  and  C_4
REMARK    2  A    between atoms: C_7  and  C_8
REMARK    3  A    between atoms: C_9  and  C_10
REMARK    4  A    between atoms: C_10  and  N_11
REMARK                            x       y       z     vdW  Elec       q    Type
REMARK                         _______ _______ _______ _____ _____    ______ ____
ROOT
ATOM      1  C   UNL     1       8.173   9.340  17.489  0.00  0.00    +0.000 C 
ATOM      2  C   UNL     1       8.024   8.085  17.961  0.00  0.00    +0.000 C 
ENDROOT
BRANCH   1   6
ATOM      3  C   UNL     1       9.995  12.446  19.778  0.00  0.00    +0.000 A 
ATOM      4  C   UNL     1       9.344  12.762  18.589  0.00  0.00    +0.000 A 
ATOM      5  C   UNL     1       8.741  11.738  17.849  0.00  0.00    +0.000 A 
ATOM      6  C   UNL     1       8.776  10.414  18.310  0.00  0.00    +0.000 A 
ATOM      7  C   UNL     1       9.368  10.143  19.562  0.00  0.00    +0.000 A 
ATOM      8  C   UNL     1      10.009  11.148  20.291  0.00  0.00    +0.000 A 
BRANCH   3  10
ATOM      9  O   UNL     1      11.771  13.879  20.012  0.00  0.00    +0.000 OA
ATOM     10  N   UNL     1      10.706  13.499  20.503  0.00  0.00    +0.000 N 
ATOM     11  O   UNL     1      10.179  13.913  21.541  0.00  0.00    +0.000 OA
ENDBRANCH   3  10
ENDBRANCH   1   6
BRANCH   2  12
ATOM     12  C   UNL     1       7.385   6.914  17.261  0.00  0.00    +0.000 C 
BRANCH  12  13
ATOM     13  N   UNL     1       7.469   5.681  18.071  0.00  0.00    +0.000 NA
ATOM     14  C   UNL     1       6.624   5.699  19.276  0.00  0.00    +0.000 C 
ATOM     15  C   UNL     1       5.106   5.593  19.035  0.00  0.00    +0.000 C 
ATOM     16  N   UNL     1       4.718   4.399  18.117  0.00  0.00    +0.000 N 
ATOM     17  C   UNL     1       3.261   4.617  17.597  0.00  0.00    +0.000 C 
ATOM     18  C   UNL     1       2.459   3.439  18.114  0.00  0.00    +0.000 C 
ATOM     19  C   UNL     1       3.203   2.979  19.346  0.00  0.00    +0.000 C 
ATOM     20  C   UNL     1       4.656   3.099  18.940  0.00  0.00    +0.000 C 
ATOM     21  C   UNL     1       5.683   4.243  16.916  0.00  0.00    +0.000 C 
ATOM     22  C   UNL     1       7.166   4.459  17.300  0.00  0.00    +0.000 C 
ENDBRANCH  12  13
ENDBRANCH   2  12
TORSDOF 4
ENDMDL
MODEL 7
REMARK VINA RESULT:      -7.3      1.996      2.480
REMARK  Name = 
REMARK  4 active torsions:
REMARK  status: ('A' for Active; 'I' for Inactive)
REMARK    1  A    between atoms: N_2  and  C_4
REMARK    2  A    between atoms: C_7  and  C_8
REMARK    3  A    between atoms: C_9  and  C_10
REMARK    4  A    between atoms: C_10  and  N_11
REMARK                            x       y       z     vdW  Elec       q    Type
REMARK                         _______ _______ _______ _____ _____    ______ ____
ROOT
ATOM      1  C   UNL     1       8.285   9.276  17.491  0.00  0.00    +0.000 C 
ATOM      2  C   UNL     1       7.962   8.061  17.980  0.00  0.00    +0.000 C 
ENDROOT
BRANCH   1   6
ATOM      3  C   UNL     1       9.734  12.360  20.058  0.00  0.00    +0.000 A 
ATOM      4  C   UNL     1       9.673  11.052  20.526  0.00  0.00    +0.000 A 
ATOM      5  C   UNL     1       9.205  10.044  19.674  0.00  0.00    +0.000 A 
ATOM      6  C   UNL     1       8.820  10.347  18.360  0.00  0.00    +0.000 A 
ATOM      7  C   UNL     1       8.978  11.670  17.891  0.00  0.00    +0.000 A 
ATOM      8  C   UNL     1       9.405  12.692  18.743  0.00  0.00    +0.000 A 
BRANCH   3  10
ATOM      9  O   UNL     1       9.670  13.370  22.117  0.00  0.00    +0.000 OA
ATOM     10  N   UNL     1      10.132  13.427  20.976  0.00  0.00    +0.000 N 
ATOM     11  O   UNL     1      10.894  14.291  20.527  0.00  0.00    +0.000 OA
ENDBRANCH   3  10
ENDBRANCH   1   6
BRANCH   2  12
ATOM     12  C   UNL     1       7.364   6.901  17.228  0.00  0.00    +0.000 C 
BRANCH  12  13
ATOM     13  N   UNL     1       7.445   5.646  18.003  0.00  0.00    +0.000 NA
ATOM     14  C   UNL     1       6.651   5.657  19.243  0.00  0.00    +0.000 C 
ATOM     15  C   UNL     1       5.121   5.599  19.062  0.00  0.00    +0.000 C 
ATOM     16  N   UNL     1       4.662   4.440  18.132  0.00  0.00    +0.000 N 
ATOM     17  C   UNL     1       3.192   4.712  17.679  0.00  0.00    +0.000 C 
ATOM     18  C   UNL     1       2.378   3.544  18.199  0.00  0.00    +0.000 C 
ATOM     19  C   UNL     1       3.158   3.032  19.388  0.00  0.00    +0.000 C 
ATOM     20  C   UNL     1       4.596   3.122  18.925  0.00  0.00    +0.000 C 
ATOM     21  C   UNL     1       5.573   4.288  16.889  0.00  0.00    +0.000 C 
ATOM     22  C   UNL     1       7.075   4.453  17.216  0.00  0.00    +0.000 C 
ENDBRANCH  12  13
ENDBRANCH   2  12
TORSDOF 4
ENDMDL
MODEL 8
REMARK VINA RESULT:      -7.2      4.259      9.728
REMARK  Name = 
REMARK  4 active torsions:
REMARK  status: ('A' for Active; 'I' for Inactive)
REMARK    1  A    between atoms: N_2  and  C_4
REMARK    2  A    between atoms: C_7  and  C_8
REMARK    3  A    between atoms: C_9  and  C_10
REMARK    4  A    between atoms: C_10  and  N_11
REMARK                            x       y       z     vdW  Elec       q    Type
REMARK                         _______ _______ _______ _____ _____    ______ ____
ROOT
ATOM      1  C   UNL     1       8.548   9.078  17.939  0.00  0.00    +0.000 C 
ATOM      2  C   UNL     1       8.945   9.715  19.060  0.00  0.00    +0.000 C 
ENDROOT
BRANCH   1   6
ATOM      3  C   UNL     1       6.273   5.469  18.040  0.00  0.00    +0.000 A 
ATOM      4  C   UNL     1       7.389   5.599  18.860  0.00  0.00    +0.000 A 
ATOM      5  C   UNL     1       8.124   6.790  18.828  0.00  0.00    +0.000 A 
ATOM      6  C   UNL     1       7.730   7.845  17.993  0.00  0.00    +0.000 A 
ATOM      7  C   UNL     1       6.543   7.712  17.240  0.00  0.00    +0.000 A 
ATOM      8  C   UNL     1       5.823   6.514  17.231  0.00  0.00    +0.000 A 
BRANCH   3  10
ATOM      9  O   UNL     1       5.135   3.833  16.902  0.00  0.00    +0.000 OA
ATOM     10  N   UNL     1       5.560   4.192  18.002  0.00  0.00    +0.000 N 
ATOM     11  O   UNL     1       5.446   3.588  19.074  0.00  0.00    +0.000 OA
ENDBRANCH   3  10
ENDBRANCH   1   6
BRANCH   2  12
ATOM     12  C   UNL     1       9.816  10.940  19.157  0.00  0.00    +0.000 C 
BRANCH  12  13
ATOM     13  N   UNL     1      10.016  11.574  17.838  0.00  0.00    +0.000 NA
ATOM     14  C   UNL     1       9.159  12.748  17.602  0.00  0.00    +0.000 C 
ATOM     15  C   UNL     1       9.515  14.012  18.410  0.00  0.00    +0.000 C 
ATOM     16  N   UNL     1      11.015  14.403  18.298  0.00  0.00    +0.000 N 
ATOM     17  C   UNL     1      11.361  15.404  19.446  0.00  0.00    +0.000 C 
ATOM     18  C   UNL     1      11.805  16.680  18.760  0.00  0.00    +0.000 C 
ATOM     19  C   UNL     1      11.135  16.643  17.407  0.00  0.00    +0.000 C 
ATOM     20  C   UNL     1      11.260  15.191  16.997  0.00  0.00    +0.000 C 
ATOM     21  C   UNL     1      11.951  13.172  18.378  0.00  0.00    +0.000 C 
ATOM     22  C   UNL     1      11.420  11.956  17.585  0.00  0.00    +0.000 C 
ENDBRANCH  12  13
ENDBRANCH   2  12
TORSDOF 4
ENDMDL
MODEL 9
REMARK VINA RESULT:      -7.2      4.415      9.803
REMARK  Name = 
REMARK  4 active torsions:
REMARK  status: ('A' for Active; 'I' for Inactive)
REMARK    1  A    between atoms: N_2  and  C_4
REMARK    2  A    between atoms: C_7  and  C_8
REMARK    3  A    between atoms: C_9  and  C_10
REMARK    4  A    between atoms: C_10  and  N_11
REMARK                            x       y       z     vdW  Elec       q    Type
REMARK                         _______ _______ _______ _____ _____    ______ ____
ROOT
ATOM      1  C   UNL     1       8.206   8.414  17.482  0.00  0.00    +0.000 C 
ATOM      2  C   UNL     1       8.488   9.439  18.313  0.00  0.00    +0.000 C 
ENDROOT
BRANCH   1   6
ATOM      3  C   UNL     1       5.672   5.224  18.749  0.00  0.00    +0.000 A 
ATOM      4  C   UNL     1       5.263   6.051  17.709  0.00  0.00    +0.000 A 
ATOM      5  C   UNL     1       6.105   7.090  17.293  0.00  0.00    +0.000 A 
ATOM      6  C   UNL     1       7.352   7.282  17.905  0.00  0.00    +0.000 A 
ATOM      7  C   UNL     1       7.772   6.369  18.898  0.00  0.00    +0.000 A 
ATOM      8  C   UNL     1       6.925   5.354  19.350  0.00  0.00    +0.000 A 
BRANCH   3  10
ATOM      9  O   UNL     1       3.571   4.526  19.350  0.00  0.00    +0.000 OA
ATOM     10  N   UNL     1       4.755   4.199  19.247  0.00  0.00    +0.000 N 
ATOM     11  O   UNL     1       5.246   3.098  19.522  0.00  0.00    +0.000 OA
ENDBRANCH   3  10
ENDBRANCH   1   6
BRANCH   2  12
ATOM     12  C   UNL     1       9.377  10.623  18.036  0.00  0.00    +0.000 C 
BRANCH  12  13
ATOM     13  N   UNL     1      10.037  11.111  19.265  0.00  0.00    +0.000 NA
ATOM     14  C   UNL     1      11.426  11.553  19.062  0.00  0.00    +0.000 C 
ATOM     15  C   UNL     1      11.605  12.873  18.287  0.00  0.00    +0.000 C 
ATOM     16  N   UNL     1      10.742  14.034  18.856  0.00  0.00    +0.000 N 
ATOM     17  C   UNL     1      10.662  15.171  17.787  0.00  0.00    +0.000 C 
ATOM     18  C   UNL     1      11.289  16.389  18.435  0.00  0.00    +0.000 C 
ATOM     19  C   UNL     1      12.230  15.830  19.476  0.00  0.00    +0.000 C 
ATOM     20  C   UNL     1      11.449  14.674  20.064  0.00  0.00    +0.000 C 
ATOM     21  C   UNL     1       9.314  13.574  19.236  0.00  0.00    +0.000 C 
ATOM     22  C   UNL     1       9.289  12.193  19.934  0.00  0.00    +0.000 C 
ENDBRANCH  12  13
ENDBRANCH   2  12
TORSDOF 4
ENDMDL
