MODEL 1
REMARK VINA RESULT:      -7.2      0.000      0.000
REMARK  Name = 
REMARK  11 active torsions:
REMARK  status: ('A' for Active; 'I' for Inactive)
REMARK    1  A    between atoms: C_1  and  C_2
REMARK    2  A    between atoms: C_2  and  O_3
REMARK    3  A    between atoms: O_3  and  C_4
REMARK    4  A    between atoms: C_4  and  C_6
REMARK    5  A    between atoms: N_8  and  C_9
REMARK    6  A    between atoms: C_9  and  C_10
REMARK    7  A    between atoms: C_13  and  O_14
REMARK    8  A    between atoms: O_14  and  C_15
REMARK    9  A    between atoms: C_24  and  C_25
REMARK   10  A    between atoms: C_28  and  O_29
REMARK   11  A    between atoms: O_29  and  C_30
REMARK                            x       y       z     vdW  Elec       q    Type
REMARK                         _______ _______ _______ _____ _____    ______ ____
ROOT
ATOM      1  C   UNL     1      -1.639  10.778  17.973  0.00  0.00    +0.000 C 
ATOM      2  C   UNL     1      -0.496  10.093  17.876  0.00  0.00    +0.000 C 
ATOM      3  N   UNL     1       0.767  10.613  18.145  0.00  0.00    +0.000 N 
ATOM      4  C   UNL     1       0.908  11.979  18.515  0.00  0.00    +0.000 A 
ATOM      5  C   UNL     1       2.145  12.578  18.815  0.00  0.00    +0.000 A 
ATOM      6  C   UNL     1       2.247  13.932  19.163  0.00  0.00    +0.000 A 
ATOM      7  C   UNL     1       1.112  14.730  19.221  0.00  0.00    +0.000 A 
ATOM      8  C   UNL     1      -0.127  14.170  18.946  0.00  0.00    +0.000 A 
ATOM      9  C   UNL     1      -0.241  12.802  18.614  0.00  0.00    +0.000 A 
ATOM     10  C   UNL     1      -1.650  12.211  18.439  0.00  0.00    +0.000 C 
ENDROOT
BRANCH  10  11
ATOM     11  C   UNL     1      -2.449  12.353  19.741  0.00  0.00    +0.000 A 
ATOM     12  C   UNL     1      -1.842  12.110  20.981  0.00  0.00    +0.000 A 
ATOM     13  C   UNL     1      -2.596  12.173  22.156  0.00  0.00    +0.000 A 
ATOM     14  C   UNL     1      -3.952  12.505  22.115  0.00  0.00    +0.000 A 
ATOM     15  C   UNL     1      -4.555  12.773  20.889  0.00  0.00    +0.000 A 
ATOM     16  C   UNL     1      -3.812  12.696  19.712  0.00  0.00    +0.000 A 
BRANCH  14  17
ATOM     17  O   UNL     1      -4.594  12.475  23.323  0.00  0.00    +0.000 OA
ATOM     18  C   UNL     1      -3.850  12.951  24.438  0.00  0.00    +0.000 C 
ENDBRANCH  14  17
ENDBRANCH  10  11
BRANCH   1  19
ATOM     19  C   UNL     1      -2.950  10.215  17.589  0.00  0.00    +0.000 C 
ATOM     20  O   UNL     1      -3.419   9.215  18.117  0.00  0.00    +0.000 OA
BRANCH  19  21
ATOM     21  O   UNL     1      -3.509  10.904  16.563  0.00  0.00    +0.000 OA
BRANCH  21  23
ATOM     22  C   UNL     1      -3.798  10.082  14.299  0.00  0.00    +0.000 C 
ATOM     23  C   UNL     1      -2.853  10.727  15.297  0.00  0.00    +0.000 C 
ENDBRANCH  21  23
ENDBRANCH  19  21
ENDBRANCH   1  19
BRANCH   3  24
ATOM     24  C   UNL     1       1.973   9.777  17.958  0.00  0.00    +0.000 C 
BRANCH  24  25
ATOM     25  C   UNL     1       2.007   8.525  18.818  0.00  0.00    +0.000 A 
ATOM     26  C   UNL     1       2.536   7.308  18.371  0.00  0.00    +0.000 A 
ATOM     27  C   UNL     1       2.439   6.158  19.154  0.00  0.00    +0.000 A 
ATOM     28  C   UNL     1       1.851   6.201  20.416  0.00  0.00    +0.000 A 
ATOM     29  C   UNL     1       1.387   7.419  20.908  0.00  0.00    +0.000 A 
ATOM     30  C   UNL     1       1.467   8.573  20.114  0.00  0.00    +0.000 A 
BRANCH  28  31
ATOM     31  O   UNL     1       1.725   4.986  21.027  0.00  0.00    +0.000 OA
ATOM     32  C   UNL     1       2.514   3.923  20.514  0.00  0.00    +0.000 C 
ENDBRANCH  28  31
ENDBRANCH  24  25
ENDBRANCH   3  24
TORSDOF 8
ENDMDL
MODEL 2
REMARK VINA RESULT:      -7.2      0.649      1.372
REMARK  Name = 
REMARK  11 active torsions:
REMARK  status: ('A' for Active; 'I' for Inactive)
REMARK    1  A    between atoms: C_1  and  C_2
REMARK    2  A    between atoms: C_2  and  O_3
REMARK    3  A    between atoms: O_3  and  C_4
REMARK    4  A    between atoms: C_4  and  C_6
REMARK    5  A    between atoms: N_8  and  C_9
REMARK    6  A    between atoms: C_9  and  C_10
REMARK    7  A    between atoms: C_13  and  O_14
REMARK    8  A    between atoms: O_14  and  C_15
REMARK    9  A    between atoms: C_24  and  C_25
REMARK   10  A    between atoms: C_28  and  O_29
REMARK   11  A    between atoms: O_29  and  C_30
REMARK                            x       y       z     vdW  Elec       q    Type
REMARK                         _______ _______ _______ _____ _____    ______ ____
ROOT
ATOM      1  C   UNL     1      -1.549  10.973  18.284  0.00  0.00    +0.000 C 
ATOM      2  C   UNL     1      -0.440  10.265  18.051  0.00  0.00    +0.000 C 
ATOM      3  N   UNL     1       0.855  10.719  18.278  0.00  0.00    +0.000 N 
ATOM      4  C   UNL     1       1.070  12.041  18.756  0.00  0.00    +0.000 A 
ATOM      5  C   UNL     1       2.344  12.574  19.023  0.00  0.00    +0.000 A 
ATOM      6  C   UNL     1       2.517  13.887  19.480  0.00  0.00    +0.000 A 
ATOM      7  C   UNL     1       1.419  14.710  19.684  0.00  0.00    +0.000 A 
ATOM      8  C   UNL     1       0.145  14.215  19.446  0.00  0.00    +0.000 A 
ATOM      9  C   UNL     1      -0.040  12.887  19.004  0.00  0.00    +0.000 A 
ATOM     10  C   UNL     1      -1.478  12.357  18.874  0.00  0.00    +0.000 C 
ENDROOT
BRANCH  10  11
ATOM     11  C   UNL     1      -2.185  12.406  20.234  0.00  0.00    +0.000 A 
ATOM     12  C   UNL     1      -3.438  13.020  20.366  0.00  0.00    +0.000 A 
ATOM     13  C   UNL     1      -4.042  13.121  21.622  0.00  0.00    +0.000 A 
ATOM     14  C   UNL     1      -3.422  12.591  22.755  0.00  0.00    +0.000 A 
ATOM     15  C   UNL     1      -2.188  11.956  22.627  0.00  0.00    +0.000 A 
ATOM     16  C   UNL     1      -1.574  11.867  21.380  0.00  0.00    +0.000 A 
BRANCH  14  17
ATOM     17  O   UNL     1      -4.083  12.805  23.934  0.00  0.00    +0.000 OA
ATOM     18  C   UNL     1      -3.932  14.098  24.509  0.00  0.00    +0.000 C 
ENDBRANCH  14  17
ENDBRANCH  10  11
BRANCH   1  19
ATOM     19  C   UNL     1      -2.902  10.486  17.942  0.00  0.00    +0.000 C 
ATOM     20  O   UNL     1      -3.296   9.367  18.244  0.00  0.00    +0.000 OA
BRANCH  19  21
ATOM     21  O   UNL     1      -3.594  11.401  17.219  0.00  0.00    +0.000 OA
BRANCH  21  23
ATOM     22  C   UNL     1      -2.979  10.549  15.032  0.00  0.00    +0.000 C 
ATOM     23  C   UNL     1      -4.115  10.909  15.974  0.00  0.00    +0.000 C 
ENDBRANCH  21  23
ENDBRANCH  19  21
ENDBRANCH   1  19
BRANCH   3  24
ATOM     24  C   UNL     1       2.016   9.867  17.937  0.00  0.00    +0.000 C 
BRANCH  24  25
ATOM     25  C   UNL     1       2.028   8.518  18.635  0.00  0.00    +0.000 A 
ATOM     26  C   UNL     1       1.617   8.344  19.962  0.00  0.00    +0.000 A 
ATOM     27  C   UNL     1       1.755   7.109  20.596  0.00  0.00    +0.000 A 
ATOM     28  C   UNL     1       2.270   6.009  19.912  0.00  0.00    +0.000 A 
ATOM     29  C   UNL     1       2.615   6.146  18.569  0.00  0.00    +0.000 A 
ATOM     30  C   UNL     1       2.493   7.392  17.936  0.00  0.00    +0.000 A 
BRANCH  28  31
ATOM     31  O   UNL     1       2.452   4.896  20.681  0.00  0.00    +0.000 OA
ATOM     32  C   UNL     1       1.365   3.986  20.765  0.00  0.00    +0.000 C 
ENDBRANCH  28  31
ENDBRANCH  24  25
ENDBRANCH   3  24
TORSDOF 8
ENDMDL
MODEL 3
REMARK VINA RESULT:      -7.0      0.936      1.135
REMARK  Name = 
REMARK  11 active torsions:
REMARK  status: ('A' for Active; 'I' for Inactive)
REMARK    1  A    between atoms: C_1  and  C_2
REMARK    2  A    between atoms: C_2  and  O_3
REMARK    3  A    between atoms: O_3  and  C_4
REMARK    4  A    between atoms: C_4  and  C_6
REMARK    5  A    between atoms: N_8  and  C_9
REMARK    6  A    between atoms: C_9  and  C_10
REMARK    7  A    between atoms: C_13  and  O_14
REMARK    8  A    between atoms: O_14  and  C_15
REMARK    9  A    between atoms: C_24  and  C_25
REMARK   10  A    between atoms: C_28  and  O_29
REMARK   11  A    between atoms: O_29  and  C_30
REMARK                            x       y       z     vdW  Elec       q    Type
REMARK                         _______ _______ _______ _____ _____    ______ ____
ROOT
ATOM      1  C   UNL     1      -1.632  11.053  18.268  0.00  0.00    +0.000 C 
ATOM      2  C   UNL     1      -0.560  10.302  18.004  0.00  0.00    +0.000 C 
ATOM      3  N   UNL     1       0.758  10.693  18.225  0.00  0.00    +0.000 N 
ATOM      4  C   UNL     1       1.037  11.993  18.728  0.00  0.00    +0.000 A 
ATOM      5  C   UNL     1       2.337  12.462  18.990  0.00  0.00    +0.000 A 
ATOM      6  C   UNL     1       2.575  13.755  19.474  0.00  0.00    +0.000 A 
ATOM      7  C   UNL     1       1.517  14.622  19.710  0.00  0.00    +0.000 A 
ATOM      8  C   UNL     1       0.220  14.190  19.478  0.00  0.00    +0.000 A 
ATOM      9  C   UNL     1      -0.030  12.882  19.009  0.00  0.00    +0.000 A 
ATOM     10  C   UNL     1      -1.492  12.420  18.886  0.00  0.00    +0.000 C 
ENDROOT
BRANCH  10  11
ATOM     11  C   UNL     1      -2.180  12.470  20.256  0.00  0.00    +0.000 A 
ATOM     12  C   UNL     1      -1.587  11.869  21.375  0.00  0.00    +0.000 A 
ATOM     13  C   UNL     1      -2.255  11.859  22.603  0.00  0.00    +0.000 A 
ATOM     14  C   UNL     1      -3.504  12.468  22.740  0.00  0.00    +0.000 A 
ATOM     15  C   UNL     1      -4.087  13.089  21.638  0.00  0.00    +0.000 A 
ATOM     16  C   UNL     1      -3.433  13.089  20.407  0.00  0.00    +0.000 A 
BRANCH  14  17
ATOM     17  O   UNL     1      -4.081  12.339  23.973  0.00  0.00    +0.000 OA
ATOM     18  C   UNL     1      -5.419  12.810  24.089  0.00  0.00    +0.000 C 
ENDBRANCH  14  17
ENDBRANCH  10  11
BRANCH   1  19
ATOM     19  C   UNL     1      -3.009  10.635  17.932  0.00  0.00    +0.000 C 
ATOM     20  O   UNL     1      -3.423   9.501  18.134  0.00  0.00    +0.000 OA
BRANCH  19  21
ATOM     21  O   UNL     1      -3.704  11.636  17.335  0.00  0.00    +0.000 OA
BRANCH  21  23
ATOM     22  C   UNL     1      -5.998  11.987  18.045  0.00  0.00    +0.000 C 
ATOM     23  C   UNL     1      -5.074  11.319  17.041  0.00  0.00    +0.000 C 
ENDBRANCH  21  23
ENDBRANCH  19  21
ENDBRANCH   1  19
BRANCH   3  24
ATOM     24  C   UNL     1       1.875   9.798  17.850  0.00  0.00    +0.000 C 
BRANCH  24  25
ATOM     25  C   UNL     1       1.993   8.551  18.711  0.00  0.00    +0.000 A 
ATOM     26  C   UNL     1       2.543   7.351  18.241  0.00  0.00    +0.000 A 
ATOM     27  C   UNL     1       2.524   6.201  19.031  0.00  0.00    +0.000 A 
ATOM     28  C   UNL     1       1.994   6.229  20.319  0.00  0.00    +0.000 A 
ATOM     29  C   UNL     1       1.511   7.431  20.829  0.00  0.00    +0.000 A 
ATOM     30  C   UNL     1       1.513   8.584  20.030  0.00  0.00    +0.000 A 
BRANCH  28  31
ATOM     31  O   UNL     1       1.940   5.012  20.936  0.00  0.00    +0.000 OA
ATOM     32  C   UNL     1       2.416   3.894  20.201  0.00  0.00    +0.000 C 
ENDBRANCH  28  31
ENDBRANCH  24  25
ENDBRANCH   3  24
TORSDOF 8
ENDMDL
MODEL 4
REMARK VINA RESULT:      -6.8      2.386      7.578
REMARK  Name = 
REMARK  11 active torsions:
REMARK  status: ('A' for Active; 'I' for Inactive)
REMARK    1  A    between atoms: C_1  and  C_2
REMARK    2  A    between atoms: C_2  and  O_3
REMARK    3  A    between atoms: O_3  and  C_4
REMARK    4  A    between atoms: C_4  and  C_6
REMARK    5  A    between atoms: N_8  and  C_9
REMARK    6  A    between atoms: C_9  and  C_10
REMARK    7  A    between atoms: C_13  and  O_14
REMARK    8  A    between atoms: O_14  and  C_15
REMARK    9  A    between atoms: C_24  and  C_25
REMARK   10  A    between atoms: C_28  and  O_29
REMARK   11  A    between atoms: O_29  and  C_30
REMARK                            x       y       z     vdW  Elec       q    Type
REMARK                         _______ _______ _______ _____ _____    ______ ____
ROOT
ATOM      1  C   UNL     1      -0.034  12.406  19.815  0.00  0.00    +0.000 C 
ATOM      2  C   UNL     1      -1.176  12.911  20.290  0.00  0.00    +0.000 C 
ATOM      3  N   UNL     1      -2.446  12.558  19.844  0.00  0.00    +0.000 N 
ATOM      4  C   UNL     1      -2.592  11.625  18.780  0.00  0.00    +0.000 A 
ATOM      5  C   UNL     1      -3.837  11.206  18.279  0.00  0.00    +0.000 A 
ATOM      6  C   UNL     1      -3.941  10.295  17.220  0.00  0.00    +0.000 A 
ATOM      7  C   UNL     1      -2.799   9.775  16.626  0.00  0.00    +0.000 A 
ATOM      8  C   UNL     1      -1.553  10.153  17.104  0.00  0.00    +0.000 A 
ATOM      9  C   UNL     1      -1.439  11.056  18.184  0.00  0.00    +0.000 A 
ATOM     10  C   UNL     1      -0.038  11.343  18.747  0.00  0.00    +0.000 C 
ENDROOT
BRANCH  10  11
ATOM     11  C   UNL     1       0.600  10.048  19.266  0.00  0.00    +0.000 A 
ATOM     12  C   UNL     1       1.507   9.332  18.474  0.00  0.00    +0.000 A 
ATOM     13  C   UNL     1       2.029   8.117  18.927  0.00  0.00    +0.000 A 
ATOM     14  C   UNL     1       1.678   7.615  20.182  0.00  0.00    +0.000 A 
ATOM     15  C   UNL     1       0.797   8.335  20.985  0.00  0.00    +0.000 A 
ATOM     16  C   UNL     1       0.261   9.539  20.532  0.00  0.00    +0.000 A 
BRANCH  14  17
ATOM     17  O   UNL     1       2.206   6.390  20.487  0.00  0.00    +0.000 OA
ATOM     18  C   UNL     1       2.365   5.489  19.398  0.00  0.00    +0.000 C 
ENDBRANCH  14  17
ENDBRANCH  10  11
BRANCH   1  19
ATOM     19  C   UNL     1       1.297  12.876  20.253  0.00  0.00    +0.000 C 
ATOM     20  O   UNL     1       1.576  13.065  21.430  0.00  0.00    +0.000 OA
BRANCH  19  21
ATOM     21  O   UNL     1       2.114  13.116  19.197  0.00  0.00    +0.000 OA
BRANCH  21  23
ATOM     22  C   UNL     1       1.947  15.500  18.776  0.00  0.00    +0.000 C 
ATOM     23  C   UNL     1       2.826  14.362  19.265  0.00  0.00    +0.000 C 
ENDBRANCH  21  23
ENDBRANCH  19  21
ENDBRANCH   1  19
BRANCH   3  24
ATOM     24  C   UNL     1      -3.645  13.218  20.407  0.00  0.00    +0.000 C 
BRANCH  24  25
ATOM     25  C   UNL     1      -3.482  13.692  21.842  0.00  0.00    +0.000 A 
ATOM     26  C   UNL     1      -3.033  14.976  22.173  0.00  0.00    +0.000 A 
ATOM     27  C   UNL     1      -2.789  15.326  23.501  0.00  0.00    +0.000 A 
ATOM     28  C   UNL     1      -3.024  14.419  24.533  0.00  0.00    +0.000 A 
ATOM     29  C   UNL     1      -3.542  13.163  24.228  0.00  0.00    +0.000 A 
ATOM     30  C   UNL     1      -3.771  12.803  22.891  0.00  0.00    +0.000 A 
BRANCH  28  31
ATOM     31  O   UNL     1      -2.641  14.854  25.769  0.00  0.00    +0.000 OA
ATOM     32  C   UNL     1      -1.813  16.007  25.819  0.00  0.00    +0.000 C 
ENDBRANCH  28  31
ENDBRANCH  24  25
ENDBRANCH   3  24
TORSDOF 8
ENDMDL
MODEL 5
REMARK VINA RESULT:      -6.7      2.926      7.765
REMARK  Name = 
REMARK  11 active torsions:
REMARK  status: ('A' for Active; 'I' for Inactive)
REMARK    1  A    between atoms: C_1  and  C_2
REMARK    2  A    between atoms: C_2  and  O_3
REMARK    3  A    between atoms: O_3  and  C_4
REMARK    4  A    between atoms: C_4  and  C_6
REMARK    5  A    between atoms: N_8  and  C_9
REMARK    6  A    between atoms: C_9  and  C_10
REMARK    7  A    between atoms: C_13  and  O_14
REMARK    8  A    between atoms: O_14  and  C_15
REMARK    9  A    between atoms: C_24  and  C_25
REMARK   10  A    between atoms: C_28  and  O_29
REMARK   11  A    between atoms: O_29  and  C_30
REMARK                            x       y       z     vdW  Elec       q    Type
REMARK                         _______ _______ _______ _____ _____    ______ ____
ROOT
ATOM      1  C   UNL     1       0.602  12.443  19.412  0.00  0.00    +0.000 C 
ATOM      2  C   UNL     1      -0.376  13.078  20.062  0.00  0.00    +0.000 C 
ATOM      3  N   UNL     1      -1.734  12.814  19.908  0.00  0.00    +0.000 N 
ATOM      4  C   UNL     1      -2.165  11.834  18.972  0.00  0.00    +0.000 A 
ATOM      5  C   UNL     1      -3.515  11.499  18.764  0.00  0.00    +0.000 A 
ATOM      6  C   UNL     1      -3.902  10.537  17.822  0.00  0.00    +0.000 A 
ATOM      7  C   UNL     1      -2.949   9.879  17.056  0.00  0.00    +0.000 A 
ATOM      8  C   UNL     1      -1.607  10.172  17.245  0.00  0.00    +0.000 A 
ATOM      9  C   UNL     1      -1.206  11.127  18.205  0.00  0.00    +0.000 A 
ATOM     10  C   UNL     1       0.299  11.321  18.453  0.00  0.00    +0.000 C 
ENDROOT
BRANCH  10  11
ATOM     11  C   UNL     1       0.930  10.009  18.936  0.00  0.00    +0.000 A 
ATOM     12  C   UNL     1       1.771   9.268  18.095  0.00  0.00    +0.000 A 
ATOM     13  C   UNL     1       2.284   8.040  18.518  0.00  0.00    +0.000 A 
ATOM     14  C   UNL     1       1.991   7.546  19.791  0.00  0.00    +0.000 A 
ATOM     15  C   UNL     1       1.177   8.289  20.643  0.00  0.00    +0.000 A 
ATOM     16  C   UNL     1       0.649   9.507  20.220  0.00  0.00    +0.000 A 
BRANCH  14  17
ATOM     17  O   UNL     1       2.502   6.307  20.067  0.00  0.00    +0.000 OA
ATOM     18  C   UNL     1       3.566   5.870  19.230  0.00  0.00    +0.000 C 
ENDBRANCH  14  17
ENDBRANCH  10  11
BRANCH   1  19
ATOM     19  C   UNL     1       2.027  12.818  19.537  0.00  0.00    +0.000 C 
ATOM     20  O   UNL     1       2.753  12.985  18.567  0.00  0.00    +0.000 OA
BRANCH  19  21
ATOM     21  O   UNL     1       2.413  12.887  20.836  0.00  0.00    +0.000 OA
BRANCH  21  23
ATOM     22  C   UNL     1       2.278  15.114  21.789  0.00  0.00    +0.000 C 
ATOM     23  C   UNL     1       3.176  14.057  21.171  0.00  0.00    +0.000 C 
ENDBRANCH  21  23
ENDBRANCH  19  21
ENDBRANCH   1  19
BRANCH   3  24
ATOM     24  C   UNL     1      -2.739  13.614  20.644  0.00  0.00    +0.000 C 
BRANCH  24  25
ATOM     25  C   UNL     1      -2.191  14.336  21.864  0.00  0.00    +0.000 A 
ATOM     26  C   UNL     1      -1.687  15.642  21.812  0.00  0.00    +0.000 A 
ATOM     27  C   UNL     1      -1.090  16.221  22.932  0.00  0.00    +0.000 A 
ATOM     28  C   UNL     1      -1.015  15.528  24.139  0.00  0.00    +0.000 A 
ATOM     29  C   UNL     1      -1.577  14.257  24.229  0.00  0.00    +0.000 A 
ATOM     30  C   UNL     1      -2.163  13.667  23.098  0.00  0.00    +0.000 A 
BRANCH  28  31
ATOM     31  O   UNL     1      -0.309  16.168  25.118  0.00  0.00    +0.000 OA
ATOM     32  C   UNL     1      -0.853  16.136  26.429  0.00  0.00    +0.000 C 
ENDBRANCH  28  31
ENDBRANCH  24  25
ENDBRANCH   3  24
TORSDOF 8
ENDMDL
MODEL 6
REMARK VINA RESULT:      -6.7      2.827      7.781
REMARK  Name = 
REMARK  11 active torsions:
REMARK  status: ('A' for Active; 'I' for Inactive)
REMARK    1  A    between atoms: C_1  and  C_2
REMARK    2  A    between atoms: C_2  and  O_3
REMARK    3  A    between atoms: O_3  and  C_4
REMARK    4  A    between atoms: C_4  and  C_6
REMARK    5  A    between atoms: N_8  and  C_9
REMARK    6  A    between atoms: C_9  and  C_10
REMARK    7  A    between atoms: C_13  and  O_14
REMARK    8  A    between atoms: O_14  and  C_15
REMARK    9  A    between atoms: C_24  and  C_25
REMARK   10  A    between atoms: C_28  and  O_29
REMARK   11  A    between atoms: O_29  and  C_30
REMARK                            x       y       z     vdW  Elec       q    Type
REMARK                         _______ _______ _______ _____ _____    ______ ____
ROOT
ATOM      1  C   UNL     1       0.440  12.407  19.545  0.00  0.00    +0.000 C 
ATOM      2  C   UNL     1      -0.595  12.965  20.178  0.00  0.00    +0.000 C 
ATOM      3  N   UNL     1      -1.930  12.644  19.954  0.00  0.00    +0.000 N 
ATOM      4  C   UNL     1      -2.273  11.686  18.960  0.00  0.00    +0.000 A 
ATOM      5  C   UNL     1      -3.595  11.296  18.680  0.00  0.00    +0.000 A 
ATOM      6  C   UNL     1      -3.895  10.358  17.683  0.00  0.00    +0.000 A 
ATOM      7  C   UNL     1      -2.880   9.781  16.933  0.00  0.00    +0.000 A 
ATOM      8  C   UNL     1      -1.562  10.129  17.192  0.00  0.00    +0.000 A 
ATOM      9  C   UNL     1      -1.249  11.059  18.208  0.00  0.00    +0.000 A 
ATOM     10  C   UNL     1       0.233  11.314  18.529  0.00  0.00    +0.000 C 
ENDROOT
BRANCH  10  11
ATOM     11  C   UNL     1       0.908  10.013  18.984  0.00  0.00    +0.000 A 
ATOM     12  C   UNL     1       1.726   9.289  18.107  0.00  0.00    +0.000 A 
ATOM     13  C   UNL     1       2.279   8.070  18.508  0.00  0.00    +0.000 A 
ATOM     14  C   UNL     1       2.048   7.570  19.791  0.00  0.00    +0.000 A 
ATOM     15  C   UNL     1       1.257   8.299  20.677  0.00  0.00    +0.000 A 
ATOM     16  C   UNL     1       0.689   9.507  20.277  0.00  0.00    +0.000 A 
BRANCH  14  17
ATOM     17  O   UNL     1       2.593   6.341  20.044  0.00  0.00    +0.000 OA
ATOM     18  C   UNL     1       1.703   5.356  20.555  0.00  0.00    +0.000 C 
ENDBRANCH  14  17
ENDBRANCH  10  11
BRANCH   1  19
ATOM     19  C   UNL     1       1.838  12.843  19.747  0.00  0.00    +0.000 C 
ATOM     20  O   UNL     1       2.638  12.944  18.827  0.00  0.00    +0.000 OA
BRANCH  19  21
ATOM     21  O   UNL     1       2.112  13.048  21.060  0.00  0.00    +0.000 OA
BRANCH  21  23
ATOM     22  C   UNL     1       1.617  15.241  21.971  0.00  0.00    +0.000 C 
ATOM     23  C   UNL     1       2.672  14.336  21.359  0.00  0.00    +0.000 C 
ENDBRANCH  21  23
ENDBRANCH  19  21
ENDBRANCH   1  19
BRANCH   3  24
ATOM     24  C   UNL     1      -3.003  13.361  20.679  0.00  0.00    +0.000 C 
BRANCH  24  25
ATOM     25  C   UNL     1      -2.516  14.187  21.858  0.00  0.00    +0.000 A 
ATOM     26  C   UNL     1      -2.309  13.646  23.133  0.00  0.00    +0.000 A 
ATOM     27  C   UNL     1      -1.974  14.466  24.210  0.00  0.00    +0.000 A 
ATOM     28  C   UNL     1      -1.800  15.838  24.035  0.00  0.00    +0.000 A 
ATOM     29  C   UNL     1      -1.929  16.382  22.760  0.00  0.00    +0.000 A 
ATOM     30  C   UNL     1      -2.283  15.561  21.679  0.00  0.00    +0.000 A 
BRANCH  28  31
ATOM     31  O   UNL     1      -1.582  16.534  25.190  0.00  0.00    +0.000 OA
ATOM     32  C   UNL     1      -0.939  15.840  26.249  0.00  0.00    +0.000 C 
ENDBRANCH  28  31
ENDBRANCH  24  25
ENDBRANCH   3  24
TORSDOF 8
ENDMDL
MODEL 7
REMARK VINA RESULT:      -6.7      2.496      7.562
REMARK  Name = 
REMARK  11 active torsions:
REMARK  status: ('A' for Active; 'I' for Inactive)
REMARK    1  A    between atoms: C_1  and  C_2
REMARK    2  A    between atoms: C_2  and  O_3
REMARK    3  A    between atoms: O_3  and  C_4
REMARK    4  A    between atoms: C_4  and  C_6
REMARK    5  A    between atoms: N_8  and  C_9
REMARK    6  A    between atoms: C_9  and  C_10
REMARK    7  A    between atoms: C_13  and  O_14
REMARK    8  A    between atoms: O_14  and  C_15
REMARK    9  A    between atoms: C_24  and  C_25
REMARK   10  A    between atoms: C_28  and  O_29
REMARK   11  A    between atoms: O_29  and  C_30
REMARK                            x       y       z     vdW  Elec       q    Type
REMARK                         _______ _______ _______ _____ _____    ______ ____
ROOT
ATOM      1  C   UNL     1       0.131  12.328  19.525  0.00  0.00    +0.000 C 
ATOM      2  C   UNL     1      -0.945  12.829  20.140  0.00  0.00    +0.000 C 
ATOM      3  N   UNL     1      -2.261  12.504  19.827  0.00  0.00    +0.000 N 
ATOM      4  C   UNL     1      -2.537  11.610  18.756  0.00  0.00    +0.000 A 
ATOM      5  C   UNL     1      -3.836  11.221  18.383  0.00  0.00    +0.000 A 
ATOM      6  C   UNL     1      -4.069  10.348  17.312  0.00  0.00    +0.000 A 
ATOM      7  C   UNL     1      -3.007   9.836  16.579  0.00  0.00    +0.000 A 
ATOM      8  C   UNL     1      -1.711  10.184  16.927  0.00  0.00    +0.000 A 
ATOM      9  C   UNL     1      -1.466  11.049  18.017  0.00  0.00    +0.000 A 
ATOM     10  C   UNL     1      -0.006  11.303  18.430  0.00  0.00    +0.000 C 
ENDROOT
BRANCH  10  11
ATOM     11  C   UNL     1       0.667   9.984  18.832  0.00  0.00    +0.000 A 
ATOM     12  C   UNL     1       0.481   9.450  20.114  0.00  0.00    +0.000 A 
ATOM     13  C   UNL     1       1.154   8.286  20.495  0.00  0.00    +0.000 A 
ATOM     14  C   UNL     1       1.997   7.626  19.599  0.00  0.00    +0.000 A 
ATOM     15  C   UNL     1       2.166   8.137  18.315  0.00  0.00    +0.000 A 
ATOM     16  C   UNL     1       1.510   9.306  17.935  0.00  0.00    +0.000 A 
BRANCH  14  17
ATOM     17  O   UNL     1       2.645   6.533  20.108  0.00  0.00    +0.000 OA
ATOM     18  C   UNL     1       1.815   5.502  20.631  0.00  0.00    +0.000 C 
ENDBRANCH  14  17
ENDBRANCH  10  11
BRANCH   1  19
ATOM     19  C   UNL     1       1.508  12.769  19.827  0.00  0.00    +0.000 C 
ATOM     20  O   UNL     1       1.972  12.757  20.960  0.00  0.00    +0.000 OA
BRANCH  19  21
ATOM     21  O   UNL     1       2.140  13.230  18.718  0.00  0.00    +0.000 OA
BRANCH  21  23
ATOM     22  C   UNL     1       3.994  14.681  18.129  0.00  0.00    +0.000 C 
ATOM     23  C   UNL     1       2.655  14.566  18.837  0.00  0.00    +0.000 C 
ENDBRANCH  21  23
ENDBRANCH  19  21
ENDBRANCH   1  19
BRANCH   3  24
ATOM     24  C   UNL     1      -3.381  13.157  20.541  0.00  0.00    +0.000 C 
BRANCH  24  25
ATOM     25  C   UNL     1      -3.039  13.626  21.945  0.00  0.00    +0.000 A 
ATOM     26  C   UNL     1      -3.250  12.838  23.083  0.00  0.00    +0.000 A 
ATOM     27  C   UNL     1      -3.029  13.355  24.360  0.00  0.00    +0.000 A 
ATOM     28  C   UNL     1      -2.555  14.655  24.531  0.00  0.00    +0.000 A 
ATOM     29  C   UNL     1      -2.269  15.427  23.408  0.00  0.00    +0.000 A 
ATOM     30  C   UNL     1      -2.508  14.914  22.124  0.00  0.00    +0.000 A 
BRANCH  28  31
ATOM     31  O   UNL     1      -2.488  15.068  25.831  0.00  0.00    +0.000 OA
ATOM     32  C   UNL     1      -1.397  15.904  26.185  0.00  0.00    +0.000 C 
ENDBRANCH  28  31
ENDBRANCH  24  25
ENDBRANCH   3  24
TORSDOF 8
ENDMDL
MODEL 8
REMARK VINA RESULT:      -6.5      4.011      7.003
REMARK  Name = 
REMARK  11 active torsions:
REMARK  status: ('A' for Active; 'I' for Inactive)
REMARK    1  A    between atoms: C_1  and  C_2
REMARK    2  A    between atoms: C_2  and  O_3
REMARK    3  A    between atoms: O_3  and  C_4
REMARK    4  A    between atoms: C_4  and  C_6
REMARK    5  A    between atoms: N_8  and  C_9
REMARK    6  A    between atoms: C_9  and  C_10
REMARK    7  A    between atoms: C_13  and  O_14
REMARK    8  A    between atoms: O_14  and  C_15
REMARK    9  A    between atoms: C_24  and  C_25
REMARK   10  A    between atoms: C_28  and  O_29
REMARK   11  A    between atoms: O_29  and  C_30
REMARK                            x       y       z     vdW  Elec       q    Type
REMARK                         _______ _______ _______ _____ _____    ______ ____
ROOT
ATOM      1  C   UNL     1      -0.409  13.938  22.145  0.00  0.00    +0.000 C 
ATOM      2  C   UNL     1       0.393  13.771  21.090  0.00  0.00    +0.000 C 
ATOM      3  N   UNL     1       0.793  12.538  20.585  0.00  0.00    +0.000 N 
ATOM      4  C   UNL     1       0.377  11.339  21.227  0.00  0.00    +0.000 A 
ATOM      5  C   UNL     1       0.727  10.053  20.774  0.00  0.00    +0.000 A 
ATOM      6  C   UNL     1       0.309   8.894  21.441  0.00  0.00    +0.000 A 
ATOM      7  C   UNL     1      -0.472   8.985  22.584  0.00  0.00    +0.000 A 
ATOM      8  C   UNL     1      -0.850  10.235  23.052  0.00  0.00    +0.000 A 
ATOM      9  C   UNL     1      -0.449  11.408  22.375  0.00  0.00    +0.000 A 
ATOM     10  C   UNL     1      -0.997  12.756  22.871  0.00  0.00    +0.000 C 
ENDROOT
BRANCH  10  11
ATOM     11  C   UNL     1      -2.529  12.770  22.781  0.00  0.00    +0.000 A 
ATOM     12  C   UNL     1      -3.171  12.732  21.536  0.00  0.00    +0.000 A 
ATOM     13  C   UNL     1      -4.564  12.817  21.461  0.00  0.00    +0.000 A 
ATOM     14  C   UNL     1      -5.335  12.912  22.621  0.00  0.00    +0.000 A 
ATOM     15  C   UNL     1      -4.704  12.924  23.863  0.00  0.00    +0.000 A 
ATOM     16  C   UNL     1      -3.315  12.856  23.943  0.00  0.00    +0.000 A 
BRANCH  14  17
ATOM     17  O   UNL     1      -6.681  13.048  22.416  0.00  0.00    +0.000 OA
ATOM     18  C   UNL     1      -7.222  12.326  21.316  0.00  0.00    +0.000 C 
ENDBRANCH  14  17
ENDBRANCH  10  11
BRANCH   1  19
ATOM     19  C   UNL     1      -0.735  15.267  22.705  0.00  0.00    +0.000 C 
ATOM     20  O   UNL     1      -1.320  16.129  22.062  0.00  0.00    +0.000 OA
BRANCH  19  21
ATOM     21  O   UNL     1      -0.257  15.408  23.967  0.00  0.00    +0.000 OA
BRANCH  21  23
ATOM     22  C   UNL     1      -1.718  15.572  25.897  0.00  0.00    +0.000 C 
ATOM     23  C   UNL     1      -1.000  16.322  24.788  0.00  0.00    +0.000 C 
ENDBRANCH  21  23
ENDBRANCH  19  21
ENDBRANCH   1  19
BRANCH   3  24
ATOM     24  C   UNL     1       1.727  12.468  19.438  0.00  0.00    +0.000 C 
BRANCH  24  25
ATOM     25  C   UNL     1       2.611  13.693  19.276  0.00  0.00    +0.000 A 
ATOM     26  C   UNL     1       3.406  14.200  20.312  0.00  0.00    +0.000 A 
ATOM     27  C   UNL     1       4.111  15.393  20.151  0.00  0.00    +0.000 A 
ATOM     28  C   UNL     1       4.072  16.087  18.944  0.00  0.00    +0.000 A 
ATOM     29  C   UNL     1       3.347  15.559  17.879  0.00  0.00    +0.000 A 
ATOM     30  C   UNL     1       2.623  14.368  18.045  0.00  0.00    +0.000 A 
BRANCH  28  31
ATOM     31  O   UNL     1       4.718  17.290  18.960  0.00  0.00    +0.000 OA
ATOM     32  C   UNL     1       6.009  17.321  19.550  0.00  0.00    +0.000 C 
ENDBRANCH  28  31
ENDBRANCH  24  25
ENDBRANCH   3  24
TORSDOF 8
ENDMDL
MODEL 9
REMARK VINA RESULT:      -6.5      1.209      1.511
REMARK  Name = 
REMARK  11 active torsions:
REMARK  status: ('A' for Active; 'I' for Inactive)
REMARK    1  A    between atoms: C_1  and  C_2
REMARK    2  A    between atoms: C_2  and  O_3
REMARK    3  A    between atoms: O_3  and  C_4
REMARK    4  A    between atoms: C_4  and  C_6
REMARK    5  A    between atoms: N_8  and  C_9
REMARK    6  A    between atoms: C_9  and  C_10
REMARK    7  A    between atoms: C_13  and  O_14
REMARK    8  A    between atoms: O_14  and  C_15
REMARK    9  A    between atoms: C_24  and  C_25
REMARK   10  A    between atoms: C_28  and  O_29
REMARK   11  A    between atoms: O_29  and  C_30
REMARK                            x       y       z     vdW  Elec       q    Type
REMARK                         _______ _______ _______ _____ _____    ______ ____
ROOT
ATOM      1  C   UNL     1      -1.607  10.991  18.485  0.00  0.00    +0.000 C 
ATOM      2  C   UNL     1      -0.543  10.240  18.187  0.00  0.00    +0.000 C 
ATOM      3  N   UNL     1       0.779  10.667  18.267  0.00  0.00    +0.000 N 
ATOM      4  C   UNL     1       1.070  12.006  18.649  0.00  0.00    +0.000 A 
ATOM      5  C   UNL     1       2.377  12.514  18.766  0.00  0.00    +0.000 A 
ATOM      6  C   UNL     1       2.625  13.843  19.132  0.00  0.00    +0.000 A 
ATOM      7  C   UNL     1       1.571  14.708  19.393  0.00  0.00    +0.000 A 
ATOM      8  C   UNL     1       0.269  14.239  19.303  0.00  0.00    +0.000 A 
ATOM      9  C   UNL     1       0.010  12.895  18.953  0.00  0.00    +0.000 A 
ATOM     10  C   UNL     1      -1.446  12.403  18.988  0.00  0.00    +0.000 C 
ENDROOT
BRANCH  10  11
ATOM     11  C   UNL     1      -2.019  12.543  20.404  0.00  0.00    +0.000 A 
ATOM     12  C   UNL     1      -3.046  13.459  20.671  0.00  0.00    +0.000 A 
ATOM     13  C   UNL     1      -3.513  13.629  21.977  0.00  0.00    +0.000 A 
ATOM     14  C   UNL     1      -2.985  12.875  23.027  0.00  0.00    +0.000 A 
ATOM     15  C   UNL     1      -1.982  11.944  22.764  0.00  0.00    +0.000 A 
ATOM     16  C   UNL     1      -1.502  11.781  21.466  0.00  0.00    +0.000 A 
BRANCH  14  17
ATOM     17  O   UNL     1      -3.481  13.175  24.266  0.00  0.00    +0.000 OA
ATOM     18  C   UNL     1      -3.412  14.542  24.652  0.00  0.00    +0.000 C 
ENDBRANCH  14  17
ENDBRANCH  10  11
BRANCH   1  19
ATOM     19  C   UNL     1      -2.997  10.527  18.298  0.00  0.00    +0.000 C 
ATOM     20  O   UNL     1      -3.270   9.419  17.858  0.00  0.00    +0.000 OA
BRANCH  19  21
ATOM     21  O   UNL     1      -3.894  11.495  18.617  0.00  0.00    +0.000 OA
BRANCH  21  23
ATOM     22  C   UNL     1      -5.551  12.238  17.007  0.00  0.00    +0.000 C 
ATOM     23  C   UNL     1      -5.223  11.262  18.124  0.00  0.00    +0.000 C 
ENDBRANCH  21  23
ENDBRANCH  19  21
ENDBRANCH   1  19
BRANCH   3  24
ATOM     24  C   UNL     1       1.881   9.765  17.866  0.00  0.00    +0.000 C 
BRANCH  24  25
ATOM     25  C   UNL     1       2.000   8.509  18.712  0.00  0.00    +0.000 A 
ATOM     26  C   UNL     1       2.500   7.299  18.213  0.00  0.00    +0.000 A 
ATOM     27  C   UNL     1       2.482   6.144  18.994  0.00  0.00    +0.000 A 
ATOM     28  C   UNL     1       2.004   6.174  20.302  0.00  0.00    +0.000 A 
ATOM     29  C   UNL     1       1.572   7.384  20.840  0.00  0.00    +0.000 A 
ATOM     30  C   UNL     1       1.573   8.544  20.049  0.00  0.00    +0.000 A 
BRANCH  28  31
ATOM     31  O   UNL     1       1.943   4.954  20.913  0.00  0.00    +0.000 OA
ATOM     32  C   UNL     1       1.019   4.015  20.384  0.00  0.00    +0.000 C 
ENDBRANCH  28  31
ENDBRANCH  24  25
ENDBRANCH   3  24
TORSDOF 8
ENDMDL
