MODEL 1
REMARK VINA RESULT:      -8.9      0.000      0.000
REMARK  Name = 
REMARK  8 active torsions:
REMARK  status: ('A' for Active; 'I' for Inactive)
REMARK    1  A    between atoms: N_3  and  C_4
REMARK    2  A    between atoms: C_4  and  C_5
REMARK    3  A    between atoms: C_5  and  C_6
REMARK    4  A    between atoms: C_6  and  S_7
REMARK    5  A    between atoms: S_7  and  C_8
REMARK    6  A    between atoms: N_12  and  C_13
REMARK    7  A    between atoms: N_22  and  C_23
REMARK    8  A    between atoms: C_23  and  C_24
REMARK                            x       y       z     vdW  Elec       q    Type
REMARK                         _______ _______ _______ _____ _____    ______ ____
ROOT
ATOM      1  O   UNL     1       7.794   4.948  19.454  0.00  0.00    +0.000 OA
ATOM      2  C   UNL     1       7.878   5.811  18.589  0.00  0.00    +0.000 C 
ATOM      3  N   UNL     1       7.679   5.587  17.260  0.00  0.00    +0.000 N 
ATOM      4  N   UNL     1       8.203   7.100  18.938  0.00  0.00    +0.000 N 
ATOM      5  C   UNL     1       8.245   8.217  18.132  0.00  0.00    +0.000 C 
ATOM      6  O   UNL     1       8.012   8.198  16.925  0.00  0.00    +0.000 OA
ATOM      7  N   UNL     1       8.563   9.362  18.815  0.00  0.00    +0.000 N 
ATOM      8  H   UNL     1       7.641   6.417  16.667  0.00  0.00    +0.000 HD
ATOM      9  H   UNL     1       8.338   7.212  19.928  0.00  0.00    +0.000 HD
ATOM     10  H   UNL     1       8.857   9.312  19.776  0.00  0.00    +0.000 HD
ENDROOT
BRANCH   3  11
ATOM     11  C   UNL     1       7.233   4.327  16.703  0.00  0.00    +0.000 C 
BRANCH  11  12
ATOM     12  C   UNL     1       6.770   4.512  15.257  0.00  0.00    +0.000 C 
BRANCH  12  13
ATOM     13  C   UNL     1       5.248   4.476  15.077  0.00  0.00    +0.000 C 
BRANCH  13  14
ATOM     14  S   UNL     1       4.440   3.922  16.602  0.00  0.00    +0.000 S 
BRANCH  14  15
ATOM     15  C   UNL     1       4.039   5.403  17.405  0.00  0.00    +0.000 A 
ATOM     16  N   UNL     1       4.340   6.610  16.981  0.00  0.00    +0.000 NA
ATOM     17  N   UNL     1       3.640   7.476  17.777  0.00  0.00    +0.000 NA
ATOM     18  N   UNL     1       2.899   6.822  18.661  0.00  0.00    +0.000 NA
ATOM     19  N   UNL     1       3.196   5.504  18.506  0.00  0.00    +0.000 N 
BRANCH  19  20
ATOM     20  C   UNL     1       2.668   4.530  19.395  0.00  0.00    +0.000 A 
ATOM     21  C   UNL     1       1.278   4.433  19.564  0.00  0.00    +0.000 A 
ATOM     22  C   UNL     1       0.740   3.463  20.415  0.00  0.00    +0.000 A 
ATOM     23  C   UNL     1       1.580   2.606  21.122  0.00  0.00    +0.000 A 
ATOM     24  C   UNL     1       2.961   2.719  20.986  0.00  0.00    +0.000 A 
ATOM     25  C   UNL     1       3.505   3.678  20.129  0.00  0.00    +0.000 A 
ENDBRANCH  19  20
ENDBRANCH  14  15
ENDBRANCH  13  14
ENDBRANCH  12  13
ENDBRANCH  11  12
ENDBRANCH   3  11
BRANCH   7  26
ATOM     26  C   UNL     1       8.709  10.633  18.136  0.00  0.00    +0.000 C 
BRANCH  26  27
ATOM     27  C   UNL     1       9.958  11.341  18.592  0.00  0.00    +0.000 A 
ATOM     28  C   UNL     1      10.866  11.851  17.653  0.00  0.00    +0.000 A 
ATOM     29  C   UNL     1      12.046  12.470  18.071  0.00  0.00    +0.000 A 
ATOM     30  C   UNL     1      12.332  12.580  19.430  0.00  0.00    +0.000 A 
ATOM     31  C   UNL     1      11.434  12.082  20.373  0.00  0.00    +0.000 A 
ATOM     32  C   UNL     1      10.253  11.465  19.958  0.00  0.00    +0.000 A 
ENDBRANCH  26  27
ENDBRANCH   7  26
TORSDOF 8
ENDMDL
MODEL 2
REMARK VINA RESULT:      -8.0      3.369     10.246
REMARK  Name = 
REMARK  8 active torsions:
REMARK  status: ('A' for Active; 'I' for Inactive)
REMARK    1  A    between atoms: N_3  and  C_4
REMARK    2  A    between atoms: C_4  and  C_5
REMARK    3  A    between atoms: C_5  and  C_6
REMARK    4  A    between atoms: C_6  and  S_7
REMARK    5  A    between atoms: S_7  and  C_8
REMARK    6  A    between atoms: N_12  and  C_13
REMARK    7  A    between atoms: N_22  and  C_23
REMARK    8  A    between atoms: C_23  and  C_24
REMARK                            x       y       z     vdW  Elec       q    Type
REMARK                         _______ _______ _______ _____ _____    ______ ____
ROOT
ATOM      1  O   UNL     1       7.538   5.888  15.800  0.00  0.00    +0.000 OA
ATOM      2  C   UNL     1       7.101   5.875  16.945  0.00  0.00    +0.000 C 
ATOM      3  N   UNL     1       7.131   6.943  17.790  0.00  0.00    +0.000 N 
ATOM      4  N   UNL     1       6.546   4.724  17.451  0.00  0.00    +0.000 N 
ATOM      5  C   UNL     1       5.917   4.543  18.664  0.00  0.00    +0.000 C 
ATOM      6  O   UNL     1       5.788   5.430  19.506  0.00  0.00    +0.000 OA
ATOM      7  N   UNL     1       5.434   3.272  18.836  0.00  0.00    +0.000 N 
ATOM      8  H   UNL     1       6.609   6.839  18.660  0.00  0.00    +0.000 HD
ATOM      9  H   UNL     1       6.548   3.968  16.790  0.00  0.00    +0.000 HD
ATOM     10  H   UNL     1       5.661   2.551  18.172  0.00  0.00    +0.000 HD
ENDROOT
BRANCH   3  11
ATOM     11  C   UNL     1       7.580   8.267  17.414  0.00  0.00    +0.000 C 
BRANCH  11  12
ATOM     12  C   UNL     1       8.508   8.844  18.484  0.00  0.00    +0.000 C 
BRANCH  12  13
ATOM     13  C   UNL     1       8.811  10.338  18.312  0.00  0.00    +0.000 C 
BRANCH  13  14
ATOM     14  S   UNL     1       9.959  10.905  19.594  0.00  0.00    +0.000 S 
BRANCH  14  15
ATOM     15  C   UNL     1      10.812  12.201  18.825  0.00  0.00    +0.000 A 
ATOM     16  N   UNL     1      11.667  12.074  17.836  0.00  0.00    +0.000 NA
ATOM     17  N   UNL     1      11.917  13.343  17.386  0.00  0.00    +0.000 NA
ATOM     18  N   UNL     1      11.212  14.238  18.064  0.00  0.00    +0.000 NA
ATOM     19  N   UNL     1      10.563  13.552  19.042  0.00  0.00    +0.000 N 
BRANCH  19  20
ATOM     20  C   UNL     1       9.816  14.235  20.038  0.00  0.00    +0.000 A 
ATOM     21  C   UNL     1      10.389  14.452  21.301  0.00  0.00    +0.000 A 
ATOM     22  C   UNL     1       9.678  15.145  22.285  0.00  0.00    +0.000 A 
ATOM     23  C   UNL     1       8.387  15.600  22.029  0.00  0.00    +0.000 A 
ATOM     24  C   UNL     1       7.799  15.359  20.790  0.00  0.00    +0.000 A 
ATOM     25  C   UNL     1       8.507  14.676  19.799  0.00  0.00    +0.000 A 
ENDBRANCH  19  20
ENDBRANCH  14  15
ENDBRANCH  13  14
ENDBRANCH  12  13
ENDBRANCH  11  12
ENDBRANCH   3  11
BRANCH   7  26
ATOM     26  C   UNL     1       4.786   2.867  20.067  0.00  0.00    +0.000 C 
BRANCH  26  27
ATOM     27  C   UNL     1       3.288   2.866  19.906  0.00  0.00    +0.000 A 
ATOM     28  C   UNL     1       2.710   2.552  18.668  0.00  0.00    +0.000 A 
ATOM     29  C   UNL     1       1.324   2.592  18.504  0.00  0.00    +0.000 A 
ATOM     30  C   UNL     1       0.504   2.951  19.572  0.00  0.00    +0.000 A 
ATOM     31  C   UNL     1       1.069   3.260  20.809  0.00  0.00    +0.000 A 
ATOM     32  C   UNL     1       2.453   3.218  20.976  0.00  0.00    +0.000 A 
ENDBRANCH  26  27
ENDBRANCH   7  26
TORSDOF 8
ENDMDL
MODEL 3
REMARK VINA RESULT:      -7.9      1.075      1.611
REMARK  Name = 
REMARK  8 active torsions:
REMARK  status: ('A' for Active; 'I' for Inactive)
REMARK    1  A    between atoms: N_3  and  C_4
REMARK    2  A    between atoms: C_4  and  C_5
REMARK    3  A    between atoms: C_5  and  C_6
REMARK    4  A    between atoms: C_6  and  S_7
REMARK    5  A    between atoms: S_7  and  C_8
REMARK    6  A    between atoms: N_12  and  C_13
REMARK    7  A    between atoms: N_22  and  C_23
REMARK    8  A    between atoms: C_23  and  C_24
REMARK                            x       y       z     vdW  Elec       q    Type
REMARK                         _______ _______ _______ _____ _____    ______ ____
ROOT
ATOM      1  O   UNL     1       8.108   5.355  19.914  0.00  0.00    +0.000 OA
ATOM      2  C   UNL     1       8.075   6.141  18.975  0.00  0.00    +0.000 C 
ATOM      3  N   UNL     1       7.707   5.805  17.707  0.00  0.00    +0.000 N 
ATOM      4  N   UNL     1       8.434   7.453  19.169  0.00  0.00    +0.000 N 
ATOM      5  C   UNL     1       8.366   8.497  18.273  0.00  0.00    +0.000 C 
ATOM      6  O   UNL     1       7.978   8.376  17.112  0.00  0.00    +0.000 OA
ATOM      7  N   UNL     1       8.762   9.695  18.809  0.00  0.00    +0.000 N 
ATOM      8  H   UNL     1       7.588   6.582  17.056  0.00  0.00    +0.000 HD
ATOM      9  H   UNL     1       8.695   7.648  20.120  0.00  0.00    +0.000 HD
ATOM     10  H   UNL     1       9.177   9.725  19.725  0.00  0.00    +0.000 HD
ENDROOT
BRANCH   3  11
ATOM     11  C   UNL     1       7.201   4.505  17.322  0.00  0.00    +0.000 C 
BRANCH  11  12
ATOM     12  C   UNL     1       7.431   4.258  15.830  0.00  0.00    +0.000 C 
BRANCH  12  13
ATOM     13  C   UNL     1       6.436   4.982  14.914  0.00  0.00    +0.000 C 
BRANCH  13  14
ATOM     14  S   UNL     1       4.733   4.542  15.351  0.00  0.00    +0.000 S 
BRANCH  14  15
ATOM     15  C   UNL     1       4.345   5.651  16.623  0.00  0.00    +0.000 A 
ATOM     16  N   UNL     1       4.702   6.915  16.673  0.00  0.00    +0.000 NA
ATOM     17  N   UNL     1       3.997   7.466  17.709  0.00  0.00    +0.000 NA
ATOM     18  N   UNL     1       3.198   6.572  18.275  0.00  0.00    +0.000 NA
ATOM     19  N   UNL     1       3.460   5.386  17.662  0.00  0.00    +0.000 N 
BRANCH  19  20
ATOM     20  C   UNL     1       2.865   4.182  18.124  0.00  0.00    +0.000 A 
ATOM     21  C   UNL     1       3.671   3.052  18.333  0.00  0.00    +0.000 A 
ATOM     22  C   UNL     1       3.107   1.865  18.811  0.00  0.00    +0.000 A 
ATOM     23  C   UNL     1       1.738   1.788  19.056  0.00  0.00    +0.000 A 
ATOM     24  C   UNL     1       0.927   2.894  18.818  0.00  0.00    +0.000 A 
ATOM     25  C   UNL     1       1.485   4.086  18.350  0.00  0.00    +0.000 A 
ENDBRANCH  19  20
ENDBRANCH  14  15
ENDBRANCH  13  14
ENDBRANCH  12  13
ENDBRANCH  11  12
ENDBRANCH   3  11
BRANCH   7  26
ATOM     26  C   UNL     1       8.812  10.903  18.011  0.00  0.00    +0.000 C 
BRANCH  26  27
ATOM     27  C   UNL     1      10.057  11.693  18.317  0.00  0.00    +0.000 A 
ATOM     28  C   UNL     1      10.850  11.364  19.426  0.00  0.00    +0.000 A 
ATOM     29  C   UNL     1      11.981  12.120  19.738  0.00  0.00    +0.000 A 
ATOM     30  C   UNL     1      12.328  13.215  18.948  0.00  0.00    +0.000 A 
ATOM     31  C   UNL     1      11.551  13.547  17.840  0.00  0.00    +0.000 A 
ATOM     32  C   UNL     1      10.421  12.791  17.525  0.00  0.00    +0.000 A 
ENDBRANCH  26  27
ENDBRANCH   7  26
TORSDOF 8
ENDMDL
MODEL 4
REMARK VINA RESULT:      -7.9      4.849      7.959
REMARK  Name = 
REMARK  8 active torsions:
REMARK  status: ('A' for Active; 'I' for Inactive)
REMARK    1  A    between atoms: N_3  and  C_4
REMARK    2  A    between atoms: C_4  and  C_5
REMARK    3  A    between atoms: C_5  and  C_6
REMARK    4  A    between atoms: C_6  and  S_7
REMARK    5  A    between atoms: S_7  and  C_8
REMARK    6  A    between atoms: N_12  and  C_13
REMARK    7  A    between atoms: N_22  and  C_23
REMARK    8  A    between atoms: C_23  and  C_24
REMARK                            x       y       z     vdW  Elec       q    Type
REMARK                         _______ _______ _______ _____ _____    ______ ____
ROOT
ATOM      1  O   UNL     1       2.335   2.850  21.940  0.00  0.00    +0.000 OA
ATOM      2  C   UNL     1       2.372   3.703  21.062  0.00  0.00    +0.000 C 
ATOM      3  N   UNL     1       2.705   3.455  19.765  0.00  0.00    +0.000 N 
ATOM      4  N   UNL     1       2.075   5.009  21.366  0.00  0.00    +0.000 N 
ATOM      5  C   UNL     1       1.964   6.081  20.507  0.00  0.00    +0.000 C 
ATOM      6  O   UNL     1       2.153   6.006  19.294  0.00  0.00    +0.000 OA
ATOM      7  N   UNL     1       1.607   7.244  21.138  0.00  0.00    +0.000 N 
ATOM      8  H   UNL     1       2.560   4.224  19.111  0.00  0.00    +0.000 HD
ATOM      9  H   UNL     1       1.836   5.139  22.334  0.00  0.00    +0.000 HD
ATOM     10  H   UNL     1       1.574   7.284  22.143  0.00  0.00    +0.000 HD
ENDROOT
BRANCH   3  11
ATOM     11  C   UNL     1       2.951   2.134  19.225  0.00  0.00    +0.000 C 
BRANCH  11  12
ATOM     12  C   UNL     1       3.244   2.212  17.726  0.00  0.00    +0.000 C 
BRANCH  12  13
ATOM     13  C   UNL     1       4.494   3.027  17.372  0.00  0.00    +0.000 C 
BRANCH  13  14
ATOM     14  S   UNL     1       4.029   4.645  16.699  0.00  0.00    +0.000 S 
BRANCH  14  15
ATOM     15  C   UNL     1       5.500   5.554  16.786  0.00  0.00    +0.000 A 
ATOM     16  N   UNL     1       5.891   6.283  17.807  0.00  0.00    +0.000 NA
ATOM     17  N   UNL     1       7.192   6.625  17.550  0.00  0.00    +0.000 NA
ATOM     18  N   UNL     1       7.609   6.099  16.407  0.00  0.00    +0.000 NA
ATOM     19  N   UNL     1       6.531   5.482  15.855  0.00  0.00    +0.000 N 
BRANCH  19  20
ATOM     20  C   UNL     1       6.600   4.923  14.551  0.00  0.00    +0.000 A 
ATOM     21  C   UNL     1       7.570   5.394  13.652  0.00  0.00    +0.000 A 
ATOM     22  C   UNL     1       7.669   4.838  12.373  0.00  0.00    +0.000 A 
ATOM     23  C   UNL     1       6.790   3.834  11.973  0.00  0.00    +0.000 A 
ATOM     24  C   UNL     1       5.804   3.386  12.848  0.00  0.00    +0.000 A 
ATOM     25  C   UNL     1       5.705   3.930  14.131  0.00  0.00    +0.000 A 
ENDBRANCH  19  20
ENDBRANCH  14  15
ENDBRANCH  13  14
ENDBRANCH  12  13
ENDBRANCH  11  12
ENDBRANCH   3  11
BRANCH   7  26
ATOM     26  C   UNL     1       1.490   8.494  20.416  0.00  0.00    +0.000 C 
BRANCH  26  27
ATOM     27  C   UNL     1       0.627   9.469  21.173  0.00  0.00    +0.000 A 
ATOM     28  C   UNL     1       0.236   9.193  22.491  0.00  0.00    +0.000 A 
ATOM     29  C   UNL     1      -0.599  10.074  23.182  0.00  0.00    +0.000 A 
ATOM     30  C   UNL     1      -1.056  11.234  22.560  0.00  0.00    +0.000 A 
ATOM     31  C   UNL     1      -0.669  11.521  21.252  0.00  0.00    +0.000 A 
ATOM     32  C   UNL     1       0.167  10.644  20.560  0.00  0.00    +0.000 A 
ENDBRANCH  26  27
ENDBRANCH   7  26
TORSDOF 8
ENDMDL
MODEL 5
REMARK VINA RESULT:      -7.9      4.590      6.809
REMARK  Name = 
REMARK  8 active torsions:
REMARK  status: ('A' for Active; 'I' for Inactive)
REMARK    1  A    between atoms: N_3  and  C_4
REMARK    2  A    between atoms: C_4  and  C_5
REMARK    3  A    between atoms: C_5  and  C_6
REMARK    4  A    between atoms: C_6  and  S_7
REMARK    5  A    between atoms: S_7  and  C_8
REMARK    6  A    between atoms: N_12  and  C_13
REMARK    7  A    between atoms: N_22  and  C_23
REMARK    8  A    between atoms: C_23  and  C_24
REMARK                            x       y       z     vdW  Elec       q    Type
REMARK                         _______ _______ _______ _____ _____    ______ ____
ROOT
ATOM      1  O   UNL     1       8.015   4.409  18.326  0.00  0.00    +0.000 OA
ATOM      2  C   UNL     1       7.243   4.424  17.375  0.00  0.00    +0.000 C 
ATOM      3  N   UNL     1       5.898   4.234  17.475  0.00  0.00    +0.000 N 
ATOM      4  N   UNL     1       7.727   4.632  16.106  0.00  0.00    +0.000 N 
ATOM      5  C   UNL     1       7.015   4.782  14.936  0.00  0.00    +0.000 C 
ATOM      6  O   UNL     1       5.788   4.720  14.870  0.00  0.00    +0.000 OA
ATOM      7  N   UNL     1       7.812   5.024  13.847  0.00  0.00    +0.000 N 
ATOM      8  H   UNL     1       5.357   4.411  16.628  0.00  0.00    +0.000 HD
ATOM      9  H   UNL     1       8.723   4.767  16.086  0.00  0.00    +0.000 HD
ATOM     10  H   UNL     1       8.812   4.954  13.928  0.00  0.00    +0.000 HD
ENDROOT
BRANCH   3  11
ATOM     11  C   UNL     1       5.185   4.101  18.728  0.00  0.00    +0.000 C 
BRANCH  11  12
ATOM     12  C   UNL     1       4.922   5.475  19.346  0.00  0.00    +0.000 C 
BRANCH  12  13
ATOM     13  C   UNL     1       4.676   6.588  18.320  0.00  0.00    +0.000 C 
BRANCH  13  14
ATOM     14  S   UNL     1       2.907   6.740  17.959  0.00  0.00    +0.000 S 
BRANCH  14  15
ATOM     15  C   UNL     1       2.221   7.178  19.487  0.00  0.00    +0.000 A 
ATOM     16  N   UNL     1       2.003   8.404  19.906  0.00  0.00    +0.000 NA
ATOM     17  N   UNL     1       1.246   8.287  21.041  0.00  0.00    +0.000 NA
ATOM     18  N   UNL     1       0.976   7.017  21.308  0.00  0.00    +0.000 NA
ATOM     19  N   UNL     1       1.653   6.281  20.386  0.00  0.00    +0.000 N 
BRANCH  19  20
ATOM     20  C   UNL     1       1.686   4.864  20.467  0.00  0.00    +0.000 A 
ATOM     21  C   UNL     1       1.072   4.102  19.461  0.00  0.00    +0.000 A 
ATOM     22  C   UNL     1       1.117   2.705  19.512  0.00  0.00    +0.000 A 
ATOM     23  C   UNL     1       1.746   2.061  20.575  0.00  0.00    +0.000 A 
ATOM     24  C   UNL     1       2.328   2.810  21.594  0.00  0.00    +0.000 A 
ATOM     25  C   UNL     1       2.296   4.206  21.545  0.00  0.00    +0.000 A 
ENDBRANCH  19  20
ENDBRANCH  14  15
ENDBRANCH  13  14
ENDBRANCH  12  13
ENDBRANCH  11  12
ENDBRANCH   3  11
BRANCH   7  26
ATOM     26  C   UNL     1       7.256   5.160  12.516  0.00  0.00    +0.000 C 
BRANCH  26  27
ATOM     27  C   UNL     1       6.800   3.824  11.989  0.00  0.00    +0.000 A 
ATOM     28  C   UNL     1       5.434   3.512  11.938  0.00  0.00    +0.000 A 
ATOM     29  C   UNL     1       5.010   2.259  11.491  0.00  0.00    +0.000 A 
ATOM     30  C   UNL     1       5.946   1.305  11.097  0.00  0.00    +0.000 A 
ATOM     31  C   UNL     1       7.306   1.606  11.139  0.00  0.00    +0.000 A 
ATOM     32  C   UNL     1       7.733   2.858  11.583  0.00  0.00    +0.000 A 
ENDBRANCH  26  27
ENDBRANCH   7  26
TORSDOF 8
ENDMDL
MODEL 6
REMARK VINA RESULT:      -7.8      1.537      2.260
REMARK  Name = 
REMARK  8 active torsions:
REMARK  status: ('A' for Active; 'I' for Inactive)
REMARK    1  A    between atoms: N_3  and  C_4
REMARK    2  A    between atoms: C_4  and  C_5
REMARK    3  A    between atoms: C_5  and  C_6
REMARK    4  A    between atoms: C_6  and  S_7
REMARK    5  A    between atoms: S_7  and  C_8
REMARK    6  A    between atoms: N_12  and  C_13
REMARK    7  A    between atoms: N_22  and  C_23
REMARK    8  A    between atoms: C_23  and  C_24
REMARK                            x       y       z     vdW  Elec       q    Type
REMARK                         _______ _______ _______ _____ _____    ______ ____
ROOT
ATOM      1  O   UNL     1       7.367   7.434  16.692  0.00  0.00    +0.000 OA
ATOM      2  C   UNL     1       7.872   7.944  17.685  0.00  0.00    +0.000 C 
ATOM      3  N   UNL     1       8.190   7.261  18.820  0.00  0.00    +0.000 N 
ATOM      4  N   UNL     1       8.142   9.290  17.699  0.00  0.00    +0.000 N 
ATOM      5  C   UNL     1       8.793  10.019  18.670  0.00  0.00    +0.000 C 
ATOM      6  O   UNL     1       9.216   9.536  19.719  0.00  0.00    +0.000 OA
ATOM      7  N   UNL     1       8.937  11.343  18.345  0.00  0.00    +0.000 N 
ATOM      8  H   UNL     1       8.733   7.776  19.514  0.00  0.00    +0.000 HD
ATOM      9  H   UNL     1       7.891   9.747  16.839  0.00  0.00    +0.000 HD
ATOM     10  H   UNL     1       8.478  11.716  17.531  0.00  0.00    +0.000 HD
ENDROOT
BRANCH   3  11
ATOM     11  C   UNL     1       8.078   5.825  18.967  0.00  0.00    +0.000 C 
BRANCH  11  12
ATOM     12  C   UNL     1       7.324   5.221  17.781  0.00  0.00    +0.000 C 
BRANCH  12  13
ATOM     13  C   UNL     1       6.120   4.358  18.177  0.00  0.00    +0.000 C 
BRANCH  13  14
ATOM     14  S   UNL     1       4.761   4.584  16.999  0.00  0.00    +0.000 S 
BRANCH  14  15
ATOM     15  C   UNL     1       3.930   5.976  17.607  0.00  0.00    +0.000 A 
ATOM     16  N   UNL     1       4.106   7.212  17.199  0.00  0.00    +0.000 NA
ATOM     17  N   UNL     1       3.098   7.945  17.766  0.00  0.00    +0.000 NA
ATOM     18  N   UNL     1       2.296   7.176  18.489  0.00  0.00    +0.000 NA
ATOM     19  N   UNL     1       2.846   5.933  18.478  0.00  0.00    +0.000 N 
BRANCH  19  20
ATOM     20  C   UNL     1       2.303   4.889  19.273  0.00  0.00    +0.000 A 
ATOM     21  C   UNL     1       1.482   3.923  18.672  0.00  0.00    +0.000 A 
ATOM     22  C   UNL     1       0.959   2.873  19.434  0.00  0.00    +0.000 A 
ATOM     23  C   UNL     1       1.226   2.796  20.799  0.00  0.00    +0.000 A 
ATOM     24  C   UNL     1       2.011   3.770  21.409  0.00  0.00    +0.000 A 
ATOM     25  C   UNL     1       2.546   4.816  20.651  0.00  0.00    +0.000 A 
ENDBRANCH  19  20
ENDBRANCH  14  15
ENDBRANCH  13  14
ENDBRANCH  12  13
ENDBRANCH  11  12
ENDBRANCH   3  11
BRANCH   7  26
ATOM     26  C   UNL     1       9.549  12.287  19.258  0.00  0.00    +0.000 C 
BRANCH  26  27
ATOM     27  C   UNL     1      10.543  13.160  18.538  0.00  0.00    +0.000 A 
ATOM     28  C   UNL     1      11.059  14.306  19.160  0.00  0.00    +0.000 A 
ATOM     29  C   UNL     1      11.947  15.141  18.480  0.00  0.00    +0.000 A 
ATOM     30  C   UNL     1      12.324  14.843  17.172  0.00  0.00    +0.000 A 
ATOM     31  C   UNL     1      11.821  13.703  16.546  0.00  0.00    +0.000 A 
ATOM     32  C   UNL     1      10.935  12.865  17.224  0.00  0.00    +0.000 A 
ENDBRANCH  26  27
ENDBRANCH   7  26
TORSDOF 8
ENDMDL
MODEL 7
REMARK VINA RESULT:      -7.6      3.943      7.677
REMARK  Name = 
REMARK  8 active torsions:
REMARK  status: ('A' for Active; 'I' for Inactive)
REMARK    1  A    between atoms: N_3  and  C_4
REMARK    2  A    between atoms: C_4  and  C_5
REMARK    3  A    between atoms: C_5  and  C_6
REMARK    4  A    between atoms: C_6  and  S_7
REMARK    5  A    between atoms: S_7  and  C_8
REMARK    6  A    between atoms: N_12  and  C_13
REMARK    7  A    between atoms: N_22  and  C_23
REMARK    8  A    between atoms: C_23  and  C_24
REMARK                            x       y       z     vdW  Elec       q    Type
REMARK                         _______ _______ _______ _____ _____    ______ ____
ROOT
ATOM      1  O   UNL     1       2.034   2.824  21.570  0.00  0.00    +0.000 OA
ATOM      2  C   UNL     1       2.397   3.803  20.930  0.00  0.00    +0.000 C 
ATOM      3  N   UNL     1       3.318   3.766  19.927  0.00  0.00    +0.000 N 
ATOM      4  N   UNL     1       1.874   5.040  21.219  0.00  0.00    +0.000 N 
ATOM      5  C   UNL     1       2.078   6.229  20.553  0.00  0.00    +0.000 C 
ATOM      6  O   UNL     1       2.817   6.348  19.576  0.00  0.00    +0.000 OA
ATOM      7  N   UNL     1       1.362   7.273  21.080  0.00  0.00    +0.000 N 
ATOM      8  H   UNL     1       3.424   4.624  19.385  0.00  0.00    +0.000 HD
ATOM      9  H   UNL     1       1.200   5.014  21.964  0.00  0.00    +0.000 HD
ATOM     10  H   UNL     1       0.861   7.155  21.944  0.00  0.00    +0.000 HD
ENDROOT
BRANCH   3  11
ATOM     11  C   UNL     1       3.908   2.551  19.407  0.00  0.00    +0.000 C 
BRANCH  11  12
ATOM     12  C   UNL     1       4.117   2.658  17.895  0.00  0.00    +0.000 C 
BRANCH  12  13
ATOM     13  C   UNL     1       3.160   3.632  17.198  0.00  0.00    +0.000 C 
BRANCH  13  14
ATOM     14  S   UNL     1       3.974   5.225  16.905  0.00  0.00    +0.000 S 
BRANCH  14  15
ATOM     15  C   UNL     1       5.316   4.809  15.893  0.00  0.00    +0.000 A 
ATOM     16  N   UNL     1       5.257   4.077  14.804  0.00  0.00    +0.000 NA
ATOM     17  N   UNL     1       6.480   4.198  14.200  0.00  0.00    +0.000 NA
ATOM     18  N   UNL     1       7.274   5.009  14.885  0.00  0.00    +0.000 NA
ATOM     19  N   UNL     1       6.594   5.347  16.012  0.00  0.00    +0.000 N 
BRANCH  19  20
ATOM     20  C   UNL     1       7.216   6.108  17.037  0.00  0.00    +0.000 A 
ATOM     21  C   UNL     1       7.582   5.477  18.236  0.00  0.00    +0.000 A 
ATOM     22  C   UNL     1       8.218   6.205  19.247  0.00  0.00    +0.000 A 
ATOM     23  C   UNL     1       8.468   7.565  19.081  0.00  0.00    +0.000 A 
ATOM     24  C   UNL     1       8.076   8.205  17.908  0.00  0.00    +0.000 A 
ATOM     25  C   UNL     1       7.450   7.482  16.890  0.00  0.00    +0.000 A 
ENDBRANCH  19  20
ENDBRANCH  14  15
ENDBRANCH  13  14
ENDBRANCH  12  13
ENDBRANCH  11  12
ENDBRANCH   3  11
BRANCH   7  26
ATOM     26  C   UNL     1       1.480   8.617  20.552  0.00  0.00    +0.000 C 
BRANCH  26  27
ATOM     27  C   UNL     1       0.530   9.551  21.254  0.00  0.00    +0.000 A 
ATOM     28  C   UNL     1       0.082  10.716  20.615  0.00  0.00    +0.000 A 
ATOM     29  C   UNL     1      -0.765  11.607  21.278  0.00  0.00    +0.000 A 
ATOM     30  C   UNL     1      -1.166  11.345  22.586  0.00  0.00    +0.000 A 
ATOM     31  C   UNL     1      -0.731  10.187  23.229  0.00  0.00    +0.000 A 
ATOM     32  C   UNL     1       0.113   9.294  22.568  0.00  0.00    +0.000 A 
ENDBRANCH  26  27
ENDBRANCH   7  26
TORSDOF 8
ENDMDL
MODEL 8
REMARK VINA RESULT:      -7.6      4.731      7.963
REMARK  Name = 
REMARK  8 active torsions:
REMARK  status: ('A' for Active; 'I' for Inactive)
REMARK    1  A    between atoms: N_3  and  C_4
REMARK    2  A    between atoms: C_4  and  C_5
REMARK    3  A    between atoms: C_5  and  C_6
REMARK    4  A    between atoms: C_6  and  S_7
REMARK    5  A    between atoms: S_7  and  C_8
REMARK    6  A    between atoms: N_12  and  C_13
REMARK    7  A    between atoms: N_22  and  C_23
REMARK    8  A    between atoms: C_23  and  C_24
REMARK                            x       y       z     vdW  Elec       q    Type
REMARK                         _______ _______ _______ _____ _____    ______ ____
ROOT
ATOM      1  O   UNL     1       1.437   3.293  21.071  0.00  0.00    +0.000 OA
ATOM      2  C   UNL     1       1.996   4.285  20.619  0.00  0.00    +0.000 C 
ATOM      3  N   UNL     1       3.105   4.247  19.827  0.00  0.00    +0.000 N 
ATOM      4  N   UNL     1       1.512   5.536  20.914  0.00  0.00    +0.000 N 
ATOM      5  C   UNL     1       1.936   6.752  20.424  0.00  0.00    +0.000 C 
ATOM      6  O   UNL     1       2.872   6.883  19.637  0.00  0.00    +0.000 OA
ATOM      7  N   UNL     1       1.199   7.809  20.892  0.00  0.00    +0.000 N 
ATOM      8  H   UNL     1       3.383   5.134  19.406  0.00  0.00    +0.000 HD
ATOM      9  H   UNL     1       0.695   5.509  21.498  0.00  0.00    +0.000 HD
ATOM     10  H   UNL     1       0.519   7.667  21.620  0.00  0.00    +0.000 HD
ENDROOT
BRANCH   3  11
ATOM     11  C   UNL     1       3.705   3.030  19.323  0.00  0.00    +0.000 C 
BRANCH  11  12
ATOM     12  C   UNL     1       4.315   3.264  17.940  0.00  0.00    +0.000 C 
BRANCH  12  13
ATOM     13  C   UNL     1       3.542   4.268  17.076  0.00  0.00    +0.000 C 
BRANCH  13  14
ATOM     14  S   UNL     1       4.479   5.810  16.900  0.00  0.00    +0.000 S 
BRANCH  14  15
ATOM     15  C   UNL     1       6.105   5.335  17.259  0.00  0.00    +0.000 A 
ATOM     16  N   UNL     1       6.656   5.328  18.451  0.00  0.00    +0.000 NA
ATOM     17  N   UNL     1       7.849   4.670  18.313  0.00  0.00    +0.000 NA
ATOM     18  N   UNL     1       8.024   4.253  17.067  0.00  0.00    +0.000 NA
ATOM     19  N   UNL     1       6.972   4.734  16.352  0.00  0.00    +0.000 N 
BRANCH  19  20
ATOM     20  C   UNL     1       6.919   4.579  14.941  0.00  0.00    +0.000 A 
ATOM     21  C   UNL     1       5.986   3.694  14.381  0.00  0.00    +0.000 A 
ATOM     22  C   UNL     1       5.902   3.548  12.993  0.00  0.00    +0.000 A 
ATOM     23  C   UNL     1       6.762   4.258  12.159  0.00  0.00    +0.000 A 
ATOM     24  C   UNL     1       7.714   5.113  12.709  0.00  0.00    +0.000 A 
ATOM     25  C   UNL     1       7.796   5.272  14.095  0.00  0.00    +0.000 A 
ENDBRANCH  19  20
ENDBRANCH  14  15
ENDBRANCH  13  14
ENDBRANCH  12  13
ENDBRANCH  11  12
ENDBRANCH   3  11
BRANCH   7  26
ATOM     26  C   UNL     1       1.521   9.175  20.535  0.00  0.00    +0.000 C 
BRANCH  26  27
ATOM     27  C   UNL     1       0.401   9.798  19.744  0.00  0.00    +0.000 A 
ATOM     28  C   UNL     1      -0.539  10.624  20.378  0.00  0.00    +0.000 A 
ATOM     29  C   UNL     1      -1.604  11.169  19.657  0.00  0.00    +0.000 A 
ATOM     30  C   UNL     1      -1.742  10.889  18.299  0.00  0.00    +0.000 A 
ATOM     31  C   UNL     1      -0.811  10.074  17.658  0.00  0.00    +0.000 A 
ATOM     32  C   UNL     1       0.255   9.531  18.375  0.00  0.00    +0.000 A 
ENDBRANCH  26  27
ENDBRANCH   7  26
TORSDOF 8
ENDMDL
MODEL 9
REMARK VINA RESULT:      -7.6     10.206     12.716
REMARK  Name = 
REMARK  8 active torsions:
REMARK  status: ('A' for Active; 'I' for Inactive)
REMARK    1  A    between atoms: N_3  and  C_4
REMARK    2  A    between atoms: C_4  and  C_5
REMARK    3  A    between atoms: C_5  and  C_6
REMARK    4  A    between atoms: C_6  and  S_7
REMARK    5  A    between atoms: S_7  and  C_8
REMARK    6  A    between atoms: N_12  and  C_13
REMARK    7  A    between atoms: N_22  and  C_23
REMARK    8  A    between atoms: C_23  and  C_24
REMARK                            x       y       z     vdW  Elec       q    Type
REMARK                         _______ _______ _______ _____ _____    ______ ____
ROOT
ATOM      1  O   UNL     1      -3.906  10.968  15.510  0.00  0.00    +0.000 OA
ATOM      2  C   UNL     1      -3.585  11.485  16.573  0.00  0.00    +0.000 C 
ATOM      3  N   UNL     1      -4.442  12.167  17.384  0.00  0.00    +0.000 N 
ATOM      4  N   UNL     1      -2.284  11.404  17.007  0.00  0.00    +0.000 N 
ATOM      5  C   UNL     1      -1.758  11.828  18.208  0.00  0.00    +0.000 C 
ATOM      6  O   UNL     1      -2.417  12.389  19.083  0.00  0.00    +0.000 OA
ATOM      7  N   UNL     1      -0.422  11.550  18.340  0.00  0.00    +0.000 N 
ATOM      8  H   UNL     1      -4.079  12.424  18.302  0.00  0.00    +0.000 HD
ATOM      9  H   UNL     1      -1.694  10.892  16.375  0.00  0.00    +0.000 HD
ATOM     10  H   UNL     1       0.099  11.195  17.556  0.00  0.00    +0.000 HD
ENDROOT
BRANCH   3  11
ATOM     11  C   UNL     1      -5.867  12.277  17.155  0.00  0.00    +0.000 C 
BRANCH  11  12
ATOM     12  C   UNL     1      -6.647  11.622  18.295  0.00  0.00    +0.000 C 
BRANCH  12  13
ATOM     13  C   UNL     1      -5.910  11.619  19.640  0.00  0.00    +0.000 C 
BRANCH  13  14
ATOM     14  S   UNL     1      -6.201  13.173  20.527  0.00  0.00    +0.000 S 
BRANCH  14  15
ATOM     15  C   UNL     1      -6.549  12.654  22.142  0.00  0.00    +0.000 A 
ATOM     16  N   UNL     1      -7.533  11.859  22.496  0.00  0.00    +0.000 NA
ATOM     17  N   UNL     1      -7.298  11.526  23.804  0.00  0.00    +0.000 NA
ATOM     18  N   UNL     1      -6.178  12.081  24.246  0.00  0.00    +0.000 NA
ATOM     19  N   UNL     1      -5.722  12.874  23.239  0.00  0.00    +0.000 N 
BRANCH  19  20
ATOM     20  C   UNL     1      -4.600  13.722  23.432  0.00  0.00    +0.000 A 
ATOM     21  C   UNL     1      -3.354  13.155  23.744  0.00  0.00    +0.000 A 
ATOM     22  C   UNL     1      -2.233  13.973  23.913  0.00  0.00    +0.000 A 
ATOM     23  C   UNL     1      -2.350  15.356  23.800  0.00  0.00    +0.000 A 
ATOM     24  C   UNL     1      -3.589  15.928  23.524  0.00  0.00    +0.000 A 
ATOM     25  C   UNL     1      -4.712  15.116  23.344  0.00  0.00    +0.000 A 
ENDBRANCH  19  20
ENDBRANCH  14  15
ENDBRANCH  13  14
ENDBRANCH  12  13
ENDBRANCH  11  12
ENDBRANCH   3  11
BRANCH   7  26
ATOM     26  C   UNL     1       0.326  11.963  19.510  0.00  0.00    +0.000 C 
BRANCH  26  27
ATOM     27  C   UNL     1       0.110  11.001  20.648  0.00  0.00    +0.000 A 
ATOM     28  C   UNL     1       0.378   9.634  20.481  0.00  0.00    +0.000 A 
ATOM     29  C   UNL     1       0.138   8.733  21.520  0.00  0.00    +0.000 A 
ATOM     30  C   UNL     1      -0.377   9.187  22.733  0.00  0.00    +0.000 A 
ATOM     31  C   UNL     1      -0.641  10.544  22.912  0.00  0.00    +0.000 A 
ATOM     32  C   UNL     1      -0.400  11.447  21.876  0.00  0.00    +0.000 A 
ENDBRANCH  26  27
ENDBRANCH   7  26
TORSDOF 8
ENDMDL
