MODEL 1
REMARK VINA RESULT:      -6.9      0.000      0.000
REMARK  Name = 
REMARK  4 active torsions:
REMARK  status: ('A' for Active; 'I' for Inactive)
REMARK    1  A    between atoms: C_1  and  C_2
REMARK    2  A    between atoms: C_11  and  C_12
REMARK    3  A    between atoms: C_13  and  C_14
REMARK    4  A    between atoms: C_13  and  C_16
REMARK                            x       y       z     vdW  Elec       q    Type
REMARK                         _______ _______ _______ _____ _____    ______ ____
ROOT
ATOM      1  C   UNL     1       5.473   3.655  15.845  0.00  0.00    +0.000 C 
ATOM      2  C   UNL     1       4.432   4.370  16.705  0.00  0.00    +0.000 C 
ATOM      3  N   UNL     1       3.371   3.411  17.020  0.00  0.00    +0.000 N 
ATOM      4  C   UNL     1       2.672   3.574  18.215  0.00  0.00    +0.000 A 
ATOM      5  C   UNL     1       1.583   2.729  18.479  0.00  0.00    +0.000 A 
ATOM      6  C   UNL     1       0.778   2.924  19.600  0.00  0.00    +0.000 A 
ATOM      7  C   UNL     1       1.031   3.988  20.460  0.00  0.00    +0.000 A 
ATOM      8  C   UNL     1       2.105   4.845  20.207  0.00  0.00    +0.000 A 
ATOM      9  C   UNL     1       2.954   4.632  19.110  0.00  0.00    +0.000 A 
ATOM     10  N   UNL     1       3.999   5.558  18.866  0.00  0.00    +0.000 N 
ATOM     11  C   UNL     1       5.053   5.027  17.989  0.00  0.00    +0.000 C 
ATOM     12  H   UNL     1       3.405   2.478  16.629  0.00  0.00    +0.000 HD
ATOM     13  H   UNL     1       4.342   5.944  19.742  0.00  0.00    +0.000 HD
ENDROOT
BRANCH  11  14
ATOM     14  C   UNL     1       5.886   6.247  17.655  0.00  0.00    +0.000 C 
ATOM     15  C   UNL     1       7.084   6.620  18.147  0.00  0.00    +0.000 C 
BRANCH  15  16
ATOM     16  C   UNL     1       7.808   5.843  19.092  0.00  0.00    +0.000 C 
ATOM     17  N   UNL     1       8.403   5.199  19.851  0.00  0.00    +0.000 NA
ENDBRANCH  15  16
BRANCH  15  18
ATOM     18  C   UNL     1       7.661   7.851  17.713  0.00  0.00    +0.000 C 
ATOM     19  N   UNL     1       8.142   8.853  17.383  0.00  0.00    +0.000 NA
ENDBRANCH  15  18
ENDBRANCH  11  14
TORSDOF 3
ENDMDL
MODEL 2
REMARK VINA RESULT:      -6.7      2.281      3.413
REMARK  Name = 
REMARK  4 active torsions:
REMARK  status: ('A' for Active; 'I' for Inactive)
REMARK    1  A    between atoms: C_1  and  C_2
REMARK    2  A    between atoms: C_11  and  C_12
REMARK    3  A    between atoms: C_13  and  C_14
REMARK    4  A    between atoms: C_13  and  C_16
REMARK                            x       y       z     vdW  Elec       q    Type
REMARK                         _______ _______ _______ _____ _____    ______ ____
ROOT
ATOM      1  C   UNL     1       3.532   1.727  17.984  0.00  0.00    +0.000 C 
ATOM      2  C   UNL     1       3.025   3.160  17.821  0.00  0.00    +0.000 C 
ATOM      3  N   UNL     1       2.305   3.526  19.043  0.00  0.00    +0.000 N 
ATOM      4  C   UNL     1       2.286   4.869  19.417  0.00  0.00    +0.000 A 
ATOM      5  C   UNL     1       1.512   5.249  20.523  0.00  0.00    +0.000 A 
ATOM      6  C   UNL     1       1.362   6.591  20.869  0.00  0.00    +0.000 A 
ATOM      7  C   UNL     1       1.962   7.578  20.093  0.00  0.00    +0.000 A 
ATOM      8  C   UNL     1       2.729   7.218  18.983  0.00  0.00    +0.000 A 
ATOM      9  C   UNL     1       2.929   5.869  18.652  0.00  0.00    +0.000 A 
ATOM     10  N   UNL     1       3.672   5.556  17.486  0.00  0.00    +0.000 N 
ATOM     11  C   UNL     1       4.173   4.173  17.470  0.00  0.00    +0.000 C 
ATOM     12  H   UNL     1       2.182   2.841  19.777  0.00  0.00    +0.000 HD
ATOM     13  H   UNL     1       4.388   6.260  17.322  0.00  0.00    +0.000 HD
ENDROOT
BRANCH  11  14
ATOM     14  C   UNL     1       4.675   3.993  16.053  0.00  0.00    +0.000 C 
ATOM     15  C   UNL     1       5.934   4.077  15.578  0.00  0.00    +0.000 C 
BRANCH  15  16
ATOM     16  C   UNL     1       7.059   4.329  16.411  0.00  0.00    +0.000 C 
ATOM     17  N   UNL     1       7.970   4.524  17.102  0.00  0.00    +0.000 NA
ENDBRANCH  15  16
BRANCH  15  18
ATOM     18  C   UNL     1       6.161   3.914  14.179  0.00  0.00    +0.000 C 
ATOM     19  N   UNL     1       6.360   3.759  13.047  0.00  0.00    +0.000 NA
ENDBRANCH  15  18
ENDBRANCH  11  14
TORSDOF 3
ENDMDL
MODEL 3
REMARK VINA RESULT:      -6.5      2.034      2.871
REMARK  Name = 
REMARK  4 active torsions:
REMARK  status: ('A' for Active; 'I' for Inactive)
REMARK    1  A    between atoms: C_1  and  C_2
REMARK    2  A    between atoms: C_11  and  C_12
REMARK    3  A    between atoms: C_13  and  C_14
REMARK    4  A    between atoms: C_13  and  C_16
REMARK                            x       y       z     vdW  Elec       q    Type
REMARK                         _______ _______ _______ _____ _____    ______ ____
ROOT
ATOM      1  C   UNL     1       3.351   7.588  17.517  0.00  0.00    +0.000 C 
ATOM      2  C   UNL     1       3.849   6.329  18.225  0.00  0.00    +0.000 C 
ATOM      3  N   UNL     1       3.062   6.157  19.448  0.00  0.00    +0.000 N 
ATOM      4  C   UNL     1       2.866   4.863  19.928  0.00  0.00    +0.000 A 
ATOM      5  C   UNL     1       2.207   4.692  21.154  0.00  0.00    +0.000 A 
ATOM      6  C   UNL     1       2.089   3.431  21.737  0.00  0.00    +0.000 A 
ATOM      7  C   UNL     1       2.657   2.324  21.115  0.00  0.00    +0.000 A 
ATOM      8  C   UNL     1       3.326   2.478  19.898  0.00  0.00    +0.000 A 
ATOM      9  C   UNL     1       3.409   3.733  19.276  0.00  0.00    +0.000 A 
ATOM     10  N   UNL     1       4.143   3.847  18.067  0.00  0.00    +0.000 N 
ATOM     11  C   UNL     1       3.815   5.059  17.302  0.00  0.00    +0.000 C 
ATOM     12  H   UNL     1       2.371   6.853  19.702  0.00  0.00    +0.000 HD
ATOM     13  H   UNL     1       4.078   2.985  17.531  0.00  0.00    +0.000 HD
ENDROOT
BRANCH  11  14
ATOM     14  C   UNL     1       4.886   5.105  16.233  0.00  0.00    +0.000 C 
ATOM     15  C   UNL     1       6.224   4.994  16.363  0.00  0.00    +0.000 C 
BRANCH  15  16
ATOM     16  C   UNL     1       6.862   4.762  17.612  0.00  0.00    +0.000 C 
ATOM     17  N   UNL     1       7.375   4.585  18.637  0.00  0.00    +0.000 NA
ENDBRANCH  15  16
BRANCH  15  18
ATOM     18  C   UNL     1       7.047   5.119  15.204  0.00  0.00    +0.000 C 
ATOM     19  N   UNL     1       7.734   5.233  14.277  0.00  0.00    +0.000 NA
ENDBRANCH  15  18
ENDBRANCH  11  14
TORSDOF 3
ENDMDL
MODEL 4
REMARK VINA RESULT:      -6.5      2.403      5.801
REMARK  Name = 
REMARK  4 active torsions:
REMARK  status: ('A' for Active; 'I' for Inactive)
REMARK    1  A    between atoms: C_1  and  C_2
REMARK    2  A    between atoms: C_11  and  C_12
REMARK    3  A    between atoms: C_13  and  C_14
REMARK    4  A    between atoms: C_13  and  C_16
REMARK                            x       y       z     vdW  Elec       q    Type
REMARK                         _______ _______ _______ _____ _____    ______ ____
ROOT
ATOM      1  C   UNL     1       7.472   6.307  17.945  0.00  0.00    +0.000 C 
ATOM      2  C   UNL     1       6.562   6.047  16.744  0.00  0.00    +0.000 C 
ATOM      3  N   UNL     1       7.412   5.803  15.577  0.00  0.00    +0.000 N 
ATOM      4  C   UNL     1       6.921   4.975  14.568  0.00  0.00    +0.000 A 
ATOM      5  C   UNL     1       7.678   4.820  13.398  0.00  0.00    +0.000 A 
ATOM      6  C   UNL     1       7.181   4.101  12.311  0.00  0.00    +0.000 A 
ATOM      7  C   UNL     1       5.904   3.552  12.368  0.00  0.00    +0.000 A 
ATOM      8  C   UNL     1       5.133   3.705  13.523  0.00  0.00    +0.000 A 
ATOM      9  C   UNL     1       5.639   4.384  14.642  0.00  0.00    +0.000 A 
ATOM     10  N   UNL     1       4.799   4.558  15.771  0.00  0.00    +0.000 N 
ATOM     11  C   UNL     1       5.538   4.883  17.000  0.00  0.00    +0.000 C 
ATOM     12  H   UNL     1       8.417   5.877  15.665  0.00  0.00    +0.000 HD
ATOM     13  H   UNL     1       4.162   3.771  15.864  0.00  0.00    +0.000 HD
ENDROOT
BRANCH  11  14
ATOM     14  C   UNL     1       4.451   5.288  17.973  0.00  0.00    +0.000 C 
ATOM     15  C   UNL     1       3.988   4.631  19.055  0.00  0.00    +0.000 C 
BRANCH  15  16
ATOM     16  C   UNL     1       4.524   3.388  19.492  0.00  0.00    +0.000 C 
ATOM     17  N   UNL     1       4.952   2.367  19.836  0.00  0.00    +0.000 NA
ENDBRANCH  15  16
BRANCH  15  18
ATOM     18  C   UNL     1       2.911   5.193  19.802  0.00  0.00    +0.000 C 
ATOM     19  N   UNL     1       2.051   5.669  20.418  0.00  0.00    +0.000 NA
ENDBRANCH  15  18
ENDBRANCH  11  14
TORSDOF 3
ENDMDL
MODEL 5
REMARK VINA RESULT:      -6.3      2.446      3.724
REMARK  Name = 
REMARK  4 active torsions:
REMARK  status: ('A' for Active; 'I' for Inactive)
REMARK    1  A    between atoms: C_1  and  C_2
REMARK    2  A    between atoms: C_11  and  C_12
REMARK    3  A    between atoms: C_13  and  C_14
REMARK    4  A    between atoms: C_13  and  C_16
REMARK                            x       y       z     vdW  Elec       q    Type
REMARK                         _______ _______ _______ _____ _____    ______ ____
ROOT
ATOM      1  C   UNL     1       4.474   3.209  19.135  0.00  0.00    +0.000 C 
ATOM      2  C   UNL     1       3.576   4.334  18.620  0.00  0.00    +0.000 C 
ATOM      3  N   UNL     1       2.879   4.917  19.768  0.00  0.00    +0.000 N 
ATOM      4  C   UNL     1       2.515   6.261  19.702  0.00  0.00    +0.000 A 
ATOM      5  C   UNL     1       1.753   6.804  20.747  0.00  0.00    +0.000 A 
ATOM      6  C   UNL     1       1.262   8.107  20.676  0.00  0.00    +0.000 A 
ATOM      7  C   UNL     1       1.500   8.878  19.542  0.00  0.00    +0.000 A 
ATOM      8  C   UNL     1       2.248   8.349  18.488  0.00  0.00    +0.000 A 
ATOM      9  C   UNL     1       2.791   7.057  18.566  0.00  0.00    +0.000 A 
ATOM     10  N   UNL     1       3.499   6.546  17.450  0.00  0.00    +0.000 N 
ATOM     11  C   UNL     1       4.364   5.404  17.783  0.00  0.00    +0.000 C 
ATOM     12  H   UNL     1       3.010   4.520  20.689  0.00  0.00    +0.000 HD
ATOM     13  H   UNL     1       3.975   7.298  16.957  0.00  0.00    +0.000 HD
ENDROOT
BRANCH  11  14
ATOM     14  C   UNL     1       4.785   4.870  16.431  0.00  0.00    +0.000 C 
ATOM     15  C   UNL     1       5.996   4.439  16.024  0.00  0.00    +0.000 C 
BRANCH  15  16
ATOM     16  C   UNL     1       7.126   4.386  16.886  0.00  0.00    +0.000 C 
ATOM     17  N   UNL     1       8.040   4.353  17.599  0.00  0.00    +0.000 NA
ENDBRANCH  15  16
BRANCH  15  18
ATOM     18  C   UNL     1       6.167   4.020  14.672  0.00  0.00    +0.000 C 
ATOM     19  N   UNL     1       6.311   3.655  13.580  0.00  0.00    +0.000 NA
ENDBRANCH  15  18
ENDBRANCH  11  14
TORSDOF 3
ENDMDL
MODEL 6
REMARK VINA RESULT:      -6.3      2.023      3.634
REMARK  Name = 
REMARK  4 active torsions:
REMARK  status: ('A' for Active; 'I' for Inactive)
REMARK    1  A    between atoms: C_1  and  C_2
REMARK    2  A    between atoms: C_11  and  C_12
REMARK    3  A    between atoms: C_13  and  C_14
REMARK    4  A    between atoms: C_13  and  C_16
REMARK                            x       y       z     vdW  Elec       q    Type
REMARK                         _______ _______ _______ _____ _____    ______ ____
ROOT
ATOM      1  C   UNL     1       6.325   5.005  18.785  0.00  0.00    +0.000 C 
ATOM      2  C   UNL     1       5.238   3.935  18.687  0.00  0.00    +0.000 C 
ATOM      3  N   UNL     1       4.493   3.931  19.949  0.00  0.00    +0.000 N 
ATOM      4  C   UNL     1       3.154   3.545  19.921  0.00  0.00    +0.000 A 
ATOM      5  C   UNL     1       2.460   3.432  21.134  0.00  0.00    +0.000 A 
ATOM      6  C   UNL     1       1.158   2.936  21.173  0.00  0.00    +0.000 A 
ATOM      7  C   UNL     1       0.540   2.516  20.000  0.00  0.00    +0.000 A 
ATOM      8  C   UNL     1       1.220   2.612  18.784  0.00  0.00    +0.000 A 
ATOM      9  C   UNL     1       2.513   3.155  18.723  0.00  0.00    +0.000 A 
ATOM     10  N   UNL     1       3.181   3.183  17.472  0.00  0.00    +0.000 N 
ATOM     11  C   UNL     1       4.307   4.129  17.437  0.00  0.00    +0.000 C 
ATOM     12  H   UNL     1       4.782   4.541  20.703  0.00  0.00    +0.000 HD
ATOM     13  H   UNL     1       2.513   3.303  16.716  0.00  0.00    +0.000 HD
ENDROOT
BRANCH  11  14
ATOM     14  C   UNL     1       5.016   3.790  16.144  0.00  0.00    +0.000 C 
ATOM     15  C   UNL     1       5.428   4.612  15.157  0.00  0.00    +0.000 C 
BRANCH  15  16
ATOM     16  C   UNL     1       5.278   6.025  15.215  0.00  0.00    +0.000 C 
ATOM     17  N   UNL     1       5.171   7.178  15.263  0.00  0.00    +0.000 NA
ENDBRANCH  15  16
BRANCH  15  18
ATOM     18  C   UNL     1       6.039   4.052  13.996  0.00  0.00    +0.000 C 
ATOM     19  N   UNL     1       6.528   3.618  13.038  0.00  0.00    +0.000 NA
ENDBRANCH  15  18
ENDBRANCH  11  14
TORSDOF 3
ENDMDL
MODEL 7
REMARK VINA RESULT:      -6.3      3.133      5.134
REMARK  Name = 
REMARK  4 active torsions:
REMARK  status: ('A' for Active; 'I' for Inactive)
REMARK    1  A    between atoms: C_1  and  C_2
REMARK    2  A    between atoms: C_11  and  C_12
REMARK    3  A    between atoms: C_13  and  C_14
REMARK    4  A    between atoms: C_13  and  C_16
REMARK                            x       y       z     vdW  Elec       q    Type
REMARK                         _______ _______ _______ _____ _____    ______ ____
ROOT
ATOM      1  C   UNL     1       4.490   5.314  16.755  0.00  0.00    +0.000 C 
ATOM      2  C   UNL     1       4.114   6.158  17.973  0.00  0.00    +0.000 C 
ATOM      3  N   UNL     1       3.516   7.405  17.491  0.00  0.00    +0.000 N 
ATOM      4  C   UNL     1       2.572   8.037  18.299  0.00  0.00    +0.000 A 
ATOM      5  C   UNL     1       2.073   9.286  17.901  0.00  0.00    +0.000 A 
ATOM      6  C   UNL     1       1.218  10.014  18.727  0.00  0.00    +0.000 A 
ATOM      7  C   UNL     1       0.875   9.517  19.980  0.00  0.00    +0.000 A 
ATOM      8  C   UNL     1       1.371   8.280  20.397  0.00  0.00    +0.000 A 
ATOM      9  C   UNL     1       2.192   7.513  19.556  0.00  0.00    +0.000 A 
ATOM     10  N   UNL     1       2.712   6.288  20.044  0.00  0.00    +0.000 N 
ATOM     11  C   UNL     1       3.182   5.390  18.978  0.00  0.00    +0.000 C 
ATOM     12  H   UNL     1       3.468   7.587  16.497  0.00  0.00    +0.000 HD
ATOM     13  H   UNL     1       2.057   5.857  20.692  0.00  0.00    +0.000 HD
ENDROOT
BRANCH  11  14
ATOM     14  C   UNL     1       3.927   4.306  19.727  0.00  0.00    +0.000 C 
ATOM     15  C   UNL     1       3.906   2.971  19.538  0.00  0.00    +0.000 C 
BRANCH  15  16
ATOM     16  C   UNL     1       3.153   2.350  18.504  0.00  0.00    +0.000 C 
ATOM     17  N   UNL     1       2.553   1.836  17.655  0.00  0.00    +0.000 NA
ENDBRANCH  15  16
BRANCH  15  18
ATOM     18  C   UNL     1       4.663   2.134  20.410  0.00  0.00    +0.000 C 
ATOM     19  N   UNL     1       5.297   1.472  21.120  0.00  0.00    +0.000 NA
ENDBRANCH  15  18
ENDBRANCH  11  14
TORSDOF 3
ENDMDL
MODEL 8
REMARK VINA RESULT:      -6.1      2.514      5.382
REMARK  Name = 
REMARK  4 active torsions:
REMARK  status: ('A' for Active; 'I' for Inactive)
REMARK    1  A    between atoms: C_1  and  C_2
REMARK    2  A    between atoms: C_11  and  C_12
REMARK    3  A    between atoms: C_13  and  C_14
REMARK    4  A    between atoms: C_13  and  C_16
REMARK                            x       y       z     vdW  Elec       q    Type
REMARK                         _______ _______ _______ _____ _____    ______ ____
ROOT
ATOM      1  C   UNL     1       1.418   3.722  18.201  0.00  0.00    +0.000 C 
ATOM      2  C   UNL     1       2.841   4.277  18.262  0.00  0.00    +0.000 C 
ATOM      3  N   UNL     1       3.636   3.594  17.239  0.00  0.00    +0.000 N 
ATOM      4  C   UNL     1       4.708   4.281  16.672  0.00  0.00    +0.000 A 
ATOM      5  C   UNL     1       5.543   3.603  15.772  0.00  0.00    +0.000 A 
ATOM      6  C   UNL     1       6.695   4.205  15.268  0.00  0.00    +0.000 A 
ATOM      7  C   UNL     1       7.048   5.485  15.683  0.00  0.00    +0.000 A 
ATOM      8  C   UNL     1       6.234   6.171  16.587  0.00  0.00    +0.000 A 
ATOM      9  C   UNL     1       5.045   5.598  17.064  0.00  0.00    +0.000 A 
ATOM     10  N   UNL     1       4.279   6.312  18.020  0.00  0.00    +0.000 N 
ATOM     11  C   UNL     1       2.890   5.840  18.122  0.00  0.00    +0.000 C 
ATOM     12  H   UNL     1       3.216   2.858  16.686  0.00  0.00    +0.000 HD
ATOM     13  H   UNL     1       4.368   7.314  17.868  0.00  0.00    +0.000 HD
ENDROOT
BRANCH  11  14
ATOM     14  C   UNL     1       2.367   6.538  19.359  0.00  0.00    +0.000 C 
ATOM     15  C   UNL     1       1.957   7.813  19.509  0.00  0.00    +0.000 C 
BRANCH  15  16
ATOM     16  C   UNL     1       1.920   8.744  18.435  0.00  0.00    +0.000 C 
ATOM     17  N   UNL     1       1.878   9.493  17.551  0.00  0.00    +0.000 NA
ENDBRANCH  15  16
BRANCH  15  18
ATOM     18  C   UNL     1       1.546   8.264  20.799  0.00  0.00    +0.000 C 
ATOM     19  N   UNL     1       1.235   8.623  21.857  0.00  0.00    +0.000 NA
ENDBRANCH  15  18
ENDBRANCH  11  14
TORSDOF 3
ENDMDL
MODEL 9
REMARK VINA RESULT:      -6.1      1.836      2.587
REMARK  Name = 
REMARK  4 active torsions:
REMARK  status: ('A' for Active; 'I' for Inactive)
REMARK    1  A    between atoms: C_1  and  C_2
REMARK    2  A    between atoms: C_11  and  C_12
REMARK    3  A    between atoms: C_13  and  C_14
REMARK    4  A    between atoms: C_13  and  C_16
REMARK                            x       y       z     vdW  Elec       q    Type
REMARK                         _______ _______ _______ _____ _____    ______ ____
ROOT
ATOM      1  C   UNL     1       2.335   8.104  17.757  0.00  0.00    +0.000 C 
ATOM      2  C   UNL     1       2.964   6.824  18.309  0.00  0.00    +0.000 C 
ATOM      3  N   UNL     1       1.913   5.810  18.410  0.00  0.00    +0.000 N 
ATOM      4  C   UNL     1       2.276   4.471  18.282  0.00  0.00    +0.000 A 
ATOM      5  C   UNL     1       1.299   3.486  18.484  0.00  0.00    +0.000 A 
ATOM      6  C   UNL     1       1.633   2.132  18.486  0.00  0.00    +0.000 A 
ATOM      7  C   UNL     1       2.959   1.744  18.317  0.00  0.00    +0.000 A 
ATOM      8  C   UNL     1       3.946   2.713  18.124  0.00  0.00    +0.000 A 
ATOM      9  C   UNL     1       3.618   4.076  18.070  0.00  0.00    +0.000 A 
ATOM     10  N   UNL     1       4.662   5.024  17.925  0.00  0.00    +0.000 N 
ATOM     11  C   UNL     1       4.193   6.338  17.460  0.00  0.00    +0.000 C 
ATOM     12  H   UNL     1       0.958   6.053  18.177  0.00  0.00    +0.000 HD
ATOM     13  H   UNL     1       5.421   4.633  17.372  0.00  0.00    +0.000 HD
ENDROOT
BRANCH  11  14
ATOM     14  C   UNL     1       5.400   7.233  17.645  0.00  0.00    +0.000 C 
ATOM     15  C   UNL     1       6.687   7.007  17.312  0.00  0.00    +0.000 C 
BRANCH  15  16
ATOM     16  C   UNL     1       7.118   5.821  16.656  0.00  0.00    +0.000 C 
ATOM     17  N   UNL     1       7.455   4.849  16.121  0.00  0.00    +0.000 NA
ENDBRANCH  15  16
BRANCH  15  18
ATOM     18  C   UNL     1       7.670   7.989  17.632  0.00  0.00    +0.000 C 
ATOM     19  N   UNL     1       8.452   8.807  17.889  0.00  0.00    +0.000 NA
ENDBRANCH  15  18
ENDBRANCH  11  14
TORSDOF 3
ENDMDL
