MODEL 1
REMARK VINA RESULT:      -8.1      0.000      0.000
REMARK  Name = 
REMARK  7 active torsions:
REMARK  status: ('A' for Active; 'I' for Inactive)
REMARK    1  A    between atoms: C_1  and  N_2
REMARK    2  A    between atoms: C_4  and  S_5
REMARK    3  A    between atoms: S_5  and  C_6
REMARK    4  A    between atoms: C_6  and  C_7
REMARK    5  A    between atoms: N_9  and  C_10
REMARK    6  A    between atoms: C_10  and  C_11
REMARK    7  A    between atoms: C_11  and  C_12
REMARK                            x       y       z     vdW  Elec       q    Type
REMARK                         _______ _______ _______ _____ _____    ______ ____
ROOT
ATOM      1  C   UNL     1       6.298   6.057  16.492  0.00  0.00    +0.000 C 
ENDROOT
BRANCH   1   2
ATOM      2  C   UNL     1       7.198   6.723  17.531  0.00  0.00    +0.000 C 
ATOM      3  O   UNL     1       7.558   6.133  18.552  0.00  0.00    +0.000 OA
ATOM      4  N   UNL     1       7.525   8.049  17.293  0.00  0.00    +0.000 N 
ATOM      5  H   UNL     1       7.322   8.430  16.376  0.00  0.00    +0.000 HD
BRANCH   4   6
ATOM      6  C   UNL     1       8.427   8.766  18.189  0.00  0.00    +0.000 C 
BRANCH   6   7
ATOM      7  C   UNL     1       8.460  10.279  17.942  0.00  0.00    +0.000 C 
BRANCH   7   8
ATOM      8  C   UNL     1       9.632  10.944  18.631  0.00  0.00    +0.000 A 
ATOM      9  C   UNL     1       9.641  11.135  20.021  0.00  0.00    +0.000 A 
ATOM     10  C   UNL     1      10.701  11.801  20.643  0.00  0.00    +0.000 A 
ATOM     11  C   UNL     1      11.773  12.270  19.882  0.00  0.00    +0.000 A 
ATOM     12  C   UNL     1      11.784  12.071  18.503  0.00  0.00    +0.000 A 
ATOM     13  C   UNL     1      10.718  11.416  17.880  0.00  0.00    +0.000 A 
ENDBRANCH   7   8
ENDBRANCH   6   7
ENDBRANCH   4   6
ENDBRANCH   1   2
BRANCH   1  14
ATOM     14  S   UNL     1       5.679   4.471  17.113  0.00  0.00    +0.000 S 
BRANCH  14  18
ATOM     15  C   UNL     1       2.075   6.923  20.123  0.00  0.00    +0.000 C 
ATOM     16  N   UNL     1       2.769   5.898  19.376  0.00  0.00    +0.000 N 
ATOM     17  C   UNL     1       3.975   6.062  18.732  0.00  0.00    +0.000 A 
ATOM     18  C   UNL     1       4.286   4.876  18.105  0.00  0.00    +0.000 A 
ATOM     19  C   UNL     1       3.230   3.949  18.392  0.00  0.00    +0.000 A 
ATOM     20  C   UNL     1       2.973   2.604  18.047  0.00  0.00    +0.000 A 
ATOM     21  C   UNL     1       1.809   1.973  18.505  0.00  0.00    +0.000 A 
ATOM     22  C   UNL     1       0.901   2.659  19.302  0.00  0.00    +0.000 A 
ATOM     23  C   UNL     1       1.124   3.990  19.661  0.00  0.00    +0.000 A 
ATOM     24  C   UNL     1       2.295   4.614  19.195  0.00  0.00    +0.000 A 
ENDBRANCH  14  18
ENDBRANCH   1  14
TORSDOF 6
ENDMDL
MODEL 2
REMARK VINA RESULT:      -8.1      1.062      1.451
REMARK  Name = 
REMARK  7 active torsions:
REMARK  status: ('A' for Active; 'I' for Inactive)
REMARK    1  A    between atoms: C_1  and  N_2
REMARK    2  A    between atoms: C_4  and  S_5
REMARK    3  A    between atoms: S_5  and  C_6
REMARK    4  A    between atoms: C_6  and  C_7
REMARK    5  A    between atoms: N_9  and  C_10
REMARK    6  A    between atoms: C_10  and  C_11
REMARK    7  A    between atoms: C_11  and  C_12
REMARK                            x       y       z     vdW  Elec       q    Type
REMARK                         _______ _______ _______ _____ _____    ______ ____
ROOT
ATOM      1  C   UNL     1       7.550   5.575  18.480  0.00  0.00    +0.000 C 
ENDROOT
BRANCH   1   2
ATOM      2  C   UNL     1       7.765   6.985  17.932  0.00  0.00    +0.000 C 
ATOM      3  O   UNL     1       7.448   7.288  16.780  0.00  0.00    +0.000 OA
ATOM      4  N   UNL     1       8.402   7.877  18.780  0.00  0.00    +0.000 N 
ATOM      5  H   UNL     1       8.506   7.614  19.753  0.00  0.00    +0.000 HD
BRANCH   4   6
ATOM      6  C   UNL     1       8.607   9.266  18.382  0.00  0.00    +0.000 C 
BRANCH   6   7
ATOM      7  C   UNL     1       9.283  10.120  19.461  0.00  0.00    +0.000 C 
BRANCH   7   8
ATOM      8  C   UNL     1      10.074  11.266  18.870  0.00  0.00    +0.000 A 
ATOM      9  C   UNL     1       9.508  12.115  17.907  0.00  0.00    +0.000 A 
ATOM     10  C   UNL     1      10.264  13.136  17.324  0.00  0.00    +0.000 A 
ATOM     11  C   UNL     1      11.592  13.329  17.709  0.00  0.00    +0.000 A 
ATOM     12  C   UNL     1      12.160  12.502  18.677  0.00  0.00    +0.000 A 
ATOM     13  C   UNL     1      11.408  11.475  19.251  0.00  0.00    +0.000 A 
ENDBRANCH   7   8
ENDBRANCH   6   7
ENDBRANCH   4   6
ENDBRANCH   1   2
BRANCH   1  14
ATOM     14  S   UNL     1       6.360   4.671  17.454  0.00  0.00    +0.000 S 
BRANCH  14  18
ATOM     15  C   UNL     1       2.164   6.906  19.790  0.00  0.00    +0.000 C 
ATOM     16  N   UNL     1       3.023   5.930  19.157  0.00  0.00    +0.000 N 
ATOM     17  C   UNL     1       4.324   6.150  18.765  0.00  0.00    +0.000 A 
ATOM     18  C   UNL     1       4.789   4.999  18.171  0.00  0.00    +0.000 A 
ATOM     19  C   UNL     1       3.729   4.035  18.217  0.00  0.00    +0.000 A 
ATOM     20  C   UNL     1       3.589   2.698  17.783  0.00  0.00    +0.000 A 
ATOM     21  C   UNL     1       2.381   2.018  17.984  0.00  0.00    +0.000 A 
ATOM     22  C   UNL     1       1.313   2.649  18.614  0.00  0.00    +0.000 A 
ATOM     23  C   UNL     1       1.419   3.969  19.054  0.00  0.00    +0.000 A 
ATOM     24  C   UNL     1       2.636   4.642  18.845  0.00  0.00    +0.000 A 
ENDBRANCH  14  18
ENDBRANCH   1  14
TORSDOF 6
ENDMDL
MODEL 3
REMARK VINA RESULT:      -8.1      1.071      1.431
REMARK  Name = 
REMARK  7 active torsions:
REMARK  status: ('A' for Active; 'I' for Inactive)
REMARK    1  A    between atoms: C_1  and  N_2
REMARK    2  A    between atoms: C_4  and  S_5
REMARK    3  A    between atoms: S_5  and  C_6
REMARK    4  A    between atoms: C_6  and  C_7
REMARK    5  A    between atoms: N_9  and  C_10
REMARK    6  A    between atoms: C_10  and  C_11
REMARK    7  A    between atoms: C_11  and  C_12
REMARK                            x       y       z     vdW  Elec       q    Type
REMARK                         _______ _______ _______ _____ _____    ______ ____
ROOT
ATOM      1  C   UNL     1       7.543   5.566  18.410  0.00  0.00    +0.000 C 
ENDROOT
BRANCH   1   2
ATOM      2  C   UNL     1       7.696   6.987  17.872  0.00  0.00    +0.000 C 
ATOM      3  O   UNL     1       7.307   7.299  16.745  0.00  0.00    +0.000 OA
ATOM      4  N   UNL     1       8.363   7.882  18.694  0.00  0.00    +0.000 N 
ATOM      5  H   UNL     1       8.529   7.608  19.656  0.00  0.00    +0.000 HD
BRANCH   4   6
ATOM      6  C   UNL     1       8.515   9.280  18.306  0.00  0.00    +0.000 C 
BRANCH   6   7
ATOM      7  C   UNL     1       9.260  10.127  19.344  0.00  0.00    +0.000 C 
BRANCH   7   8
ATOM      8  C   UNL     1      10.027  11.266  18.707  0.00  0.00    +0.000 A 
ATOM      9  C   UNL     1      11.401  11.432  18.937  0.00  0.00    +0.000 A 
ATOM     10  C   UNL     1      12.089  12.519  18.390  0.00  0.00    +0.000 A 
ATOM     11  C   UNL     1      11.413  13.445  17.595  0.00  0.00    +0.000 A 
ATOM     12  C   UNL     1      10.052  13.282  17.346  0.00  0.00    +0.000 A 
ATOM     13  C   UNL     1       9.361  12.202  17.902  0.00  0.00    +0.000 A 
ENDBRANCH   7   8
ENDBRANCH   6   7
ENDBRANCH   4   6
ENDBRANCH   1   2
BRANCH   1  14
ATOM     14  S   UNL     1       6.332   4.643  17.428  0.00  0.00    +0.000 S 
BRANCH  14  18
ATOM     15  C   UNL     1       2.215   6.923  19.860  0.00  0.00    +0.000 C 
ATOM     16  N   UNL     1       3.043   5.943  19.193  0.00  0.00    +0.000 N 
ATOM     17  C   UNL     1       4.347   6.139  18.797  0.00  0.00    +0.000 A 
ATOM     18  C   UNL     1       4.776   4.993  18.166  0.00  0.00    +0.000 A 
ATOM     19  C   UNL     1       3.690   4.057  18.192  0.00  0.00    +0.000 A 
ATOM     20  C   UNL     1       3.510   2.738  17.722  0.00  0.00    +0.000 A 
ATOM     21  C   UNL     1       2.285   2.086  17.913  0.00  0.00    +0.000 A 
ATOM     22  C   UNL     1       1.240   2.727  18.569  0.00  0.00    +0.000 A 
ATOM     23  C   UNL     1       1.384   4.031  19.046  0.00  0.00    +0.000 A 
ATOM     24  C   UNL     1       2.618   4.676  18.847  0.00  0.00    +0.000 A 
ENDBRANCH  14  18
ENDBRANCH   1  14
TORSDOF 6
ENDMDL
MODEL 4
REMARK VINA RESULT:      -7.8      1.601      2.715
REMARK  Name = 
REMARK  7 active torsions:
REMARK  status: ('A' for Active; 'I' for Inactive)
REMARK    1  A    between atoms: C_1  and  N_2
REMARK    2  A    between atoms: C_4  and  S_5
REMARK    3  A    between atoms: S_5  and  C_6
REMARK    4  A    between atoms: C_6  and  C_7
REMARK    5  A    between atoms: N_9  and  C_10
REMARK    6  A    between atoms: C_10  and  C_11
REMARK    7  A    between atoms: C_11  and  C_12
REMARK                            x       y       z     vdW  Elec       q    Type
REMARK                         _______ _______ _______ _____ _____    ______ ____
ROOT
ATOM      1  C   UNL     1       7.781   5.772  18.770  0.00  0.00    +0.000 C 
ENDROOT
BRANCH   1   2
ATOM      2  C   UNL     1       7.943   7.139  18.109  0.00  0.00    +0.000 C 
ATOM      3  O   UNL     1       7.626   7.333  16.934  0.00  0.00    +0.000 OA
ATOM      4  N   UNL     1       8.532   8.125  18.885  0.00  0.00    +0.000 N 
ATOM      5  H   UNL     1       8.637   7.947  19.878  0.00  0.00    +0.000 HD
BRANCH   4   6
ATOM      6  C   UNL     1       8.683   9.484  18.375  0.00  0.00    +0.000 C 
BRANCH   6   7
ATOM      7  C   UNL     1       9.469  10.407  19.314  0.00  0.00    +0.000 C 
BRANCH   7   8
ATOM      8  C   UNL     1       9.971  11.647  18.607  0.00  0.00    +0.000 A 
ATOM      9  C   UNL     1       9.179  12.802  18.521  0.00  0.00    +0.000 A 
ATOM     10  C   UNL     1       9.627  13.923  17.817  0.00  0.00    +0.000 A 
ATOM     11  C   UNL     1      10.880  13.907  17.202  0.00  0.00    +0.000 A 
ATOM     12  C   UNL     1      11.682  12.772  17.295  0.00  0.00    +0.000 A 
ATOM     13  C   UNL     1      11.230  11.647  17.989  0.00  0.00    +0.000 A 
ENDBRANCH   7   8
ENDBRANCH   6   7
ENDBRANCH   4   6
ENDBRANCH   1   2
BRANCH   1  14
ATOM     14  S   UNL     1       6.888   4.639  17.672  0.00  0.00    +0.000 S 
BRANCH  14  18
ATOM     15  C   UNL     1       2.438   3.153  20.133  0.00  0.00    +0.000 C 
ATOM     16  N   UNL     1       3.385   3.924  19.359  0.00  0.00    +0.000 N 
ATOM     17  C   UNL     1       4.665   3.527  19.041  0.00  0.00    +0.000 A 
ATOM     18  C   UNL     1       5.262   4.544  18.332  0.00  0.00    +0.000 A 
ATOM     19  C   UNL     1       4.298   5.599  18.202  0.00  0.00    +0.000 A 
ATOM     20  C   UNL     1       4.304   6.874  17.596  0.00  0.00    +0.000 A 
ATOM     21  C   UNL     1       3.162   7.684  17.654  0.00  0.00    +0.000 A 
ATOM     22  C   UNL     1       2.016   7.240  18.303  0.00  0.00    +0.000 A 
ATOM     23  C   UNL     1       1.977   5.985  18.914  0.00  0.00    +0.000 A 
ATOM     24  C   UNL     1       3.130   5.182  18.850  0.00  0.00    +0.000 A 
ENDBRANCH  14  18
ENDBRANCH   1  14
TORSDOF 6
ENDMDL
MODEL 5
REMARK VINA RESULT:      -7.7      1.306      2.402
REMARK  Name = 
REMARK  7 active torsions:
REMARK  status: ('A' for Active; 'I' for Inactive)
REMARK    1  A    between atoms: C_1  and  N_2
REMARK    2  A    between atoms: C_4  and  S_5
REMARK    3  A    between atoms: S_5  and  C_6
REMARK    4  A    between atoms: C_6  and  C_7
REMARK    5  A    between atoms: N_9  and  C_10
REMARK    6  A    between atoms: C_10  and  C_11
REMARK    7  A    between atoms: C_11  and  C_12
REMARK                            x       y       z     vdW  Elec       q    Type
REMARK                         _______ _______ _______ _____ _____    ______ ____
ROOT
ATOM      1  C   UNL     1       6.763   6.118  16.820  0.00  0.00    +0.000 C 
ENDROOT
BRANCH   1   2
ATOM      2  C   UNL     1       7.555   6.937  17.837  0.00  0.00    +0.000 C 
ATOM      3  O   UNL     1       7.973   6.441  18.885  0.00  0.00    +0.000 OA
ATOM      4  N   UNL     1       7.712   8.283  17.546  0.00  0.00    +0.000 N 
ATOM      5  H   UNL     1       7.473   8.597  16.611  0.00  0.00    +0.000 HD
BRANCH   4   6
ATOM      6  C   UNL     1       8.500   9.148  18.418  0.00  0.00    +0.000 C 
BRANCH   6   7
ATOM      7  C   UNL     1       8.954  10.448  17.743  0.00  0.00    +0.000 C 
BRANCH   7   8
ATOM      8  C   UNL     1       9.452  11.467  18.746  0.00  0.00    +0.000 A 
ATOM      9  C   UNL     1       9.677  12.800  18.372  0.00  0.00    +0.000 A 
ATOM     10  C   UNL     1      10.191  13.721  19.290  0.00  0.00    +0.000 A 
ATOM     11  C   UNL     1      10.471  13.321  20.597  0.00  0.00    +0.000 A 
ATOM     12  C   UNL     1      10.235  12.004  20.985  0.00  0.00    +0.000 A 
ATOM     13  C   UNL     1       9.733  11.081  20.065  0.00  0.00    +0.000 A 
ENDBRANCH   7   8
ENDBRANCH   6   7
ENDBRANCH   4   6
ENDBRANCH   1   2
BRANCH   1  14
ATOM     14  S   UNL     1       5.003   6.544  16.895  0.00  0.00    +0.000 S 
BRANCH  14  18
ATOM     15  C   UNL     1       3.439   1.637  18.132  0.00  0.00    +0.000 C 
ATOM     16  N   UNL     1       3.550   3.079  18.119  0.00  0.00    +0.000 N 
ATOM     17  C   UNL     1       4.360   3.807  17.278  0.00  0.00    +0.000 A 
ATOM     18  C   UNL     1       4.217   5.138  17.597  0.00  0.00    +0.000 A 
ATOM     19  C   UNL     1       3.268   5.222  18.670  0.00  0.00    +0.000 A 
ATOM     20  C   UNL     1       2.712   6.284  19.417  0.00  0.00    +0.000 A 
ATOM     21  C   UNL     1       1.783   6.016  20.431  0.00  0.00    +0.000 A 
ATOM     22  C   UNL     1       1.398   4.709  20.707  0.00  0.00    +0.000 A 
ATOM     23  C   UNL     1       1.929   3.637  19.987  0.00  0.00    +0.000 A 
ATOM     24  C   UNL     1       2.862   3.917  18.973  0.00  0.00    +0.000 A 
ENDBRANCH  14  18
ENDBRANCH   1  14
TORSDOF 6
ENDMDL
MODEL 6
REMARK VINA RESULT:      -7.7      1.506      2.659
REMARK  Name = 
REMARK  7 active torsions:
REMARK  status: ('A' for Active; 'I' for Inactive)
REMARK    1  A    between atoms: C_1  and  N_2
REMARK    2  A    between atoms: C_4  and  S_5
REMARK    3  A    between atoms: S_5  and  C_6
REMARK    4  A    between atoms: C_6  and  C_7
REMARK    5  A    between atoms: N_9  and  C_10
REMARK    6  A    between atoms: C_10  and  C_11
REMARK    7  A    between atoms: C_11  and  C_12
REMARK                            x       y       z     vdW  Elec       q    Type
REMARK                         _______ _______ _______ _____ _____    ______ ____
ROOT
ATOM      1  C   UNL     1       7.639   4.401  17.468  0.00  0.00    +0.000 C 
ENDROOT
BRANCH   1   2
ATOM      2  C   UNL     1       7.792   5.599  18.402  0.00  0.00    +0.000 C 
ATOM      3  O   UNL     1       7.695   5.484  19.626  0.00  0.00    +0.000 OA
ATOM      4  N   UNL     1       7.972   6.830  17.791  0.00  0.00    +0.000 N 
ATOM      5  H   UNL     1       8.185   6.840  16.800  0.00  0.00    +0.000 HD
BRANCH   4   6
ATOM      6  C   UNL     1       8.187   8.033  18.588  0.00  0.00    +0.000 C 
BRANCH   6   7
ATOM      7  C   UNL     1       8.209   9.322  17.757  0.00  0.00    +0.000 C 
BRANCH   7   8
ATOM      8  C   UNL     1       8.935  10.445  18.465  0.00  0.00    +0.000 A 
ATOM      9  C   UNL     1       9.257  11.635  17.795  0.00  0.00    +0.000 A 
ATOM     10  C   UNL     1       9.978  12.644  18.441  0.00  0.00    +0.000 A 
ATOM     11  C   UNL     1      10.373  12.479  19.770  0.00  0.00    +0.000 A 
ATOM     12  C   UNL     1      10.044  11.309  20.450  0.00  0.00    +0.000 A 
ATOM     13  C   UNL     1       9.334  10.296  19.802  0.00  0.00    +0.000 A 
ENDBRANCH   7   8
ENDBRANCH   6   7
ENDBRANCH   4   6
ENDBRANCH   1   2
BRANCH   1  14
ATOM     14  S   UNL     1       6.067   4.492  16.571  0.00  0.00    +0.000 S 
BRANCH  14  18
ATOM     15  C   UNL     1       2.789   3.512  20.616  0.00  0.00    +0.000 C 
ATOM     16  N   UNL     1       3.445   4.178  19.512  0.00  0.00    +0.000 N 
ATOM     17  C   UNL     1       4.438   3.633  18.730  0.00  0.00    +0.000 A 
ATOM     18  C   UNL     1       4.830   4.584  17.816  0.00  0.00    +0.000 A 
ATOM     19  C   UNL     1       4.030   5.753  18.045  0.00  0.00    +0.000 A 
ATOM     20  C   UNL     1       3.955   7.031  17.449  0.00  0.00    +0.000 A 
ATOM     21  C   UNL     1       3.036   7.974  17.927  0.00  0.00    +0.000 A 
ATOM     22  C   UNL     1       2.189   7.660  18.985  0.00  0.00    +0.000 A 
ATOM     23  C   UNL     1       2.239   6.406  19.596  0.00  0.00    +0.000 A 
ATOM     24  C   UNL     1       3.167   5.468  19.109  0.00  0.00    +0.000 A 
ENDBRANCH  14  18
ENDBRANCH   1  14
TORSDOF 6
ENDMDL
MODEL 7
REMARK VINA RESULT:      -7.6      1.545      2.645
REMARK  Name = 
REMARK  7 active torsions:
REMARK  status: ('A' for Active; 'I' for Inactive)
REMARK    1  A    between atoms: C_1  and  N_2
REMARK    2  A    between atoms: C_4  and  S_5
REMARK    3  A    between atoms: S_5  and  C_6
REMARK    4  A    between atoms: C_6  and  C_7
REMARK    5  A    between atoms: N_9  and  C_10
REMARK    6  A    between atoms: C_10  and  C_11
REMARK    7  A    between atoms: C_11  and  C_12
REMARK                            x       y       z     vdW  Elec       q    Type
REMARK                         _______ _______ _______ _____ _____    ______ ____
ROOT
ATOM      1  C   UNL     1       6.842   4.537  17.640  0.00  0.00    +0.000 C 
ENDROOT
BRANCH   1   2
ATOM      2  C   UNL     1       7.449   5.624  18.524  0.00  0.00    +0.000 C 
ATOM      3  O   UNL     1       7.640   5.448  19.729  0.00  0.00    +0.000 OA
ATOM      4  N   UNL     1       7.702   6.840  17.908  0.00  0.00    +0.000 N 
ATOM      5  H   UNL     1       7.659   6.876  16.896  0.00  0.00    +0.000 HD
BRANCH   4   6
ATOM      6  C   UNL     1       8.335   7.930  18.643  0.00  0.00    +0.000 C 
BRANCH   6   7
ATOM      7  C   UNL     1       8.285   9.275  17.907  0.00  0.00    +0.000 C 
BRANCH   7   8
ATOM      8  C   UNL     1       9.117  10.334  18.597  0.00  0.00    +0.000 A 
ATOM      9  C   UNL     1       9.225  10.372  19.995  0.00  0.00    +0.000 A 
ATOM     10  C   UNL     1       9.949  11.388  20.627  0.00  0.00    +0.000 A 
ATOM     11  C   UNL     1      10.587  12.368  19.865  0.00  0.00    +0.000 A 
ATOM     12  C   UNL     1      10.501  12.330  18.475  0.00  0.00    +0.000 A 
ATOM     13  C   UNL     1       9.767  11.323  17.844  0.00  0.00    +0.000 A 
ENDBRANCH   7   8
ENDBRANCH   6   7
ENDBRANCH   4   6
ENDBRANCH   1   2
BRANCH   1  14
ATOM     14  S   UNL     1       5.322   5.133  16.855  0.00  0.00    +0.000 S 
BRANCH  14  18
ATOM     15  C   UNL     1       2.358   4.623  21.215  0.00  0.00    +0.000 C 
ATOM     16  N   UNL     1       2.930   5.161  20.001  0.00  0.00    +0.000 N 
ATOM     17  C   UNL     1       3.859   4.525  19.209  0.00  0.00    +0.000 A 
ATOM     18  C   UNL     1       4.183   5.370  18.172  0.00  0.00    +0.000 A 
ATOM     19  C   UNL     1       3.408   6.565  18.335  0.00  0.00    +0.000 A 
ATOM     20  C   UNL     1       3.292   7.774  17.615  0.00  0.00    +0.000 A 
ATOM     21  C   UNL     1       2.415   8.773  18.058  0.00  0.00    +0.000 A 
ATOM     22  C   UNL     1       1.650   8.583  19.204  0.00  0.00    +0.000 A 
ATOM     23  C   UNL     1       1.742   7.400  19.939  0.00  0.00    +0.000 A 
ATOM     24  C   UNL     1       2.627   6.405  19.486  0.00  0.00    +0.000 A 
ENDBRANCH  14  18
ENDBRANCH   1  14
TORSDOF 6
ENDMDL
MODEL 8
REMARK VINA RESULT:      -7.6      0.879      1.345
REMARK  Name = 
REMARK  7 active torsions:
REMARK  status: ('A' for Active; 'I' for Inactive)
REMARK    1  A    between atoms: C_1  and  N_2
REMARK    2  A    between atoms: C_4  and  S_5
REMARK    3  A    between atoms: S_5  and  C_6
REMARK    4  A    between atoms: C_6  and  C_7
REMARK    5  A    between atoms: N_9  and  C_10
REMARK    6  A    between atoms: C_10  and  C_11
REMARK    7  A    between atoms: C_11  and  C_12
REMARK                            x       y       z     vdW  Elec       q    Type
REMARK                         _______ _______ _______ _____ _____    ______ ____
ROOT
ATOM      1  C   UNL     1       6.945   5.607  18.491  0.00  0.00    +0.000 C 
ENDROOT
BRANCH   1   2
ATOM      2  C   UNL     1       7.311   6.855  17.691  0.00  0.00    +0.000 C 
ATOM      3  O   UNL     1       6.937   7.011  16.526  0.00  0.00    +0.000 OA
ATOM      4  N   UNL     1       8.145   7.762  18.324  0.00  0.00    +0.000 N 
ATOM      5  H   UNL     1       8.299   7.650  19.320  0.00  0.00    +0.000 HD
BRANCH   4   6
ATOM      6  C   UNL     1       8.512   9.017  17.675  0.00  0.00    +0.000 C 
BRANCH   6   7
ATOM      7  C   UNL     1       8.329  10.247  18.571  0.00  0.00    +0.000 C 
BRANCH   7   8
ATOM      8  C   UNL     1       9.635  10.968  18.824  0.00  0.00    +0.000 A 
ATOM      9  C   UNL     1      10.493  11.305  17.765  0.00  0.00    +0.000 A 
ATOM     10  C   UNL     1      11.724  11.920  18.013  0.00  0.00    +0.000 A 
ATOM     11  C   UNL     1      12.104  12.218  19.322  0.00  0.00    +0.000 A 
ATOM     12  C   UNL     1      11.254  11.904  20.380  0.00  0.00    +0.000 A 
ATOM     13  C   UNL     1      10.029  11.279  20.134  0.00  0.00    +0.000 A 
ENDBRANCH   7   8
ENDBRANCH   6   7
ENDBRANCH   4   6
ENDBRANCH   1   2
BRANCH   1  14
ATOM     14  S   UNL     1       5.576   4.723  17.698  0.00  0.00    +0.000 S 
BRANCH  14  18
ATOM     15  C   UNL     1       1.755   7.283  20.326  0.00  0.00    +0.000 C 
ATOM     16  N   UNL     1       2.541   6.220  19.740  0.00  0.00    +0.000 N 
ATOM     17  C   UNL     1       3.731   6.387  19.067  0.00  0.00    +0.000 A 
ATOM     18  C   UNL     1       4.149   5.151  18.628  0.00  0.00    +0.000 A 
ATOM     19  C   UNL     1       3.177   4.191  19.064  0.00  0.00    +0.000 A 
ATOM     20  C   UNL     1       3.042   2.791  18.933  0.00  0.00    +0.000 A 
ATOM     21  C   UNL     1       1.936   2.138  19.493  0.00  0.00    +0.000 A 
ATOM     22  C   UNL     1       0.967   2.857  20.184  0.00  0.00    +0.000 A 
ATOM     23  C   UNL     1       1.070   4.241  20.331  0.00  0.00    +0.000 A 
ATOM     24  C   UNL     1       2.183   4.887  19.763  0.00  0.00    +0.000 A 
ENDBRANCH  14  18
ENDBRANCH   1  14
TORSDOF 6
ENDMDL
MODEL 9
REMARK VINA RESULT:      -7.5      0.603      1.171
REMARK  Name = 
REMARK  7 active torsions:
REMARK  status: ('A' for Active; 'I' for Inactive)
REMARK    1  A    between atoms: C_1  and  N_2
REMARK    2  A    between atoms: C_4  and  S_5
REMARK    3  A    between atoms: S_5  and  C_6
REMARK    4  A    between atoms: C_6  and  C_7
REMARK    5  A    between atoms: N_9  and  C_10
REMARK    6  A    between atoms: C_10  and  C_11
REMARK    7  A    between atoms: C_11  and  C_12
REMARK                            x       y       z     vdW  Elec       q    Type
REMARK                         _______ _______ _______ _____ _____    ______ ____
ROOT
ATOM      1  C   UNL     1       6.769   6.433  16.701  0.00  0.00    +0.000 C 
ENDROOT
BRANCH   1   2
ATOM      2  C   UNL     1       7.645   7.018  17.806  0.00  0.00    +0.000 C 
ATOM      3  O   UNL     1       7.967   6.358  18.796  0.00  0.00    +0.000 OA
ATOM      4  N   UNL     1       7.994   8.352  17.666  0.00  0.00    +0.000 N 
ATOM      5  H   UNL     1       7.822   8.796  16.771  0.00  0.00    +0.000 HD
BRANCH   4   6
ATOM      6  C   UNL     1       8.875   8.998  18.633  0.00  0.00    +0.000 C 
BRANCH   6   7
ATOM      7  C   UNL     1       8.597  10.496  18.812  0.00  0.00    +0.000 C 
BRANCH   7   8
ATOM      8  C   UNL     1       9.872  11.306  18.896  0.00  0.00    +0.000 A 
ATOM      9  C   UNL     1      10.574  11.674  17.738  0.00  0.00    +0.000 A 
ATOM     10  C   UNL     1      11.781  12.374  17.828  0.00  0.00    +0.000 A 
ATOM     11  C   UNL     1      12.292  12.727  19.078  0.00  0.00    +0.000 A 
ATOM     12  C   UNL     1      11.595  12.383  20.234  0.00  0.00    +0.000 A 
ATOM     13  C   UNL     1      10.395  11.673  20.145  0.00  0.00    +0.000 A 
ENDBRANCH   7   8
ENDBRANCH   6   7
ENDBRANCH   4   6
ENDBRANCH   1   2
BRANCH   1  14
ATOM     14  S   UNL     1       6.185   4.780  17.162  0.00  0.00    +0.000 S 
BRANCH  14  18
ATOM     15  C   UNL     1       2.179   6.832  19.954  0.00  0.00    +0.000 C 
ATOM     16  N   UNL     1       2.994   5.901  19.206  0.00  0.00    +0.000 N 
ATOM     17  C   UNL     1       4.251   6.163  18.710  0.00  0.00    +0.000 A 
ATOM     18  C   UNL     1       4.680   5.047  18.028  0.00  0.00    +0.000 A 
ATOM     19  C   UNL     1       3.644   4.060  18.126  0.00  0.00    +0.000 A 
ATOM     20  C   UNL     1       3.488   2.740  17.650  0.00  0.00    +0.000 A 
ATOM     21  C   UNL     1       2.314   2.029  17.928  0.00  0.00    +0.000 A 
ATOM     22  C   UNL     1       1.297   2.611  18.677  0.00  0.00    +0.000 A 
ATOM     23  C   UNL     1       1.419   3.914  19.162  0.00  0.00    +0.000 A 
ATOM     24  C   UNL     1       2.601   4.620  18.875  0.00  0.00    +0.000 A 
ENDBRANCH  14  18
ENDBRANCH   1  14
TORSDOF 6
ENDMDL
