MODEL 1
REMARK VINA RESULT:      -8.4      0.000      0.000
REMARK  Name = 
REMARK  8 active torsions:
REMARK  status: ('A' for Active; 'I' for Inactive)
REMARK    1  A    between atoms: C_1  and  C_2
REMARK    2  A    between atoms: C_4  and  N_5
REMARK    3  A    between atoms: N_5  and  C_6
REMARK    4  A    between atoms: C_9  and  C_10
REMARK    5  A    between atoms: C_10  and  O_12
REMARK    6  A    between atoms: C_17  and  S_18
REMARK    7  A    between atoms: S_18  and  C_19
REMARK    8  A    between atoms: C_19  and  C_20
REMARK                            x       y       z     vdW  Elec       q    Type
REMARK                         _______ _______ _______ _____ _____    ______ ____
ROOT
ATOM      1  C   UNL     1       1.071   2.615  21.181  0.00  0.00    +0.000 C 
ATOM      2  C   UNL     1       1.871   3.438  20.198  0.00  0.00    +0.000 A 
ATOM      3  C   UNL     1       2.047   4.883  20.529  0.00  0.00    +0.000 A 
ATOM      4  C   UNL     1       2.763   5.628  19.665  0.00  0.00    +0.000 A 
ATOM      5  N   UNL     1       3.309   4.983  18.536  0.00  0.00    +0.000 N 
ATOM      6  N   UNL     1       4.074   5.508  17.544  0.00  0.00    +0.000 NA
ATOM      7  C   UNL     1       4.206   4.470  16.713  0.00  0.00    +0.000 A 
ATOM      8  N   UNL     1       3.616   3.311  17.119  0.00  0.00    +0.000 NA
ATOM      9  C   UNL     1       3.068   3.630  18.275  0.00  0.00    +0.000 A 
ATOM     10  N   UNL     1       2.346   2.850  19.138  0.00  0.00    +0.000 NA
ENDROOT
BRANCH   4  11
ATOM     11  N   UNL     1       3.002   6.994  19.834  0.00  0.00    +0.000 N 
ATOM     12  H   UNL     1       3.965   7.247  19.588  0.00  0.00    +0.000 HD
BRANCH  11  13
ATOM     13  C   UNL     1       2.096   8.023  19.468  0.00  0.00    +0.000 A 
ATOM     14  C   UNL     1       1.913   8.452  18.146  0.00  0.00    +0.000 A 
ATOM     15  C   UNL     1       0.937   9.399  17.819  0.00  0.00    +0.000 A 
ATOM     16  C   UNL     1       0.114   9.940  18.810  0.00  0.00    +0.000 A 
ATOM     17  C   UNL     1       0.287   9.532  20.137  0.00  0.00    +0.000 A 
ATOM     18  C   UNL     1       1.274   8.584  20.458  0.00  0.00    +0.000 A 
BRANCH  16  19
ATOM     19  C   UNL     1      -0.962  10.868  18.375  0.00  0.00    +0.000 C 
ATOM     20  O   UNL     1      -1.353  11.794  19.072  0.00  0.00    +0.000 OA
BRANCH  19  21
ATOM     21  O   UNL     1      -1.488  10.598  17.164  0.00  0.00    +0.000 OA
ATOM     22  H   UNL     1      -2.163  11.230  16.854  0.00  0.00    +0.000 HD
ENDBRANCH  19  21
ENDBRANCH  16  19
ENDBRANCH  11  13
ENDBRANCH   4  11
BRANCH   7  23
ATOM     23  S   UNL     1       5.143   4.646  15.251  0.00  0.00    +0.000 S 
BRANCH  23  24
ATOM     24  C   UNL     1       6.834   4.302  15.821  0.00  0.00    +0.000 C 
BRANCH  24  25
ATOM     25  C   UNL     1       7.255   5.278  16.902  0.00  0.00    +0.000 A 
ATOM     26  C   UNL     1       7.320   6.656  16.638  0.00  0.00    +0.000 A 
ATOM     27  C   UNL     1       7.743   7.557  17.619  0.00  0.00    +0.000 A 
ATOM     28  C   UNL     1       8.109   7.094  18.884  0.00  0.00    +0.000 A 
ATOM     29  C   UNL     1       8.049   5.732  19.163  0.00  0.00    +0.000 A 
ATOM     30  C   UNL     1       7.626   4.829  18.181  0.00  0.00    +0.000 A 
ENDBRANCH  24  25
ENDBRANCH  23  24
ENDBRANCH   7  23
TORSDOF 7
ENDMDL
MODEL 2
REMARK VINA RESULT:      -8.1      1.953      3.268
REMARK  Name = 
REMARK  8 active torsions:
REMARK  status: ('A' for Active; 'I' for Inactive)
REMARK    1  A    between atoms: C_1  and  C_2
REMARK    2  A    between atoms: C_4  and  N_5
REMARK    3  A    between atoms: N_5  and  C_6
REMARK    4  A    between atoms: C_9  and  C_10
REMARK    5  A    between atoms: C_10  and  O_12
REMARK    6  A    between atoms: C_17  and  S_18
REMARK    7  A    between atoms: S_18  and  C_19
REMARK    8  A    between atoms: C_19  and  C_20
REMARK                            x       y       z     vdW  Elec       q    Type
REMARK                         _______ _______ _______ _____ _____    ______ ____
ROOT
ATOM      1  C   UNL     1       1.166   2.941  21.365  0.00  0.00    +0.000 C 
ATOM      2  C   UNL     1       2.192   3.713  20.567  0.00  0.00    +0.000 A 
ATOM      3  C   UNL     1       1.883   5.148  20.300  0.00  0.00    +0.000 A 
ATOM      4  C   UNL     1       2.791   5.851  19.595  0.00  0.00    +0.000 A 
ATOM      5  N   UNL     1       3.968   5.186  19.190  0.00  0.00    +0.000 N 
ATOM      6  N   UNL     1       5.026   5.678  18.497  0.00  0.00    +0.000 NA
ATOM      7  C   UNL     1       5.777   4.586  18.321  0.00  0.00    +0.000 A 
ATOM      8  N   UNL     1       5.297   3.444  18.886  0.00  0.00    +0.000 NA
ATOM      9  C   UNL     1       4.167   3.825  19.448  0.00  0.00    +0.000 A 
ATOM     10  N   UNL     1       3.261   3.090  20.164  0.00  0.00    +0.000 NA
ENDROOT
BRANCH   4  11
ATOM     11  N   UNL     1       2.637   7.198  19.257  0.00  0.00    +0.000 N 
ATOM     12  H   UNL     1       2.652   7.343  18.243  0.00  0.00    +0.000 HD
BRANCH  11  13
ATOM     13  C   UNL     1       1.725   8.087  19.884  0.00  0.00    +0.000 A 
ATOM     14  C   UNL     1       1.352   7.982  21.231  0.00  0.00    +0.000 A 
ATOM     15  C   UNL     1       0.530   8.940  21.833  0.00  0.00    +0.000 A 
ATOM     16  C   UNL     1       0.062  10.034  21.101  0.00  0.00    +0.000 A 
ATOM     17  C   UNL     1       0.417  10.153  19.753  0.00  0.00    +0.000 A 
ATOM     18  C   UNL     1       1.239   9.182  19.154  0.00  0.00    +0.000 A 
BRANCH  16  19
ATOM     19  C   UNL     1      -0.727  11.060  21.831  0.00  0.00    +0.000 C 
ATOM     20  O   UNL     1      -1.615  11.709  21.297  0.00  0.00    +0.000 OA
BRANCH  19  21
ATOM     21  O   UNL     1      -0.374  11.235  23.120  0.00  0.00    +0.000 OA
ATOM     22  H   UNL     1       0.534  11.562  23.262  0.00  0.00    +0.000 HD
ENDBRANCH  19  21
ENDBRANCH  16  19
ENDBRANCH  11  13
ENDBRANCH   4  11
BRANCH   7  23
ATOM     23  S   UNL     1       7.296   4.710  17.469  0.00  0.00    +0.000 S 
BRANCH  23  24
ATOM     24  C   UNL     1       6.896   5.852  16.112  0.00  0.00    +0.000 C 
BRANCH  24  25
ATOM     25  C   UNL     1       6.700   5.103  14.808  0.00  0.00    +0.000 A 
ATOM     26  C   UNL     1       5.620   4.220  14.645  0.00  0.00    +0.000 A 
ATOM     27  C   UNL     1       5.454   3.500  13.459  0.00  0.00    +0.000 A 
ATOM     28  C   UNL     1       6.366   3.650  12.414  0.00  0.00    +0.000 A 
ATOM     29  C   UNL     1       7.441   4.523  12.558  0.00  0.00    +0.000 A 
ATOM     30  C   UNL     1       7.609   5.245  13.745  0.00  0.00    +0.000 A 
ENDBRANCH  24  25
ENDBRANCH  23  24
ENDBRANCH   7  23
TORSDOF 7
ENDMDL
MODEL 3
REMARK VINA RESULT:      -8.1      1.989      3.186
REMARK  Name = 
REMARK  8 active torsions:
REMARK  status: ('A' for Active; 'I' for Inactive)
REMARK    1  A    between atoms: C_1  and  C_2
REMARK    2  A    between atoms: C_4  and  N_5
REMARK    3  A    between atoms: N_5  and  C_6
REMARK    4  A    between atoms: C_9  and  C_10
REMARK    5  A    between atoms: C_10  and  O_12
REMARK    6  A    between atoms: C_17  and  S_18
REMARK    7  A    between atoms: S_18  and  C_19
REMARK    8  A    between atoms: C_19  and  C_20
REMARK                            x       y       z     vdW  Elec       q    Type
REMARK                         _______ _______ _______ _____ _____    ______ ____
ROOT
ATOM      1  C   UNL     1       1.376   2.851  21.623  0.00  0.00    +0.000 C 
ATOM      2  C   UNL     1       2.308   3.604  20.703  0.00  0.00    +0.000 A 
ATOM      3  C   UNL     1       1.846   4.946  20.243  0.00  0.00    +0.000 A 
ATOM      4  C   UNL     1       2.669   5.632  19.426  0.00  0.00    +0.000 A 
ATOM      5  N   UNL     1       3.907   5.043  19.093  0.00  0.00    +0.000 N 
ATOM      6  N   UNL     1       4.901   5.539  18.314  0.00  0.00    +0.000 NA
ATOM      7  C   UNL     1       5.764   4.518  18.277  0.00  0.00    +0.000 A 
ATOM      8  N   UNL     1       5.412   3.424  19.007  0.00  0.00    +0.000 NA
ATOM      9  C   UNL     1       4.252   3.761  19.535  0.00  0.00    +0.000 A 
ATOM     10  N   UNL     1       3.434   3.045  20.368  0.00  0.00    +0.000 NA
ENDROOT
BRANCH   4  11
ATOM     11  N   UNL     1       2.370   6.894  18.906  0.00  0.00    +0.000 N 
ATOM     12  H   UNL     1       1.935   6.833  17.979  0.00  0.00    +0.000 HD
BRANCH  11  13
ATOM     13  C   UNL     1       1.820   7.966  19.656  0.00  0.00    +0.000 A 
ATOM     14  C   UNL     1       1.333   9.143  19.070  0.00  0.00    +0.000 A 
ATOM     15  C   UNL     1       0.707  10.130  19.838  0.00  0.00    +0.000 A 
ATOM     16  C   UNL     1       0.551   9.963  21.216  0.00  0.00    +0.000 A 
ATOM     17  C   UNL     1       1.038   8.800  21.821  0.00  0.00    +0.000 A 
ATOM     18  C   UNL     1       1.670   7.815  21.043  0.00  0.00    +0.000 A 
BRANCH  16  19
ATOM     19  C   UNL     1      -0.206  11.010  21.951  0.00  0.00    +0.000 C 
ATOM     20  O   UNL     1      -0.408  10.952  23.155  0.00  0.00    +0.000 OA
BRANCH  19  21
ATOM     21  O   UNL     1      -0.672  12.016  21.184  0.00  0.00    +0.000 OA
ATOM     22  H   UNL     1      -1.612  12.241  21.319  0.00  0.00    +0.000 HD
ENDBRANCH  19  21
ENDBRANCH  16  19
ENDBRANCH  11  13
ENDBRANCH   4  11
BRANCH   7  23
ATOM     23  S   UNL     1       7.254   4.677  17.382  0.00  0.00    +0.000 S 
BRANCH  23  24
ATOM     24  C   UNL     1       6.794   5.820  16.046  0.00  0.00    +0.000 C 
BRANCH  24  25
ATOM     25  C   UNL     1       6.637   5.086  14.729  0.00  0.00    +0.000 A 
ATOM     26  C   UNL     1       5.544   4.231  14.511  0.00  0.00    +0.000 A 
ATOM     27  C   UNL     1       5.414   3.523  13.313  0.00  0.00    +0.000 A 
ATOM     28  C   UNL     1       6.375   3.658  12.311  0.00  0.00    +0.000 A 
ATOM     29  C   UNL     1       7.463   4.503  12.510  0.00  0.00    +0.000 A 
ATOM     30  C   UNL     1       7.596   5.212  13.709  0.00  0.00    +0.000 A 
ENDBRANCH  24  25
ENDBRANCH  23  24
ENDBRANCH   7  23
TORSDOF 7
ENDMDL
MODEL 4
REMARK VINA RESULT:      -8.1      0.412      1.473
REMARK  Name = 
REMARK  8 active torsions:
REMARK  status: ('A' for Active; 'I' for Inactive)
REMARK    1  A    between atoms: C_1  and  C_2
REMARK    2  A    between atoms: C_4  and  N_5
REMARK    3  A    between atoms: N_5  and  C_6
REMARK    4  A    between atoms: C_9  and  C_10
REMARK    5  A    between atoms: C_10  and  O_12
REMARK    6  A    between atoms: C_17  and  S_18
REMARK    7  A    between atoms: S_18  and  C_19
REMARK    8  A    between atoms: C_19  and  C_20
REMARK                            x       y       z     vdW  Elec       q    Type
REMARK                         _______ _______ _______ _____ _____    ______ ____
ROOT
ATOM      1  C   UNL     1       1.118   2.519  20.921  0.00  0.00    +0.000 C 
ATOM      2  C   UNL     1       1.907   3.384  19.966  0.00  0.00    +0.000 A 
ATOM      3  C   UNL     1       2.065   4.819  20.346  0.00  0.00    +0.000 A 
ATOM      4  C   UNL     1       2.772   5.602  19.507  0.00  0.00    +0.000 A 
ATOM      5  N   UNL     1       3.326   5.002  18.357  0.00  0.00    +0.000 N 
ATOM      6  N   UNL     1       4.084   5.569  17.384  0.00  0.00    +0.000 NA
ATOM      7  C   UNL     1       4.228   4.561  16.518  0.00  0.00    +0.000 A 
ATOM      8  N   UNL     1       3.653   3.382  16.885  0.00  0.00    +0.000 NA
ATOM      9  C   UNL     1       3.101   3.655  18.051  0.00  0.00    +0.000 A 
ATOM     10  N   UNL     1       2.389   2.838  18.888  0.00  0.00    +0.000 NA
ENDROOT
BRANCH   4  11
ATOM     11  N   UNL     1       2.994   6.964  19.722  0.00  0.00    +0.000 N 
ATOM     12  H   UNL     1       3.911   7.262  19.374  0.00  0.00    +0.000 HD
BRANCH  11  13
ATOM     13  C   UNL     1       2.023   7.981  19.528  0.00  0.00    +0.000 A 
ATOM     14  C   UNL     1       1.258   8.521  20.572  0.00  0.00    +0.000 A 
ATOM     15  C   UNL     1       0.386   9.592  20.352  0.00  0.00    +0.000 A 
ATOM     16  C   UNL     1       0.258  10.154  19.079  0.00  0.00    +0.000 A 
ATOM     17  C   UNL     1       1.007   9.624  18.023  0.00  0.00    +0.000 A 
ATOM     18  C   UNL     1       1.877   8.544  18.251  0.00  0.00    +0.000 A 
BRANCH  16  19
ATOM     19  C   UNL     1      -0.615  11.348  18.942  0.00  0.00    +0.000 C 
ATOM     20  O   UNL     1      -1.326  11.533  17.964  0.00  0.00    +0.000 OA
BRANCH  19  21
ATOM     21  O   UNL     1      -0.548  12.221  19.966  0.00  0.00    +0.000 OA
ATOM     22  H   UNL     1       0.119  12.926  19.869  0.00  0.00    +0.000 HD
ENDBRANCH  19  21
ENDBRANCH  16  19
ENDBRANCH  11  13
ENDBRANCH   4  11
BRANCH   7  23
ATOM     23  S   UNL     1       5.163   4.798  15.063  0.00  0.00    +0.000 S 
BRANCH  23  24
ATOM     24  C   UNL     1       6.847   4.377  15.601  0.00  0.00    +0.000 C 
BRANCH  24  25
ATOM     25  C   UNL     1       7.291   5.263  16.749  0.00  0.00    +0.000 A 
ATOM     26  C   UNL     1       7.662   4.705  17.983  0.00  0.00    +0.000 A 
ATOM     27  C   UNL     1       8.036   5.519  19.056  0.00  0.00    +0.000 A 
ATOM     28  C   UNL     1       8.047   6.906  18.913  0.00  0.00    +0.000 A 
ATOM     29  C   UNL     1       7.685   7.476  17.696  0.00  0.00    +0.000 A 
ATOM     30  C   UNL     1       7.309   6.663  16.621  0.00  0.00    +0.000 A 
ENDBRANCH  24  25
ENDBRANCH  23  24
ENDBRANCH   7  23
TORSDOF 7
ENDMDL
MODEL 5
REMARK VINA RESULT:      -8.0      1.727      2.827
REMARK  Name = 
REMARK  8 active torsions:
REMARK  status: ('A' for Active; 'I' for Inactive)
REMARK    1  A    between atoms: C_1  and  C_2
REMARK    2  A    between atoms: C_4  and  N_5
REMARK    3  A    between atoms: N_5  and  C_6
REMARK    4  A    between atoms: C_9  and  C_10
REMARK    5  A    between atoms: C_10  and  O_12
REMARK    6  A    between atoms: C_17  and  S_18
REMARK    7  A    between atoms: S_18  and  C_19
REMARK    8  A    between atoms: C_19  and  C_20
REMARK                            x       y       z     vdW  Elec       q    Type
REMARK                         _______ _______ _______ _____ _____    ______ ____
ROOT
ATOM      1  C   UNL     1       1.086   2.841  20.989  0.00  0.00    +0.000 C 
ATOM      2  C   UNL     1       1.814   3.932  20.238  0.00  0.00    +0.000 A 
ATOM      3  C   UNL     1       1.679   5.316  20.781  0.00  0.00    +0.000 A 
ATOM      4  C   UNL     1       2.328   6.299  20.126  0.00  0.00    +0.000 A 
ATOM      5  N   UNL     1       3.100   5.941  19.001  0.00  0.00    +0.000 N 
ATOM      6  N   UNL     1       3.850   6.738  18.198  0.00  0.00    +0.000 NA
ATOM      7  C   UNL     1       4.261   5.880  17.258  0.00  0.00    +0.000 A 
ATOM      8  N   UNL     1       3.862   4.589  17.424  0.00  0.00    +0.000 NA
ATOM      9  C   UNL     1       3.146   4.624  18.531  0.00  0.00    +0.000 A 
ATOM     10  N   UNL     1       2.499   3.607  19.180  0.00  0.00    +0.000 NA
ENDROOT
BRANCH   4  11
ATOM     11  N   UNL     1       2.287   7.642  20.507  0.00  0.00    +0.000 N 
ATOM     12  H   UNL     1       3.226   8.034  20.633  0.00  0.00    +0.000 HD
BRANCH  11  13
ATOM     13  C   UNL     1       1.402   8.609  19.962  0.00  0.00    +0.000 A 
ATOM     14  C   UNL     1       1.426   9.000  18.617  0.00  0.00    +0.000 A 
ATOM     15  C   UNL     1       0.470   9.881  18.100  0.00  0.00    +0.000 A 
ATOM     16  C   UNL     1      -0.540  10.392  18.920  0.00  0.00    +0.000 A 
ATOM     17  C   UNL     1      -0.576  10.021  20.268  0.00  0.00    +0.000 A 
ATOM     18  C   UNL     1       0.392   9.139  20.780  0.00  0.00    +0.000 A 
BRANCH  16  19
ATOM     19  C   UNL     1      -1.574  11.247  18.281  0.00  0.00    +0.000 C 
ATOM     20  O   UNL     1      -1.347  12.392  17.918  0.00  0.00    +0.000 OA
BRANCH  19  21
ATOM     21  O   UNL     1      -2.785  10.671  18.152  0.00  0.00    +0.000 OA
ATOM     22  H   UNL     1      -3.172  10.711  17.258  0.00  0.00    +0.000 HD
ENDBRANCH  19  21
ENDBRANCH  16  19
ENDBRANCH  11  13
ENDBRANCH   4  11
BRANCH   7  23
ATOM     23  S   UNL     1       5.295   6.441  15.968  0.00  0.00    +0.000 S 
BRANCH  23  24
ATOM     24  C   UNL     1       6.502   5.091  15.813  0.00  0.00    +0.000 C 
BRANCH  24  25
ATOM     25  C   UNL     1       6.668   4.670  14.366  0.00  0.00    +0.000 A 
ATOM     26  C   UNL     1       7.633   5.280  13.548  0.00  0.00    +0.000 A 
ATOM     27  C   UNL     1       7.765   4.922  12.204  0.00  0.00    +0.000 A 
ATOM     28  C   UNL     1       6.934   3.947  11.653  0.00  0.00    +0.000 A 
ATOM     29  C   UNL     1       5.974   3.330  12.450  0.00  0.00    +0.000 A 
ATOM     30  C   UNL     1       5.840   3.687  13.796  0.00  0.00    +0.000 A 
ENDBRANCH  24  25
ENDBRANCH  23  24
ENDBRANCH   7  23
TORSDOF 7
ENDMDL
MODEL 6
REMARK VINA RESULT:      -8.0      1.756      2.715
REMARK  Name = 
REMARK  8 active torsions:
REMARK  status: ('A' for Active; 'I' for Inactive)
REMARK    1  A    between atoms: C_1  and  C_2
REMARK    2  A    between atoms: C_4  and  N_5
REMARK    3  A    between atoms: N_5  and  C_6
REMARK    4  A    between atoms: C_9  and  C_10
REMARK    5  A    between atoms: C_10  and  O_12
REMARK    6  A    between atoms: C_17  and  S_18
REMARK    7  A    between atoms: S_18  and  C_19
REMARK    8  A    between atoms: C_19  and  C_20
REMARK                            x       y       z     vdW  Elec       q    Type
REMARK                         _______ _______ _______ _____ _____    ______ ____
ROOT
ATOM      1  C   UNL     1       1.162   1.911  18.595  0.00  0.00    +0.000 C 
ATOM      2  C   UNL     1       2.190   2.955  18.965  0.00  0.00    +0.000 A 
ATOM      3  C   UNL     1       1.695   4.126  19.748  0.00  0.00    +0.000 A 
ATOM      4  C   UNL     1       2.601   5.063  20.091  0.00  0.00    +0.000 A 
ATOM      5  N   UNL     1       3.942   4.852  19.708  0.00  0.00    +0.000 N 
ATOM      6  N   UNL     1       5.027   5.632  19.950  0.00  0.00    +0.000 NA
ATOM      7  C   UNL     1       5.987   4.993  19.273  0.00  0.00    +0.000 A 
ATOM      8  N   UNL     1       5.604   3.843  18.652  0.00  0.00    +0.000 NA
ATOM      9  C   UNL     1       4.321   3.745  18.941  0.00  0.00    +0.000 A 
ATOM     10  N   UNL     1       3.421   2.778  18.582  0.00  0.00    +0.000 NA
ENDROOT
BRANCH   4  11
ATOM     11  N   UNL     1       2.286   6.217  20.812  0.00  0.00    +0.000 N 
ATOM     12  H   UNL     1       2.968   6.402  21.555  0.00  0.00    +0.000 HD
BRANCH  11  13
ATOM     13  C   UNL     1       1.821   7.428  20.235  0.00  0.00    +0.000 A 
ATOM     14  C   UNL     1       1.114   8.400  20.956  0.00  0.00    +0.000 A 
ATOM     15  C   UNL     1       0.764   9.623  20.373  0.00  0.00    +0.000 A 
ATOM     16  C   UNL     1       1.118   9.905  19.051  0.00  0.00    +0.000 A 
ATOM     17  C   UNL     1       1.816   8.945  18.313  0.00  0.00    +0.000 A 
ATOM     18  C   UNL     1       2.159   7.716  18.904  0.00  0.00    +0.000 A 
BRANCH  16  19
ATOM     19  C   UNL     1       0.795  11.260  18.531  0.00  0.00    +0.000 C 
ATOM     20  O   UNL     1       1.537  12.219  18.691  0.00  0.00    +0.000 OA
BRANCH  19  21
ATOM     21  O   UNL     1      -0.386  11.354  17.890  0.00  0.00    +0.000 OA
ATOM     22  H   UNL     1      -0.950  12.102  18.164  0.00  0.00    +0.000 HD
ENDBRANCH  19  21
ENDBRANCH  16  19
ENDBRANCH  11  13
ENDBRANCH   4  11
BRANCH   7  23
ATOM     23  S   UNL     1       7.616   5.619  19.286  0.00  0.00    +0.000 S 
BRANCH  23  24
ATOM     24  C   UNL     1       7.644   6.682  17.812  0.00  0.00    +0.000 C 
BRANCH  24  25
ATOM     25  C   UNL     1       6.925   6.024  16.651  0.00  0.00    +0.000 A 
ATOM     26  C   UNL     1       7.500   4.936  15.975  0.00  0.00    +0.000 A 
ATOM     27  C   UNL     1       6.860   4.350  14.881  0.00  0.00    +0.000 A 
ATOM     28  C   UNL     1       5.631   4.842  14.442  0.00  0.00    +0.000 A 
ATOM     29  C   UNL     1       5.044   5.918  15.101  0.00  0.00    +0.000 A 
ATOM     30  C   UNL     1       5.685   6.507  16.197  0.00  0.00    +0.000 A 
ENDBRANCH  24  25
ENDBRANCH  23  24
ENDBRANCH   7  23
TORSDOF 7
ENDMDL
MODEL 7
REMARK VINA RESULT:      -7.8      1.665      2.608
REMARK  Name = 
REMARK  8 active torsions:
REMARK  status: ('A' for Active; 'I' for Inactive)
REMARK    1  A    between atoms: C_1  and  C_2
REMARK    2  A    between atoms: C_4  and  N_5
REMARK    3  A    between atoms: N_5  and  C_6
REMARK    4  A    between atoms: C_9  and  C_10
REMARK    5  A    between atoms: C_10  and  O_12
REMARK    6  A    between atoms: C_17  and  S_18
REMARK    7  A    between atoms: S_18  and  C_19
REMARK    8  A    between atoms: C_19  and  C_20
REMARK                            x       y       z     vdW  Elec       q    Type
REMARK                         _______ _______ _______ _____ _____    ______ ____
ROOT
ATOM      1  C   UNL     1       0.801   2.249  18.733  0.00  0.00    +0.000 C 
ATOM      2  C   UNL     1       1.904   3.230  19.055  0.00  0.00    +0.000 A 
ATOM      3  C   UNL     1       1.508   4.444  19.829  0.00  0.00    +0.000 A 
ATOM      4  C   UNL     1       2.482   5.326  20.129  0.00  0.00    +0.000 A 
ATOM      5  N   UNL     1       3.796   5.021  19.714  0.00  0.00    +0.000 N 
ATOM      6  N   UNL     1       4.935   5.732  19.912  0.00  0.00    +0.000 NA
ATOM      7  C   UNL     1       5.833   5.021  19.222  0.00  0.00    +0.000 A 
ATOM      8  N   UNL     1       5.358   3.888  18.633  0.00  0.00    +0.000 NA
ATOM      9  C   UNL     1       4.081   3.879  18.959  0.00  0.00    +0.000 A 
ATOM     10  N   UNL     1       3.110   2.966  18.643  0.00  0.00    +0.000 NA
ENDROOT
BRANCH   4  11
ATOM     11  N   UNL     1       2.264   6.511  20.835  0.00  0.00    +0.000 N 
ATOM     12  H   UNL     1       3.064   6.757  21.427  0.00  0.00    +0.000 HD
BRANCH  11  13
ATOM     13  C   UNL     1       1.655   7.673  20.294  0.00  0.00    +0.000 A 
ATOM     14  C   UNL     1       0.811   8.513  21.033  0.00  0.00    +0.000 A 
ATOM     15  C   UNL     1       0.314   9.702  20.490  0.00  0.00    +0.000 A 
ATOM     16  C   UNL     1       0.653  10.084  19.189  0.00  0.00    +0.000 A 
ATOM     17  C   UNL     1       1.487   9.255  18.432  0.00  0.00    +0.000 A 
ATOM     18  C   UNL     1       1.978   8.058  18.984  0.00  0.00    +0.000 A 
BRANCH  16  19
ATOM     19  C   UNL     1       0.165  11.404  18.713  0.00  0.00    +0.000 C 
ATOM     20  O   UNL     1      -0.887  11.535  18.104  0.00  0.00    +0.000 OA
BRANCH  19  21
ATOM     21  O   UNL     1       0.981  12.442  18.984  0.00  0.00    +0.000 OA
ATOM     22  H   UNL     1       0.592  13.143  19.539  0.00  0.00    +0.000 HD
ENDBRANCH  19  21
ENDBRANCH  16  19
ENDBRANCH  11  13
ENDBRANCH   4  11
BRANCH   7  23
ATOM     23  S   UNL     1       7.499   5.539  19.179  0.00  0.00    +0.000 S 
BRANCH  23  24
ATOM     24  C   UNL     1       7.537   6.629  17.726  0.00  0.00    +0.000 C 
BRANCH  24  25
ATOM     25  C   UNL     1       6.880   5.968  16.530  0.00  0.00    +0.000 A 
ATOM     26  C   UNL     1       5.672   6.462  16.012  0.00  0.00    +0.000 A 
ATOM     27  C   UNL     1       5.042   5.835  14.934  0.00  0.00    +0.000 A 
ATOM     28  C   UNL     1       5.612   4.702  14.352  0.00  0.00    +0.000 A 
ATOM     29  C   UNL     1       6.811   4.201  14.851  0.00  0.00    +0.000 A 
ATOM     30  C   UNL     1       7.442   4.827  15.931  0.00  0.00    +0.000 A 
ENDBRANCH  24  25
ENDBRANCH  23  24
ENDBRANCH   7  23
TORSDOF 7
ENDMDL
MODEL 8
REMARK VINA RESULT:      -7.8      1.776      3.019
REMARK  Name = 
REMARK  8 active torsions:
REMARK  status: ('A' for Active; 'I' for Inactive)
REMARK    1  A    between atoms: C_1  and  C_2
REMARK    2  A    between atoms: C_4  and  N_5
REMARK    3  A    between atoms: N_5  and  C_6
REMARK    4  A    between atoms: C_9  and  C_10
REMARK    5  A    between atoms: C_10  and  O_12
REMARK    6  A    between atoms: C_17  and  S_18
REMARK    7  A    between atoms: S_18  and  C_19
REMARK    8  A    between atoms: C_19  and  C_20
REMARK                            x       y       z     vdW  Elec       q    Type
REMARK                         _______ _______ _______ _____ _____    ______ ____
ROOT
ATOM      1  C   UNL     1       0.461   2.303  18.973  0.00  0.00    +0.000 C 
ATOM      2  C   UNL     1       1.486   3.405  18.834  0.00  0.00    +0.000 A 
ATOM      3  C   UNL     1       1.387   4.530  19.811  0.00  0.00    +0.000 A 
ATOM      4  C   UNL     1       2.298   5.517  19.703  0.00  0.00    +0.000 A 
ATOM      5  N   UNL     1       3.283   5.398  18.701  0.00  0.00    +0.000 N 
ATOM      6  N   UNL     1       4.306   6.241  18.410  0.00  0.00    +0.000 NA
ATOM      7  C   UNL     1       4.835   5.675  17.321  0.00  0.00    +0.000 A 
ATOM      8  N   UNL     1       4.250   4.513  16.919  0.00  0.00    +0.000 NA
ATOM      9  C   UNL     1       3.285   4.329  17.798  0.00  0.00    +0.000 A 
ATOM     10  N   UNL     1       2.373   3.312  17.887  0.00  0.00    +0.000 NA
ENDROOT
BRANCH   4  11
ATOM     11  N   UNL     1       2.326   6.638  20.536  0.00  0.00    +0.000 N 
ATOM     12  H   UNL     1       3.281   6.878  20.824  0.00  0.00    +0.000 HD
BRANCH  11  13
ATOM     13  C   UNL     1       1.545   7.808  20.343  0.00  0.00    +0.000 A 
ATOM     14  C   UNL     1       0.739   8.366  21.343  0.00  0.00    +0.000 A 
ATOM     15  C   UNL     1       0.065   9.576  21.141  0.00  0.00    +0.000 A 
ATOM     16  C   UNL     1       0.186  10.260  19.928  0.00  0.00    +0.000 A 
ATOM     17  C   UNL     1       0.980   9.715  18.915  0.00  0.00    +0.000 A 
ATOM     18  C   UNL     1       1.648   8.496  19.124  0.00  0.00    +0.000 A 
BRANCH  16  19
ATOM     19  C   UNL     1      -0.481  11.584  19.821  0.00  0.00    +0.000 C 
ATOM     20  O   UNL     1      -0.369  12.298  18.834  0.00  0.00    +0.000 OA
BRANCH  19  21
ATOM     21  O   UNL     1      -1.201  11.946  20.901  0.00  0.00    +0.000 OA
ATOM     22  H   UNL     1      -1.112  11.359  21.675  0.00  0.00    +0.000 HD
ENDBRANCH  19  21
ENDBRANCH  16  19
ENDBRANCH  11  13
ENDBRANCH   4  11
BRANCH   7  23
ATOM     23  S   UNL     1       6.226   6.403  16.557  0.00  0.00    +0.000 S 
BRANCH  23  24
ATOM     24  C   UNL     1       7.221   4.956  16.086  0.00  0.00    +0.000 C 
BRANCH  24  25
ATOM     25  C   UNL     1       7.086   4.659  14.605  0.00  0.00    +0.000 A 
ATOM     26  C   UNL     1       7.869   5.345  13.662  0.00  0.00    +0.000 A 
ATOM     27  C   UNL     1       7.724   5.102  12.294  0.00  0.00    +0.000 A 
ATOM     28  C   UNL     1       6.790   4.167  11.844  0.00  0.00    +0.000 A 
ATOM     29  C   UNL     1       6.008   3.477  12.764  0.00  0.00    +0.000 A 
ATOM     30  C   UNL     1       6.152   3.719  14.135  0.00  0.00    +0.000 A 
ENDBRANCH  24  25
ENDBRANCH  23  24
ENDBRANCH   7  23
TORSDOF 7
ENDMDL
MODEL 9
REMARK VINA RESULT:      -7.7      1.296      1.991
REMARK  Name = 
REMARK  8 active torsions:
REMARK  status: ('A' for Active; 'I' for Inactive)
REMARK    1  A    between atoms: C_1  and  C_2
REMARK    2  A    between atoms: C_4  and  N_5
REMARK    3  A    between atoms: N_5  and  C_6
REMARK    4  A    between atoms: C_9  and  C_10
REMARK    5  A    between atoms: C_10  and  O_12
REMARK    6  A    between atoms: C_17  and  S_18
REMARK    7  A    between atoms: S_18  and  C_19
REMARK    8  A    between atoms: C_19  and  C_20
REMARK                            x       y       z     vdW  Elec       q    Type
REMARK                         _______ _______ _______ _____ _____    ______ ____
ROOT
ATOM      1  C   UNL     1       1.204   3.148  21.237  0.00  0.00    +0.000 C 
ATOM      2  C   UNL     1       1.931   3.853  20.115  0.00  0.00    +0.000 A 
ATOM      3  C   UNL     1       1.862   5.344  20.113  0.00  0.00    +0.000 A 
ATOM      4  C   UNL     1       2.510   5.987  19.122  0.00  0.00    +0.000 A 
ATOM      5  N   UNL     1       3.221   5.207  18.186  0.00  0.00    +0.000 N 
ATOM      6  N   UNL     1       3.959   5.618  17.123  0.00  0.00    +0.000 NA
ATOM      7  C   UNL     1       4.302   4.458  16.555  0.00  0.00    +0.000 A 
ATOM      8  N   UNL     1       3.871   3.337  17.198  0.00  0.00    +0.000 NA
ATOM      9  C   UNL     1       3.207   3.809  18.234  0.00  0.00    +0.000 A 
ATOM     10  N   UNL     1       2.558   3.131  19.232  0.00  0.00    +0.000 NA
ENDROOT
BRANCH   4  11
ATOM     11  N   UNL     1       2.527   7.377  18.981  0.00  0.00    +0.000 N 
ATOM     12  H   UNL     1       2.514   7.663  17.997  0.00  0.00    +0.000 HD
BRANCH  11  13
ATOM     13  C   UNL     1       1.777   8.278  19.782  0.00  0.00    +0.000 A 
ATOM     14  C   UNL     1       1.033   9.340  19.251  0.00  0.00    +0.000 A 
ATOM     15  C   UNL     1       0.228  10.142  20.068  0.00  0.00    +0.000 A 
ATOM     16  C   UNL     1       0.145   9.897  21.441  0.00  0.00    +0.000 A 
ATOM     17  C   UNL     1       0.887   8.846  21.991  0.00  0.00    +0.000 A 
ATOM     18  C   UNL     1       1.698   8.049  21.164  0.00  0.00    +0.000 A 
BRANCH  16  19
ATOM     19  C   UNL     1      -0.801  10.728  22.229  0.00  0.00    +0.000 C 
ATOM     20  O   UNL     1      -1.436  11.649  21.734  0.00  0.00    +0.000 OA
BRANCH  19  21
ATOM     21  O   UNL     1      -0.890  10.404  23.534  0.00  0.00    +0.000 OA
ATOM     22  H   UNL     1      -1.126  11.139  24.130  0.00  0.00    +0.000 HD
ENDBRANCH  19  21
ENDBRANCH  16  19
ENDBRANCH  11  13
ENDBRANCH   4  11
BRANCH   7  23
ATOM     23  S   UNL     1       5.294   4.458  15.118  0.00  0.00    +0.000 S 
BRANCH  23  24
ATOM     24  C   UNL     1       6.950   4.109  15.781  0.00  0.00    +0.000 C 
BRANCH  24  25
ATOM     25  C   UNL     1       7.345   5.131  16.830  0.00  0.00    +0.000 A 
ATOM     26  C   UNL     1       7.703   4.726  18.126  0.00  0.00    +0.000 A 
ATOM     27  C   UNL     1       8.032   5.665  19.107  0.00  0.00    +0.000 A 
ATOM     28  C   UNL     1       8.010   7.028  18.808  0.00  0.00    +0.000 A 
ATOM     29  C   UNL     1       7.661   7.446  17.528  0.00  0.00    +0.000 A 
ATOM     30  C   UNL     1       7.330   6.507  16.544  0.00  0.00    +0.000 A 
ENDBRANCH  24  25
ENDBRANCH  23  24
ENDBRANCH   7  23
TORSDOF 7
ENDMDL
