MODEL 1
REMARK VINA RESULT:      -8.2      0.000      0.000
REMARK  Name = 
REMARK  6 active torsions:
REMARK  status: ('A' for Active; 'I' for Inactive)
REMARK    1  A    between atoms: C_1  and  N_2
REMARK    2  A    between atoms: C_3  and  C_5
REMARK    3  A    between atoms: N_7  and  C_8
REMARK    4  A    between atoms: C_8  and  C_9
REMARK    5  A    between atoms: C_11  and  C_12
REMARK    6  A    between atoms: C_18  and  C_19
REMARK                            x       y       z     vdW  Elec       q    Type
REMARK                         _______ _______ _______ _____ _____    ______ ____
ROOT
ATOM      1  C   UNL     1       3.043   5.944  17.817  0.00  0.00    +0.000 C 
ATOM      2  C   UNL     1       4.584   5.985  17.858  0.00  0.00    +0.000 C 
ATOM      3  N   UNL     1       5.369   4.748  17.910  0.00  0.00    +0.000 NA
ATOM      4  C   UNL     1       5.167   4.043  19.183  0.00  0.00    +0.000 C 
ATOM      5  C   UNL     1       3.903   3.180  19.337  0.00  0.00    +0.000 C 
ATOM      6  N   UNL     1       2.657   3.951  19.381  0.00  0.00    +0.000 N 
ATOM      7  C   UNL     1       1.689   3.879  20.380  0.00  0.00    +0.000 C 
ATOM      8  C   UNL     1       1.915   3.033  21.612  0.00  0.00    +0.000 C 
ATOM      9  O   UNL     1       0.649   4.533  20.319  0.00  0.00    +0.000 OA
ATOM     10  C   UNL     1       2.291   4.649  18.137  0.00  0.00    +0.000 C 
ENDROOT
BRANCH   1  13
ATOM     11  C   UNL     1       1.422   9.275  18.661  0.00  0.00    +0.000 C 
ATOM     12  N   UNL     1       1.924   8.111  17.982  0.00  0.00    +0.000 N 
ATOM     13  C   UNL     1       2.502   7.073  18.685  0.00  0.00    +0.000 C 
ATOM     14  O   UNL     1       2.548   7.031  19.910  0.00  0.00    +0.000 OA
ATOM     15  H   UNL     1       2.217   8.222  17.023  0.00  0.00    +0.000 HD
ENDBRANCH   1  13
BRANCH   3  16
ATOM     16  C   UNL     1       5.283   3.887  16.721  0.00  0.00    +0.000 C 
BRANCH  16  17
ATOM     17  C   UNL     1       6.173   4.351  15.609  0.00  0.00    +0.000 A 
ATOM     18  C   UNL     1       5.996   4.212  14.214  0.00  0.00    +0.000 A 
ATOM     19  C   UNL     1       7.099   4.819  13.665  0.00  0.00    +0.000 A 
ATOM     20  C   UNL     1       7.573   5.017  12.285  0.00  0.00    +0.000 C 
ATOM     21  O   UNL     1       7.878   5.316  14.662  0.00  0.00    +0.000 OA
ATOM     22  N   UNL     1       7.301   5.026  15.886  0.00  0.00    +0.000 NA
ENDBRANCH  16  17
ENDBRANCH   3  16
TORSDOF 3
ENDMDL
MODEL 2
REMARK VINA RESULT:      -7.1      1.221      3.347
REMARK  Name = 
REMARK  6 active torsions:
REMARK  status: ('A' for Active; 'I' for Inactive)
REMARK    1  A    between atoms: C_1  and  N_2
REMARK    2  A    between atoms: C_3  and  C_5
REMARK    3  A    between atoms: N_7  and  C_8
REMARK    4  A    between atoms: C_8  and  C_9
REMARK    5  A    between atoms: C_11  and  C_12
REMARK    6  A    between atoms: C_18  and  C_19
REMARK                            x       y       z     vdW  Elec       q    Type
REMARK                         _______ _______ _______ _____ _____    ______ ____
ROOT
ATOM      1  C   UNL     1       3.884   3.742  19.382  0.00  0.00    +0.000 C 
ATOM      2  C   UNL     1       3.954   3.114  17.975  0.00  0.00    +0.000 C 
ATOM      3  N   UNL     1       4.579   3.832  16.861  0.00  0.00    +0.000 NA
ATOM      4  C   UNL     1       3.803   5.024  16.493  0.00  0.00    +0.000 C 
ATOM      5  C   UNL     1       3.989   6.295  17.341  0.00  0.00    +0.000 C 
ATOM      6  N   UNL     1       3.471   6.179  18.708  0.00  0.00    +0.000 N 
ATOM      7  C   UNL     1       2.560   7.045  19.309  0.00  0.00    +0.000 C 
ATOM      8  C   UNL     1       1.923   8.164  18.518  0.00  0.00    +0.000 C 
ATOM      9  O   UNL     1       2.207   6.899  20.479  0.00  0.00    +0.000 OA
ATOM     10  C   UNL     1       4.179   5.231  19.584  0.00  0.00    +0.000 C 
ENDROOT
BRANCH   1  13
ATOM     11  C   UNL     1       1.404   2.595  22.021  0.00  0.00    +0.000 C 
ATOM     12  N   UNL     1       2.590   3.003  21.320  0.00  0.00    +0.000 N 
ATOM     13  C   UNL     1       2.533   3.403  20.000  0.00  0.00    +0.000 C 
ATOM     14  O   UNL     1       1.484   3.519  19.375  0.00  0.00    +0.000 OA
ATOM     15  H   UNL     1       3.471   2.628  21.638  0.00  0.00    +0.000 HD
ENDBRANCH   1  13
BRANCH   3  16
ATOM     16  C   UNL     1       6.026   4.066  16.982  0.00  0.00    +0.000 C 
BRANCH  16  17
ATOM     17  C   UNL     1       6.651   4.490  15.688  0.00  0.00    +0.000 A 
ATOM     18  C   UNL     1       6.402   4.008  14.383  0.00  0.00    +0.000 A 
ATOM     19  C   UNL     1       7.239   4.744  13.580  0.00  0.00    +0.000 A 
ATOM     20  C   UNL     1       7.518   4.751  12.134  0.00  0.00    +0.000 C 
ATOM     21  O   UNL     1       7.929   5.630  14.345  0.00  0.00    +0.000 OA
ATOM     22  N   UNL     1       7.563   5.476  15.672  0.00  0.00    +0.000 NA
ENDBRANCH  16  17
ENDBRANCH   3  16
TORSDOF 3
ENDMDL
MODEL 3
REMARK VINA RESULT:      -7.1      2.495      6.601
REMARK  Name = 
REMARK  6 active torsions:
REMARK  status: ('A' for Active; 'I' for Inactive)
REMARK    1  A    between atoms: C_1  and  N_2
REMARK    2  A    between atoms: C_3  and  C_5
REMARK    3  A    between atoms: N_7  and  C_8
REMARK    4  A    between atoms: C_8  and  C_9
REMARK    5  A    between atoms: C_11  and  C_12
REMARK    6  A    between atoms: C_18  and  C_19
REMARK                            x       y       z     vdW  Elec       q    Type
REMARK                         _______ _______ _______ _____ _____    ______ ____
ROOT
ATOM      1  C   UNL     1       6.673   5.634  17.963  0.00  0.00    +0.000 C 
ATOM      2  C   UNL     1       5.202   5.552  18.418  0.00  0.00    +0.000 C 
ATOM      3  N   UNL     1       4.402   4.351  18.164  0.00  0.00    +0.000 NA
ATOM      4  C   UNL     1       4.163   4.163  16.727  0.00  0.00    +0.000 C 
ATOM      5  C   UNL     1       5.283   3.525  15.888  0.00  0.00    +0.000 C 
ATOM      6  N   UNL     1       6.474   4.367  15.746  0.00  0.00    +0.000 N 
ATOM      7  C   UNL     1       7.070   4.738  14.542  0.00  0.00    +0.000 C 
ATOM      8  C   UNL     1       6.435   4.368  13.221  0.00  0.00    +0.000 C 
ATOM      9  O   UNL     1       8.096   5.416  14.512  0.00  0.00    +0.000 OA
ATOM     10  C   UNL     1       7.241   4.607  16.979  0.00  0.00    +0.000 C 
ENDROOT
BRANCH   1  13
ATOM     11  C   UNL     1       8.265   9.079  17.785  0.00  0.00    +0.000 C 
ATOM     12  N   UNL     1       7.937   7.721  18.123  0.00  0.00    +0.000 N 
ATOM     13  C   UNL     1       6.946   7.041  17.444  0.00  0.00    +0.000 C 
ATOM     14  O   UNL     1       6.352   7.502  16.475  0.00  0.00    +0.000 OA
ATOM     15  H   UNL     1       8.125   7.417  19.066  0.00  0.00    +0.000 HD
ENDBRANCH   1  13
BRANCH   3  16
ATOM     16  C   UNL     1       4.834   3.135  18.870  0.00  0.00    +0.000 C 
BRANCH  16  17
ATOM     17  C   UNL     1       3.947   2.796  20.029  0.00  0.00    +0.000 A 
ATOM     18  C   UNL     1       2.579   3.099  20.217  0.00  0.00    +0.000 A 
ATOM     19  C   UNL     1       2.270   2.551  21.438  0.00  0.00    +0.000 A 
ATOM     20  C   UNL     1       1.049   2.512  22.259  0.00  0.00    +0.000 C 
ATOM     21  O   UNL     1       3.372   1.936  21.944  0.00  0.00    +0.000 OA
ATOM     22  N   UNL     1       4.429   2.086  21.061  0.00  0.00    +0.000 NA
ENDBRANCH  16  17
ENDBRANCH   3  16
TORSDOF 3
ENDMDL
MODEL 4
REMARK VINA RESULT:      -7.0      2.356      6.663
REMARK  Name = 
REMARK  6 active torsions:
REMARK  status: ('A' for Active; 'I' for Inactive)
REMARK    1  A    between atoms: C_1  and  N_2
REMARK    2  A    between atoms: C_3  and  C_5
REMARK    3  A    between atoms: N_7  and  C_8
REMARK    4  A    between atoms: C_8  and  C_9
REMARK    5  A    between atoms: C_11  and  C_12
REMARK    6  A    between atoms: C_18  and  C_19
REMARK                            x       y       z     vdW  Elec       q    Type
REMARK                         _______ _______ _______ _____ _____    ______ ____
ROOT
ATOM      1  C   UNL     1       5.515   5.123  15.484  0.00  0.00    +0.000 C 
ATOM      2  C   UNL     1       5.096   3.766  16.082  0.00  0.00    +0.000 C 
ATOM      3  N   UNL     1       4.484   3.684  17.411  0.00  0.00    +0.000 NA
ATOM      4  C   UNL     1       5.440   4.062  18.461  0.00  0.00    +0.000 C 
ATOM      5  C   UNL     1       5.670   5.561  18.721  0.00  0.00    +0.000 C 
ATOM      6  N   UNL     1       6.350   6.257  17.625  0.00  0.00    +0.000 N 
ATOM      7  C   UNL     1       7.510   7.020  17.740  0.00  0.00    +0.000 C 
ATOM      8  C   UNL     1       8.251   7.101  19.055  0.00  0.00    +0.000 C 
ATOM      9  O   UNL     1       7.994   7.608  16.775  0.00  0.00    +0.000 OA
ATOM     10  C   UNL     1       5.590   6.372  16.369  0.00  0.00    +0.000 C 
ENDROOT
BRANCH   1  13
ATOM     11  C   UNL     1       7.968   5.193  12.584  0.00  0.00    +0.000 C 
ATOM     12  N   UNL     1       6.814   5.354  13.426  0.00  0.00    +0.000 N 
ATOM     13  C   UNL     1       6.835   4.945  14.745  0.00  0.00    +0.000 C 
ATOM     14  O   UNL     1       7.838   4.508  15.300  0.00  0.00    +0.000 OA
ATOM     15  H   UNL     1       5.911   5.380  12.978  0.00  0.00    +0.000 HD
ENDBRANCH   1  13
BRANCH   3  16
ATOM     16  C   UNL     1       3.160   4.310  17.544  0.00  0.00    +0.000 C 
BRANCH  16  17
ATOM     17  C   UNL     1       2.339   3.693  18.635  0.00  0.00    +0.000 A 
ATOM     18  C   UNL     1       2.591   3.660  20.025  0.00  0.00    +0.000 A 
ATOM     19  C   UNL     1       1.522   2.978  20.553  0.00  0.00    +0.000 A 
ATOM     20  C   UNL     1       1.151   2.560  21.914  0.00  0.00    +0.000 C 
ATOM     21  O   UNL     1       0.666   2.644  19.550  0.00  0.00    +0.000 OA
ATOM     22  N   UNL     1       1.174   3.092  18.342  0.00  0.00    +0.000 NA
ENDBRANCH  16  17
ENDBRANCH   3  16
TORSDOF 3
ENDMDL
MODEL 5
REMARK VINA RESULT:      -6.8      2.514      2.996
REMARK  Name = 
REMARK  6 active torsions:
REMARK  status: ('A' for Active; 'I' for Inactive)
REMARK    1  A    between atoms: C_1  and  N_2
REMARK    2  A    between atoms: C_3  and  C_5
REMARK    3  A    between atoms: N_7  and  C_8
REMARK    4  A    between atoms: C_8  and  C_9
REMARK    5  A    between atoms: C_11  and  C_12
REMARK    6  A    between atoms: C_18  and  C_19
REMARK                            x       y       z     vdW  Elec       q    Type
REMARK                         _______ _______ _______ _____ _____    ______ ____
ROOT
ATOM      1  C   UNL     1       3.609   5.868  18.899  0.00  0.00    +0.000 C 
ATOM      2  C   UNL     1       4.901   5.464  19.636  0.00  0.00    +0.000 C 
ATOM      3  N   UNL     1       5.742   4.372  19.138  0.00  0.00    +0.000 NA
ATOM      4  C   UNL     1       5.054   3.078  19.246  0.00  0.00    +0.000 C 
ATOM      5  C   UNL     1       4.032   2.712  18.156  0.00  0.00    +0.000 C 
ATOM      6  N   UNL     1       2.823   3.540  18.172  0.00  0.00    +0.000 N 
ATOM      7  C   UNL     1       1.514   3.068  18.236  0.00  0.00    +0.000 C 
ATOM      8  C   UNL     1       1.234   1.594  18.413  0.00  0.00    +0.000 C 
ATOM      9  O   UNL     1       0.550   3.832  18.203  0.00  0.00    +0.000 OA
ATOM     10  C   UNL     1       3.012   4.958  17.821  0.00  0.00    +0.000 C 
ENDROOT
BRANCH   1  13
ATOM     11  C   UNL     1       1.208   8.003  20.926  0.00  0.00    +0.000 C 
ATOM     12  N   UNL     1       2.163   7.527  19.963  0.00  0.00    +0.000 N 
ATOM     13  C   UNL     1       2.540   6.200  19.933  0.00  0.00    +0.000 C 
ATOM     14  O   UNL     1       2.037   5.338  20.647  0.00  0.00    +0.000 OA
ATOM     15  H   UNL     1       2.830   8.192  19.602  0.00  0.00    +0.000 HD
ENDBRANCH   1  13
BRANCH   3  16
ATOM     16  C   UNL     1       6.390   4.606  17.839  0.00  0.00    +0.000 C 
BRANCH  16  17
ATOM     17  C   UNL     1       6.863   6.019  17.678  0.00  0.00    +0.000 A 
ATOM     18  C   UNL     1       7.801   6.734  18.457  0.00  0.00    +0.000 A 
ATOM     19  C   UNL     1       7.861   7.975  17.869  0.00  0.00    +0.000 A 
ATOM     20  C   UNL     1       8.601   9.211  18.170  0.00  0.00    +0.000 C 
ATOM     21  O   UNL     1       7.033   7.998  16.790  0.00  0.00    +0.000 OA
ATOM     22  N   UNL     1       6.404   6.771  16.665  0.00  0.00    +0.000 NA
ENDBRANCH  16  17
ENDBRANCH   3  16
TORSDOF 3
ENDMDL
MODEL 6
REMARK VINA RESULT:      -6.7      1.279      1.323
REMARK  Name = 
REMARK  6 active torsions:
REMARK  status: ('A' for Active; 'I' for Inactive)
REMARK    1  A    between atoms: C_1  and  N_2
REMARK    2  A    between atoms: C_3  and  C_5
REMARK    3  A    between atoms: N_7  and  C_8
REMARK    4  A    between atoms: C_8  and  C_9
REMARK    5  A    between atoms: C_11  and  C_12
REMARK    6  A    between atoms: C_18  and  C_19
REMARK                            x       y       z     vdW  Elec       q    Type
REMARK                         _______ _______ _______ _____ _____    ______ ____
ROOT
ATOM      1  C   UNL     1       2.872   5.704  17.645  0.00  0.00    +0.000 C 
ATOM      2  C   UNL     1       4.407   5.827  17.563  0.00  0.00    +0.000 C 
ATOM      3  N   UNL     1       5.264   4.642  17.659  0.00  0.00    +0.000 NA
ATOM      4  C   UNL     1       5.197   4.043  18.998  0.00  0.00    +0.000 C 
ATOM      5  C   UNL     1       3.999   3.133  19.322  0.00  0.00    +0.000 C 
ATOM      6  N   UNL     1       2.717   3.840  19.397  0.00  0.00    +0.000 N 
ATOM      7  C   UNL     1       1.830   3.807  20.471  0.00  0.00    +0.000 C 
ATOM      8  C   UNL     1       2.194   3.087  21.748  0.00  0.00    +0.000 C 
ATOM      9  O   UNL     1       0.752   4.398  20.435  0.00  0.00    +0.000 OA
ATOM     10  C   UNL     1       2.221   4.405  18.130  0.00  0.00    +0.000 C 
ENDROOT
BRANCH   1  13
ATOM     11  C   UNL     1       1.936   7.734  20.716  0.00  0.00    +0.000 C 
ATOM     12  N   UNL     1       2.454   6.736  19.821  0.00  0.00    +0.000 N 
ATOM     13  C   UNL     1       2.331   6.876  18.454  0.00  0.00    +0.000 C 
ATOM     14  O   UNL     1       1.861   7.874  17.917  0.00  0.00    +0.000 OA
ATOM     15  H   UNL     1       2.534   5.794  20.171  0.00  0.00    +0.000 HD
ENDBRANCH   1  13
BRANCH   3  16
ATOM     16  C   UNL     1       5.142   3.675  16.557  0.00  0.00    +0.000 C 
BRANCH  16  17
ATOM     17  C   UNL     1       5.884   4.107  15.328  0.00  0.00    +0.000 A 
ATOM     18  C   UNL     1       7.063   4.880  15.230  0.00  0.00    +0.000 A 
ATOM     19  C   UNL     1       7.304   4.968  13.881  0.00  0.00    +0.000 A 
ATOM     20  C   UNL     1       8.335   5.638  13.071  0.00  0.00    +0.000 C 
ATOM     21  O   UNL     1       6.349   4.272  13.209  0.00  0.00    +0.000 OA
ATOM     22  N   UNL     1       5.454   3.727  14.114  0.00  0.00    +0.000 NA
ENDBRANCH  16  17
ENDBRANCH   3  16
TORSDOF 3
ENDMDL
MODEL 7
REMARK VINA RESULT:      -6.6      2.512      4.168
REMARK  Name = 
REMARK  6 active torsions:
REMARK  status: ('A' for Active; 'I' for Inactive)
REMARK    1  A    between atoms: C_1  and  N_2
REMARK    2  A    between atoms: C_3  and  C_5
REMARK    3  A    between atoms: N_7  and  C_8
REMARK    4  A    between atoms: C_8  and  C_9
REMARK    5  A    between atoms: C_11  and  C_12
REMARK    6  A    between atoms: C_18  and  C_19
REMARK                            x       y       z     vdW  Elec       q    Type
REMARK                         _______ _______ _______ _____ _____    ______ ____
ROOT
ATOM      1  C   UNL     1       4.045   3.194  18.334  0.00  0.00    +0.000 C 
ATOM      2  C   UNL     1       4.576   3.616  16.950  0.00  0.00    +0.000 C 
ATOM      3  N   UNL     1       5.392   4.824  16.792  0.00  0.00    +0.000 NA
ATOM      4  C   UNL     1       4.608   6.035  17.069  0.00  0.00    +0.000 C 
ATOM      5  C   UNL     1       4.397   6.438  18.539  0.00  0.00    +0.000 C 
ATOM      6  N   UNL     1       3.541   5.516  19.291  0.00  0.00    +0.000 N 
ATOM      7  C   UNL     1       2.402   5.868  20.012  0.00  0.00    +0.000 C 
ATOM      8  C   UNL     1       1.876   7.284  19.979  0.00  0.00    +0.000 C 
ATOM      9  O   UNL     1       1.761   5.036  20.652  0.00  0.00    +0.000 OA
ATOM     10  C   UNL     1       4.091   4.168  19.515  0.00  0.00    +0.000 C 
ENDROOT
BRANCH   1  13
ATOM     11  C   UNL     1       0.624   1.904  19.365  0.00  0.00    +0.000 C 
ATOM     12  N   UNL     1       1.949   2.460  19.356  0.00  0.00    +0.000 N 
ATOM     13  C   UNL     1       2.628   2.659  18.171  0.00  0.00    +0.000 C 
ATOM     14  O   UNL     1       2.130   2.462  17.066  0.00  0.00    +0.000 OA
ATOM     15  H   UNL     1       2.514   2.329  20.181  0.00  0.00    +0.000 HD
ENDBRANCH   1  13
BRANCH   3  16
ATOM     16  C   UNL     1       6.710   4.794  17.444  0.00  0.00    +0.000 C 
BRANCH  16  17
ATOM     17  C   UNL     1       7.325   6.154  17.562  0.00  0.00    +0.000 A 
ATOM     18  C   UNL     1       7.858   6.791  18.706  0.00  0.00    +0.000 A 
ATOM     19  C   UNL     1       8.290   8.012  18.250  0.00  0.00    +0.000 A 
ATOM     20  C   UNL     1       8.914   9.179  18.895  0.00  0.00    +0.000 C 
ATOM     21  O   UNL     1       8.057   8.099  16.913  0.00  0.00    +0.000 OA
ATOM     22  N   UNL     1       7.451   6.933  16.475  0.00  0.00    +0.000 NA
ENDBRANCH  16  17
ENDBRANCH   3  16
TORSDOF 3
ENDMDL
MODEL 8
REMARK VINA RESULT:      -6.5      2.214      6.257
REMARK  Name = 
REMARK  6 active torsions:
REMARK  status: ('A' for Active; 'I' for Inactive)
REMARK    1  A    between atoms: C_1  and  N_2
REMARK    2  A    between atoms: C_3  and  C_5
REMARK    3  A    between atoms: N_7  and  C_8
REMARK    4  A    between atoms: C_8  and  C_9
REMARK    5  A    between atoms: C_11  and  C_12
REMARK    6  A    between atoms: C_18  and  C_19
REMARK                            x       y       z     vdW  Elec       q    Type
REMARK                         _______ _______ _______ _____ _____    ______ ____
ROOT
ATOM      1  C   UNL     1       4.936   5.630  18.649  0.00  0.00    +0.000 C 
ATOM      2  C   UNL     1       4.090   6.564  17.761  0.00  0.00    +0.000 C 
ATOM      3  N   UNL     1       2.689   6.846  18.086  0.00  0.00    +0.000 NA
ATOM      4  C   UNL     1       1.856   5.645  17.937  0.00  0.00    +0.000 C 
ATOM      5  C   UNL     1       1.857   4.621  19.086  0.00  0.00    +0.000 C 
ATOM      6  N   UNL     1       3.131   3.916  19.254  0.00  0.00    +0.000 N 
ATOM      7  C   UNL     1       3.298   2.533  19.275  0.00  0.00    +0.000 C 
ATOM      8  C   UNL     1       2.132   1.611  19.005  0.00  0.00    +0.000 C 
ATOM      9  O   UNL     1       4.400   2.019  19.463  0.00  0.00    +0.000 OA
ATOM     10  C   UNL     1       4.266   4.739  19.700  0.00  0.00    +0.000 C 
ENDROOT
BRANCH   1  13
ATOM     11  C   UNL     1       6.049   3.779  15.523  0.00  0.00    +0.000 C 
ATOM     12  N   UNL     1       5.350   4.607  16.467  0.00  0.00    +0.000 N 
ATOM     13  C   UNL     1       5.825   4.777  17.752  0.00  0.00    +0.000 C 
ATOM     14  O   UNL     1       6.893   4.317  18.143  0.00  0.00    +0.000 OA
ATOM     15  H   UNL     1       4.357   4.725  16.336  0.00  0.00    +0.000 HD
ENDBRANCH   1  13
BRANCH   3  16
ATOM     16  C   UNL     1       2.459   7.592  19.332  0.00  0.00    +0.000 C 
BRANCH  16  17
ATOM     17  C   UNL     1       1.482   8.714  19.160  0.00  0.00    +0.000 A 
ATOM     18  C   UNL     1       0.699   9.367  20.139  0.00  0.00    +0.000 A 
ATOM     19  C   UNL     1      -0.008  10.314  19.438  0.00  0.00    +0.000 A 
ATOM     20  C   UNL     1      -1.018  11.317  19.814  0.00  0.00    +0.000 C 
ATOM     21  O   UNL     1       0.345  10.256  18.127  0.00  0.00    +0.000 OA
ATOM     22  N   UNL     1       1.282   9.252  17.945  0.00  0.00    +0.000 NA
ENDBRANCH  16  17
ENDBRANCH   3  16
TORSDOF 3
ENDMDL
MODEL 9
REMARK VINA RESULT:      -6.5      1.799      3.196
REMARK  Name = 
REMARK  6 active torsions:
REMARK  status: ('A' for Active; 'I' for Inactive)
REMARK    1  A    between atoms: C_1  and  N_2
REMARK    2  A    between atoms: C_3  and  C_5
REMARK    3  A    between atoms: N_7  and  C_8
REMARK    4  A    between atoms: C_8  and  C_9
REMARK    5  A    between atoms: C_11  and  C_12
REMARK    6  A    between atoms: C_18  and  C_19
REMARK                            x       y       z     vdW  Elec       q    Type
REMARK                         _______ _______ _______ _____ _____    ______ ____
ROOT
ATOM      1  C   UNL     1       4.001   3.137  18.466  0.00  0.00    +0.000 C 
ATOM      2  C   UNL     1       3.879   3.654  17.020  0.00  0.00    +0.000 C 
ATOM      3  N   UNL     1       4.227   5.038  16.683  0.00  0.00    +0.000 NA
ATOM      4  C   UNL     1       3.291   5.987  17.300  0.00  0.00    +0.000 C 
ATOM      5  C   UNL     1       3.506   6.353  18.779  0.00  0.00    +0.000 C 
ATOM      6  N   UNL     1       3.252   5.249  19.708  0.00  0.00    +0.000 N 
ATOM      7  C   UNL     1       2.386   5.285  20.799  0.00  0.00    +0.000 C 
ATOM      8  C   UNL     1       1.518   6.496  21.053  0.00  0.00    +0.000 C 
ATOM      9  O   UNL     1       2.261   4.324  21.556  0.00  0.00    +0.000 OA
ATOM     10  C   UNL     1       4.189   4.116  19.629  0.00  0.00    +0.000 C 
ENDROOT
BRANCH   1  13
ATOM     11  C   UNL     1       0.378   2.105  18.953  0.00  0.00    +0.000 C 
ATOM     12  N   UNL     1       1.583   2.826  18.650  0.00  0.00    +0.000 N 
ATOM     13  C   UNL     1       2.819   2.221  18.759  0.00  0.00    +0.000 C 
ATOM     14  O   UNL     1       2.968   1.034  19.030  0.00  0.00    +0.000 OA
ATOM     15  H   UNL     1       1.564   3.829  18.753  0.00  0.00    +0.000 HD
ENDBRANCH   1  13
BRANCH   3  16
ATOM     16  C   UNL     1       5.645   5.396  16.840  0.00  0.00    +0.000 C 
BRANCH  16  17
ATOM     17  C   UNL     1       6.414   5.275  15.560  0.00  0.00    +0.000 A 
ATOM     18  C   UNL     1       6.030   4.655  14.350  0.00  0.00    +0.000 A 
ATOM     19  C   UNL     1       7.103   4.842  13.512  0.00  0.00    +0.000 A 
ATOM     20  C   UNL     1       7.398   4.439  12.128  0.00  0.00    +0.000 C 
ATOM     21  O   UNL     1       8.061   5.552  14.165  0.00  0.00    +0.000 OA
ATOM     22  N   UNL     1       7.634   5.829  15.453  0.00  0.00    +0.000 NA
ENDBRANCH  16  17
ENDBRANCH   3  16
TORSDOF 3
ENDMDL
