MODEL 1
REMARK VINA RESULT:      -7.5      0.000      0.000
REMARK  Name = 
REMARK  2 active torsions:
REMARK  status: ('A' for Active; 'I' for Inactive)
REMARK    1  A    between atoms: C_1  and  C_2
REMARK    2  A    between atoms: C_2  and  C_3
REMARK                            x       y       z     vdW  Elec       q    Type
REMARK                         _______ _______ _______ _____ _____    ______ ____
ROOT
ATOM      1  C   UNL     1       7.150   5.403  16.066  0.00  0.00    +0.000 C 
ATOM      2  C   UNL     1       6.661   5.698  17.492  0.00  0.00    +0.000 C 
ATOM      3  C   UNL     1       7.648   6.650  18.182  0.00  0.00    +0.000 C 
ATOM      4  N   UNL     1       6.725   4.415  18.219  0.00  0.00    +0.000 NA
ATOM      5  N   UNL     1       5.767   3.981  18.895  0.00  0.00    +0.000 NA
ATOM      6  C   UNL     1       4.561   4.715  18.952  0.00  0.00    +0.000 A 
ATOM      7  C   UNL     1       4.399   5.909  18.244  0.00  0.00    +0.000 A 
ATOM      8  C   UNL     1       3.161   6.529  18.333  0.00  0.00    +0.000 A 
ATOM      9  N   UNL     1       2.126   6.086  19.079  0.00  0.00    +0.000 NA
ATOM     10  C   UNL     1       2.290   4.944  19.761  0.00  0.00    +0.000 A 
ATOM     11  C   UNL     1       1.223   4.460  20.504  0.00  0.00    +0.000 A 
ATOM     12  C   UNL     1       1.309   3.270  21.233  0.00  0.00    +0.000 A 
ATOM     13  C   UNL     1       2.491   2.546  21.226  0.00  0.00    +0.000 A 
ATOM     14  C   UNL     1       3.577   3.012  20.487  0.00  0.00    +0.000 A 
ATOM     15  C   UNL     1       3.494   4.211  19.740  0.00  0.00    +0.000 A 
ATOM     16  N   UNL     1       5.373   6.367  17.358  0.00  0.00    +0.000 N 
ATOM     17  H   UNL     1       5.406   7.373  17.232  0.00  0.00    +0.000 HD
ENDROOT
TORSDOF 0
ENDMDL
MODEL 2
REMARK VINA RESULT:      -7.3      1.555      5.026
REMARK  Name = 
REMARK  2 active torsions:
REMARK  status: ('A' for Active; 'I' for Inactive)
REMARK    1  A    between atoms: C_1  and  C_2
REMARK    2  A    between atoms: C_2  and  C_3
REMARK                            x       y       z     vdW  Elec       q    Type
REMARK                         _______ _______ _______ _____ _____    ______ ____
ROOT
ATOM      1  C   UNL     1       1.290   2.920  21.272  0.00  0.00    +0.000 C 
ATOM      2  C   UNL     1       1.810   3.070  19.834  0.00  0.00    +0.000 C 
ATOM      3  C   UNL     1       0.965   2.198  18.894  0.00  0.00    +0.000 C 
ATOM      4  N   UNL     1       3.174   2.503  19.833  0.00  0.00    +0.000 NA
ATOM      5  N   UNL     1       4.149   3.111  19.341  0.00  0.00    +0.000 NA
ATOM      6  C   UNL     1       3.967   4.400  18.792  0.00  0.00    +0.000 A 
ATOM      7  C   UNL     1       2.721   5.031  18.808  0.00  0.00    +0.000 A 
ATOM      8  C   UNL     1       2.658   6.313  18.281  0.00  0.00    +0.000 A 
ATOM      9  N   UNL     1       3.697   6.971  17.725  0.00  0.00    +0.000 NA
ATOM     10  C   UNL     1       4.888   6.358  17.706  0.00  0.00    +0.000 A 
ATOM     11  C   UNL     1       5.972   7.038  17.168  0.00  0.00    +0.000 A 
ATOM     12  C   UNL     1       7.250   6.473  17.122  0.00  0.00    +0.000 A 
ATOM     13  C   UNL     1       7.454   5.195  17.621  0.00  0.00    +0.000 A 
ATOM     14  C   UNL     1       6.381   4.492  18.167  0.00  0.00    +0.000 A 
ATOM     15  C   UNL     1       5.086   5.062  18.224  0.00  0.00    +0.000 A 
ATOM     16  N   UNL     1       1.630   4.469  19.471  0.00  0.00    +0.000 N 
ATOM     17  H   UNL     1       0.721   4.718  19.099  0.00  0.00    +0.000 HD
ENDROOT
TORSDOF 0
ENDMDL
MODEL 3
REMARK VINA RESULT:      -7.2      1.857      5.168
REMARK  Name = 
REMARK  2 active torsions:
REMARK  status: ('A' for Active; 'I' for Inactive)
REMARK    1  A    between atoms: C_1  and  C_2
REMARK    2  A    between atoms: C_2  and  C_3
REMARK                            x       y       z     vdW  Elec       q    Type
REMARK                         _______ _______ _______ _____ _____    ______ ____
ROOT
ATOM      1  C   UNL     1       2.413   2.866  21.585  0.00  0.00    +0.000 C 
ATOM      2  C   UNL     1       2.118   3.226  20.121  0.00  0.00    +0.000 C 
ATOM      3  C   UNL     1       0.639   2.944  19.816  0.00  0.00    +0.000 C 
ATOM      4  N   UNL     1       2.911   2.287  19.303  0.00  0.00    +0.000 NA
ATOM      5  N   UNL     1       3.636   2.671  18.359  0.00  0.00    +0.000 NA
ATOM      6  C   UNL     1       3.738   4.051  18.071  0.00  0.00    +0.000 A 
ATOM      7  C   UNL     1       3.067   5.008  18.836  0.00  0.00    +0.000 A 
ATOM      8  C   UNL     1       3.268   6.338  18.496  0.00  0.00    +0.000 A 
ATOM      9  N   UNL     1       4.028   6.766  17.466  0.00  0.00    +0.000 NA
ATOM     10  C   UNL     1       4.664   5.843  16.732  0.00  0.00    +0.000 A 
ATOM     11  C   UNL     1       5.475   6.271  15.690  0.00  0.00    +0.000 A 
ATOM     12  C   UNL     1       6.182   5.372  14.886  0.00  0.00    +0.000 A 
ATOM     13  C   UNL     1       6.073   4.010  15.121  0.00  0.00    +0.000 A 
ATOM     14  C   UNL     1       5.265   3.555  16.162  0.00  0.00    +0.000 A 
ATOM     15  C   UNL     1       4.554   4.460  16.985  0.00  0.00    +0.000 A 
ATOM     16  N   UNL     1       2.364   4.656  19.988  0.00  0.00    +0.000 N 
ATOM     17  H   UNL     1       1.588   5.265  20.225  0.00  0.00    +0.000 HD
ENDROOT
TORSDOF 0
ENDMDL
MODEL 4
REMARK VINA RESULT:      -7.1      1.561      1.651
REMARK  Name = 
REMARK  2 active torsions:
REMARK  status: ('A' for Active; 'I' for Inactive)
REMARK    1  A    between atoms: C_1  and  C_2
REMARK    2  A    between atoms: C_2  and  C_3
REMARK                            x       y       z     vdW  Elec       q    Type
REMARK                         _______ _______ _______ _____ _____    ______ ____
ROOT
ATOM      1  C   UNL     1       7.834   4.507  17.285  0.00  0.00    +0.000 C 
ATOM      2  C   UNL     1       6.517   5.183  17.698  0.00  0.00    +0.000 C 
ATOM      3  C   UNL     1       6.605   6.688  17.410  0.00  0.00    +0.000 C 
ATOM      4  N   UNL     1       6.424   5.032  19.164  0.00  0.00    +0.000 NA
ATOM      5  N   UNL     1       5.392   4.607  19.728  0.00  0.00    +0.000 NA
ATOM      6  C   UNL     1       4.276   4.223  18.950  0.00  0.00    +0.000 A 
ATOM      7  C   UNL     1       4.306   4.279  17.554  0.00  0.00    +0.000 A 
ATOM      8  C   UNL     1       3.173   3.839  16.884  0.00  0.00    +0.000 A 
ATOM      9  N   UNL     1       2.043   3.402  17.480  0.00  0.00    +0.000 NA
ATOM     10  C   UNL     1       2.019   3.357  18.818  0.00  0.00    +0.000 A 
ATOM     11  C   UNL     1       0.875   2.878  19.442  0.00  0.00    +0.000 A 
ATOM     12  C   UNL     1       0.775   2.788  20.834  0.00  0.00    +0.000 A 
ATOM     13  C   UNL     1       1.840   3.192  21.626  0.00  0.00    +0.000 A 
ATOM     14  C   UNL     1       3.000   3.676  21.022  0.00  0.00    +0.000 A 
ATOM     15  C   UNL     1       3.111   3.762  19.614  0.00  0.00    +0.000 A 
ATOM     16  N   UNL     1       5.473   4.602  16.864  0.00  0.00    +0.000 N 
ATOM     17  H   UNL     1       5.335   5.036  15.958  0.00  0.00    +0.000 HD
ENDROOT
TORSDOF 0
ENDMDL
MODEL 5
REMARK VINA RESULT:      -7.0      1.808      5.502
REMARK  Name = 
REMARK  2 active torsions:
REMARK  status: ('A' for Active; 'I' for Inactive)
REMARK    1  A    between atoms: C_1  and  C_2
REMARK    2  A    between atoms: C_2  and  C_3
REMARK                            x       y       z     vdW  Elec       q    Type
REMARK                         _______ _______ _______ _____ _____    ______ ____
ROOT
ATOM      1  C   UNL     1       1.573   2.444  20.367  0.00  0.00    +0.000 C 
ATOM      2  C   UNL     1       2.139   3.713  19.709  0.00  0.00    +0.000 C 
ATOM      3  C   UNL     1       1.367   4.938  20.220  0.00  0.00    +0.000 C 
ATOM      4  N   UNL     1       1.842   3.591  18.268  0.00  0.00    +0.000 NA
ATOM      5  N   UNL     1       2.712   3.777  17.389  0.00  0.00    +0.000 NA
ATOM      6  C   UNL     1       4.038   4.084  17.769  0.00  0.00    +0.000 A 
ATOM      7  C   UNL     1       4.413   4.157  19.113  0.00  0.00    +0.000 A 
ATOM      8  C   UNL     1       5.749   4.423  19.379  0.00  0.00    +0.000 A 
ATOM      9  N   UNL     1       6.693   4.651  18.441  0.00  0.00    +0.000 NA
ATOM     10  C   UNL     1       6.325   4.584  17.154  0.00  0.00    +0.000 A 
ATOM     11  C   UNL     1       7.294   4.783  16.180  0.00  0.00    +0.000 A 
ATOM     12  C   UNL     1       6.994   4.718  14.816  0.00  0.00    +0.000 A 
ATOM     13  C   UNL     1       5.694   4.455  14.411  0.00  0.00    +0.000 A 
ATOM     14  C   UNL     1       4.704   4.252  15.371  0.00  0.00    +0.000 A 
ATOM     15  C   UNL     1       5.002   4.307  16.753  0.00  0.00    +0.000 A 
ATOM     16  N   UNL     1       3.528   3.817  20.135  0.00  0.00    +0.000 N 
ATOM     17  H   UNL     1       3.687   4.284  21.021  0.00  0.00    +0.000 HD
ENDROOT
TORSDOF 0
ENDMDL
MODEL 6
REMARK VINA RESULT:      -6.9      1.313      1.463
REMARK  Name = 
REMARK  2 active torsions:
REMARK  status: ('A' for Active; 'I' for Inactive)
REMARK    1  A    between atoms: C_1  and  C_2
REMARK    2  A    between atoms: C_2  and  C_3
REMARK                            x       y       z     vdW  Elec       q    Type
REMARK                         _______ _______ _______ _____ _____    ______ ____
ROOT
ATOM      1  C   UNL     1       5.683   5.103  14.433  0.00  0.00    +0.000 C 
ATOM      2  C   UNL     1       5.760   5.005  15.964  0.00  0.00    +0.000 C 
ATOM      3  C   UNL     1       7.212   5.219  16.416  0.00  0.00    +0.000 C 
ATOM      4  N   UNL     1       5.408   3.611  16.301  0.00  0.00    +0.000 NA
ATOM      5  N   UNL     1       4.562   3.329  17.178  0.00  0.00    +0.000 NA
ATOM      6  C   UNL     1       3.886   4.367  17.858  0.00  0.00    +0.000 A 
ATOM      7  C   UNL     1       4.118   5.711  17.555  0.00  0.00    +0.000 A 
ATOM      8  C   UNL     1       3.371   6.650  18.252  0.00  0.00    +0.000 A 
ATOM      9  N   UNL     1       2.473   6.362  19.218  0.00  0.00    +0.000 NA
ATOM     10  C   UNL     1       2.260   5.071  19.508  0.00  0.00    +0.000 A 
ATOM     11  C   UNL     1       1.314   4.760  20.475  0.00  0.00    +0.000 A 
ATOM     12  C   UNL     1       1.024   3.438  20.827  0.00  0.00    +0.000 A 
ATOM     13  C   UNL     1       1.698   2.398  20.203  0.00  0.00    +0.000 A 
ATOM     14  C   UNL     1       2.651   2.686  19.227  0.00  0.00    +0.000 A 
ATOM     15  C   UNL     1       2.943   4.021  18.861  0.00  0.00    +0.000 A 
ATOM     16  N   UNL     1       4.937   6.086  16.491  0.00  0.00    +0.000 N 
ATOM     17  H   UNL     1       5.394   6.985  16.591  0.00  0.00    +0.000 HD
ENDROOT
TORSDOF 0
ENDMDL
MODEL 7
REMARK VINA RESULT:      -6.9      1.892      2.172
REMARK  Name = 
REMARK  2 active torsions:
REMARK  status: ('A' for Active; 'I' for Inactive)
REMARK    1  A    between atoms: C_1  and  C_2
REMARK    2  A    between atoms: C_2  and  C_3
REMARK                            x       y       z     vdW  Elec       q    Type
REMARK                         _______ _______ _______ _____ _____    ______ ____
ROOT
ATOM      1  C   UNL     1       7.073   5.031  16.191  0.00  0.00    +0.000 C 
ATOM      2  C   UNL     1       5.633   5.407  16.577  0.00  0.00    +0.000 C 
ATOM      3  C   UNL     1       5.206   6.657  15.794  0.00  0.00    +0.000 C 
ATOM      4  N   UNL     1       5.681   5.790  18.002  0.00  0.00    +0.000 NA
ATOM      5  N   UNL     1       4.880   5.330  18.844  0.00  0.00    +0.000 NA
ATOM      6  C   UNL     1       3.909   4.384  18.444  0.00  0.00    +0.000 A 
ATOM      7  C   UNL     1       3.837   3.925  17.127  0.00  0.00    +0.000 A 
ATOM      8  C   UNL     1       2.874   2.965  16.848  0.00  0.00    +0.000 A 
ATOM      9  N   UNL     1       1.987   2.477  17.741  0.00  0.00    +0.000 NA
ATOM     10  C   UNL     1       2.057   2.927  19.001  0.00  0.00    +0.000 A 
ATOM     11  C   UNL     1       1.173   2.409  19.937  0.00  0.00    +0.000 A 
ATOM     12  C   UNL     1       1.189   2.816  21.274  0.00  0.00    +0.000 A 
ATOM     13  C   UNL     1       2.107   3.769  21.690  0.00  0.00    +0.000 A 
ATOM     14  C   UNL     1       3.006   4.304  20.769  0.00  0.00    +0.000 A 
ATOM     15  C   UNL     1       3.000   3.890  19.415  0.00  0.00    +0.000 A 
ATOM     16  N   UNL     1       4.791   4.287  16.177  0.00  0.00    +0.000 N 
ATOM     17  H   UNL     1       4.466   4.296  15.217  0.00  0.00    +0.000 HD
ENDROOT
TORSDOF 0
ENDMDL
MODEL 8
REMARK VINA RESULT:      -6.9      1.796      2.764
REMARK  Name = 
REMARK  2 active torsions:
REMARK  status: ('A' for Active; 'I' for Inactive)
REMARK    1  A    between atoms: C_1  and  C_2
REMARK    2  A    between atoms: C_2  and  C_3
REMARK                            x       y       z     vdW  Elec       q    Type
REMARK                         _______ _______ _______ _____ _____    ______ ____
ROOT
ATOM      1  C   UNL     1       7.421   4.695  16.139  0.00  0.00    +0.000 C 
ATOM      2  C   UNL     1       5.889   4.621  16.045  0.00  0.00    +0.000 C 
ATOM      3  C   UNL     1       5.456   4.856  14.591  0.00  0.00    +0.000 C 
ATOM      4  N   UNL     1       5.377   5.760  16.833  0.00  0.00    +0.000 NA
ATOM      5  N   UNL     1       4.479   5.627  17.693  0.00  0.00    +0.000 NA
ATOM      6  C   UNL     1       3.945   4.346  17.956  0.00  0.00    +0.000 A 
ATOM      7  C   UNL     1       4.418   3.209  17.296  0.00  0.00    +0.000 A 
ATOM      8  C   UNL     1       3.856   1.993  17.659  0.00  0.00    +0.000 A 
ATOM      9  N   UNL     1       2.868   1.838  18.566  0.00  0.00    +0.000 NA
ATOM     10  C   UNL     1       2.415   2.933  19.191  0.00  0.00    +0.000 A 
ATOM     11  C   UNL     1       1.424   2.783  20.151  0.00  0.00    +0.000 A 
ATOM     12  C   UNL     1       0.907   3.874  20.856  0.00  0.00    +0.000 A 
ATOM     13  C   UNL     1       1.385   5.149  20.594  0.00  0.00    +0.000 A 
ATOM     14  C   UNL     1       2.381   5.325  19.635  0.00  0.00    +0.000 A 
ATOM     15  C   UNL     1       2.915   4.224  18.924  0.00  0.00    +0.000 A 
ATOM     16  N   UNL     1       5.515   3.269  16.438  0.00  0.00    +0.000 N 
ATOM     17  H   UNL     1       5.528   2.572  15.701  0.00  0.00    +0.000 HD
ENDROOT
TORSDOF 0
ENDMDL
MODEL 9
REMARK VINA RESULT:      -6.8      1.862      3.036
REMARK  Name = 
REMARK  2 active torsions:
REMARK  status: ('A' for Active; 'I' for Inactive)
REMARK    1  A    between atoms: C_1  and  C_2
REMARK    2  A    between atoms: C_2  and  C_3
REMARK                            x       y       z     vdW  Elec       q    Type
REMARK                         _______ _______ _______ _____ _____    ______ ____
ROOT
ATOM      1  C   UNL     1       7.462   4.784  15.584  0.00  0.00    +0.000 C 
ATOM      2  C   UNL     1       5.928   4.763  15.676  0.00  0.00    +0.000 C 
ATOM      3  C   UNL     1       5.342   4.361  14.314  0.00  0.00    +0.000 C 
ATOM      4  N   UNL     1       5.516   6.159  15.923  0.00  0.00    +0.000 NA
ATOM      5  N   UNL     1       4.715   6.468  16.832  0.00  0.00    +0.000 NA
ATOM      6  C   UNL     1       4.200   5.464  17.683  0.00  0.00    +0.000 A 
ATOM      7  C   UNL     1       4.587   4.128  17.553  0.00  0.00    +0.000 A 
ATOM      8  C   UNL     1       4.055   3.228  18.466  0.00  0.00    +0.000 A 
ATOM      9  N   UNL     1       3.171   3.542  19.436  0.00  0.00    +0.000 NA
ATOM     10  C   UNL     1       2.799   4.824  19.551  0.00  0.00    +0.000 A 
ATOM     11  C   UNL     1       1.916   5.167  20.566  0.00  0.00    +0.000 A 
ATOM     12  C   UNL     1       1.489   6.484  20.761  0.00  0.00    +0.000 A 
ATOM     13  C   UNL     1       1.948   7.486  19.920  0.00  0.00    +0.000 A 
ATOM     14  C   UNL     1       2.836   7.167  18.893  0.00  0.00    +0.000 A 
ATOM     15  C   UNL     1       3.279   5.837  18.696  0.00  0.00    +0.000 A 
ATOM     16  N   UNL     1       5.585   3.743  16.658  0.00  0.00    +0.000 N 
ATOM     17  H   UNL     1       5.511   2.795  16.308  0.00  0.00    +0.000 HD
ENDROOT
TORSDOF 0
ENDMDL
