MODEL 1
REMARK VINA RESULT:      -7.1      0.000      0.000
REMARK  Name = 
REMARK  8 active torsions:
REMARK  status: ('A' for Active; 'I' for Inactive)
REMARK    1  A    between atoms: C_1  and  C_2
REMARK    2  A    between atoms: C_2  and  C_3
REMARK    3  A    between atoms: C_3  and  C_4
REMARK    4  A    between atoms: C_4  and  C_5
REMARK    5  A    between atoms: C_5  and  C_6
REMARK    6  A    between atoms: C_6  and  C_7
REMARK    7  A    between atoms: C_7  and  O_8
REMARK    8  A    between atoms: O_8  and  C_9
REMARK                            x       y       z     vdW  Elec       q    Type
REMARK                         _______ _______ _______ _____ _____    ______ ____
ROOT
ATOM      1  C   UNL     1       3.845   5.443  19.468  0.00  0.00    +0.000 A 
ATOM      2  C   UNL     1       3.168   6.289  18.589  0.00  0.00    +0.000 A 
ATOM      3  C   UNL     1       3.768   6.686  17.390  0.00  0.00    +0.000 A 
ATOM      4  C   UNL     1       5.030   6.201  17.044  0.00  0.00    +0.000 A 
ATOM      5  C   UNL     1       5.713   5.353  17.908  0.00  0.00    +0.000 A 
ATOM      6  C   UNL     1       5.129   5.000  19.131  0.00  0.00    +0.000 A 
ATOM      7  C   UNL     1       6.998   4.687  17.612  0.00  0.00    +0.000 C 
ATOM      8  O   UNL     1       7.825   4.486  18.493  0.00  0.00    +0.000 OA
ATOM      9  N   UNL     1       7.157   4.097  16.379  0.00  0.00    +0.000 N 
ATOM     10  C   UNL     1       7.019   4.838  15.142  0.00  0.00    +0.000 C 
ATOM     11  C   UNL     1       5.684   5.541  14.944  0.00  0.00    +0.000 C 
ATOM     12  O   UNL     1       5.544   6.634  15.859  0.00  0.00    +0.000 OA
ATOM     13  H   UNL     1       7.973   3.500  16.405  0.00  0.00    +0.000 HD
ENDROOT
BRANCH   1  14
ATOM     14  O   UNL     1       3.172   5.077  20.596  0.00  0.00    +0.000 OA
BRANCH  14  15
ATOM     15  C   UNL     1       1.827   5.562  20.686  0.00  0.00    +0.000 C 
BRANCH  15  16
ATOM     16  C   UNL     1       0.869   4.396  20.508  0.00  0.00    +0.000 C 
BRANCH  16  17
ATOM     17  C   UNL     1       1.557   3.079  20.850  0.00  0.00    +0.000 C 
BRANCH  17  18
ATOM     18  C   UNL     1       1.559   2.119  19.662  0.00  0.00    +0.000 C 
BRANCH  18  19
ATOM     19  C   UNL     1       1.378   2.883  18.348  0.00  0.00    +0.000 C 
BRANCH  19  21
ATOM     20  C   UNL     1       3.635   1.812  18.054  0.00  0.00    +0.000 C 
ATOM     21  C   UNL     1       2.574   2.695  17.417  0.00  0.00    +0.000 C 
ENDBRANCH  19  21
ENDBRANCH  18  19
ENDBRANCH  17  18
ENDBRANCH  16  17
ENDBRANCH  15  16
ENDBRANCH  14  15
ENDBRANCH   1  14
TORSDOF 7
ENDMDL
MODEL 2
REMARK VINA RESULT:      -7.0      0.806      1.099
REMARK  Name = 
REMARK  8 active torsions:
REMARK  status: ('A' for Active; 'I' for Inactive)
REMARK    1  A    between atoms: C_1  and  C_2
REMARK    2  A    between atoms: C_2  and  C_3
REMARK    3  A    between atoms: C_3  and  C_4
REMARK    4  A    between atoms: C_4  and  C_5
REMARK    5  A    between atoms: C_5  and  C_6
REMARK    6  A    between atoms: C_6  and  C_7
REMARK    7  A    between atoms: C_7  and  O_8
REMARK    8  A    between atoms: O_8  and  C_9
REMARK                            x       y       z     vdW  Elec       q    Type
REMARK                         _______ _______ _______ _____ _____    ______ ____
ROOT
ATOM      1  C   UNL     1       3.139   6.151  19.420  0.00  0.00    +0.000 A 
ATOM      2  C   UNL     1       2.697   6.959  18.371  0.00  0.00    +0.000 A 
ATOM      3  C   UNL     1       3.507   7.166  17.251  0.00  0.00    +0.000 A 
ATOM      4  C   UNL     1       4.745   6.529  17.154  0.00  0.00    +0.000 A 
ATOM      5  C   UNL     1       5.195   5.717  18.189  0.00  0.00    +0.000 A 
ATOM      6  C   UNL     1       4.402   5.554  19.331  0.00  0.00    +0.000 A 
ATOM      7  C   UNL     1       6.428   4.904  18.160  0.00  0.00    +0.000 C 
ATOM      8  O   UNL     1       7.089   4.721  19.175  0.00  0.00    +0.000 OA
ATOM      9  N   UNL     1       6.701   4.173  17.027  0.00  0.00    +0.000 N 
ATOM     10  C   UNL     1       6.829   4.787  15.721  0.00  0.00    +0.000 C 
ATOM     11  C   UNL     1       5.624   5.588  15.252  0.00  0.00    +0.000 C 
ATOM     12  O   UNL     1       5.473   6.782  16.030  0.00  0.00    +0.000 OA
ATOM     13  H   UNL     1       7.433   3.507  17.236  0.00  0.00    +0.000 HD
ENDROOT
BRANCH   1  14
ATOM     14  O   UNL     1       2.271   5.974  20.456  0.00  0.00    +0.000 OA
BRANCH  14  15
ATOM     15  C   UNL     1       2.108   4.619  20.888  0.00  0.00    +0.000 C 
BRANCH  15  16
ATOM     16  C   UNL     1       0.792   4.083  20.350  0.00  0.00    +0.000 C 
BRANCH  16  17
ATOM     17  C   UNL     1       1.038   2.939  19.372  0.00  0.00    +0.000 C 
BRANCH  17  18
ATOM     18  C   UNL     1       1.498   3.453  18.009  0.00  0.00    +0.000 C 
BRANCH  18  19
ATOM     19  C   UNL     1       2.836   2.823  17.617  0.00  0.00    +0.000 C 
BRANCH  19  21
ATOM     20  C   UNL     1       4.371   2.015  19.438  0.00  0.00    +0.000 C 
ATOM     21  C   UNL     1       3.202   1.658  18.534  0.00  0.00    +0.000 C 
ENDBRANCH  19  21
ENDBRANCH  18  19
ENDBRANCH  17  18
ENDBRANCH  16  17
ENDBRANCH  15  16
ENDBRANCH  14  15
ENDBRANCH   1  14
TORSDOF 7
ENDMDL
MODEL 3
REMARK VINA RESULT:      -7.0      2.992      6.366
REMARK  Name = 
REMARK  8 active torsions:
REMARK  status: ('A' for Active; 'I' for Inactive)
REMARK    1  A    between atoms: C_1  and  C_2
REMARK    2  A    between atoms: C_2  and  C_3
REMARK    3  A    between atoms: C_3  and  C_4
REMARK    4  A    between atoms: C_4  and  C_5
REMARK    5  A    between atoms: C_5  and  C_6
REMARK    6  A    between atoms: C_6  and  C_7
REMARK    7  A    between atoms: C_7  and  O_8
REMARK    8  A    between atoms: O_8  and  C_9
REMARK                            x       y       z     vdW  Elec       q    Type
REMARK                         _______ _______ _______ _____ _____    ______ ____
ROOT
ATOM      1  C   UNL     1       5.091   3.991  17.037  0.00  0.00    +0.000 A 
ATOM      2  C   UNL     1       5.764   4.431  18.178  0.00  0.00    +0.000 A 
ATOM      3  C   UNL     1       5.047   4.799  19.321  0.00  0.00    +0.000 A 
ATOM      4  C   UNL     1       3.656   4.685  19.343  0.00  0.00    +0.000 A 
ATOM      5  C   UNL     1       2.974   4.243  18.215  0.00  0.00    +0.000 A 
ATOM      6  C   UNL     1       3.694   3.924  17.056  0.00  0.00    +0.000 A 
ATOM      7  C   UNL     1       1.524   3.974  18.145  0.00  0.00    +0.000 C 
ATOM      8  O   UNL     1       0.889   4.186  17.119  0.00  0.00    +0.000 OA
ATOM      9  N   UNL     1       0.940   3.275  19.177  0.00  0.00    +0.000 N 
ATOM     10  C   UNL     1       1.000   3.729  20.551  0.00  0.00    +0.000 C 
ATOM     11  C   UNL     1       2.398   3.937  21.113  0.00  0.00    +0.000 C 
ATOM     12  O   UNL     1       3.032   5.063  20.494  0.00  0.00    +0.000 OA
ATOM     13  H   UNL     1       0.018   2.976  18.889  0.00  0.00    +0.000 HD
ENDROOT
BRANCH   1  14
ATOM     14  O   UNL     1       5.869   3.618  15.982  0.00  0.00    +0.000 OA
BRANCH  14  15
ATOM     15  C   UNL     1       6.929   4.525  15.657  0.00  0.00    +0.000 C 
BRANCH  15  16
ATOM     16  C   UNL     1       6.917   4.784  14.160  0.00  0.00    +0.000 C 
BRANCH  16  17
ATOM     17  C   UNL     1       5.836   3.950  13.480  0.00  0.00    +0.000 C 
BRANCH  17  18
ATOM     18  C   UNL     1       6.340   3.328  12.179  0.00  0.00    +0.000 C 
BRANCH  18  19
ATOM     19  C   UNL     1       5.207   2.599  11.453  0.00  0.00    +0.000 C 
BRANCH  19  21
ATOM     20  C   UNL     1       3.335   3.633  10.129  0.00  0.00    +0.000 C 
ATOM     21  C   UNL     1       3.899   3.383  11.518  0.00  0.00    +0.000 C 
ENDBRANCH  19  21
ENDBRANCH  18  19
ENDBRANCH  17  18
ENDBRANCH  16  17
ENDBRANCH  15  16
ENDBRANCH  14  15
ENDBRANCH   1  14
TORSDOF 7
ENDMDL
MODEL 4
REMARK VINA RESULT:      -6.7      1.064      1.349
REMARK  Name = 
REMARK  8 active torsions:
REMARK  status: ('A' for Active; 'I' for Inactive)
REMARK    1  A    between atoms: C_1  and  C_2
REMARK    2  A    between atoms: C_2  and  C_3
REMARK    3  A    between atoms: C_3  and  C_4
REMARK    4  A    between atoms: C_4  and  C_5
REMARK    5  A    between atoms: C_5  and  C_6
REMARK    6  A    between atoms: C_6  and  C_7
REMARK    7  A    between atoms: C_7  and  O_8
REMARK    8  A    between atoms: O_8  and  C_9
REMARK                            x       y       z     vdW  Elec       q    Type
REMARK                         _______ _______ _______ _____ _____    ______ ____
ROOT
ATOM      1  C   UNL     1       2.965   6.169  19.421  0.00  0.00    +0.000 A 
ATOM      2  C   UNL     1       2.615   6.818  18.236  0.00  0.00    +0.000 A 
ATOM      3  C   UNL     1       3.555   6.969  17.212  0.00  0.00    +0.000 A 
ATOM      4  C   UNL     1       4.835   6.430  17.350  0.00  0.00    +0.000 A 
ATOM      5  C   UNL     1       5.194   5.776  18.523  0.00  0.00    +0.000 A 
ATOM      6  C   UNL     1       4.265   5.673  19.566  0.00  0.00    +0.000 A 
ATOM      7  C   UNL     1       6.471   5.070  18.750  0.00  0.00    +0.000 C 
ATOM      8  O   UNL     1       6.999   5.054  19.855  0.00  0.00    +0.000 OA
ATOM      9  N   UNL     1       6.945   4.245  17.756  0.00  0.00    +0.000 N 
ATOM     10  C   UNL     1       7.209   4.722  16.413  0.00  0.00    +0.000 C 
ATOM     11  C   UNL     1       6.028   5.364  15.702  0.00  0.00    +0.000 C 
ATOM     12  O   UNL     1       5.691   6.618  16.306  0.00  0.00    +0.000 OA
ATOM     13  H   UNL     1       7.686   3.669  18.134  0.00  0.00    +0.000 HD
ENDROOT
BRANCH   1  14
ATOM     14  O   UNL     1       1.977   6.034  20.352  0.00  0.00    +0.000 OA
BRANCH  14  15
ATOM     15  C   UNL     1       1.216   4.825  20.259  0.00  0.00    +0.000 C 
BRANCH  15  16
ATOM     16  C   UNL     1       1.736   3.833  21.286  0.00  0.00    +0.000 C 
BRANCH  16  17
ATOM     17  C   UNL     1       2.058   2.497  20.625  0.00  0.00    +0.000 C 
BRANCH  17  18
ATOM     18  C   UNL     1       3.564   2.302  20.453  0.00  0.00    +0.000 C 
BRANCH  18  19
ATOM     19  C   UNL     1       3.925   2.150  18.974  0.00  0.00    +0.000 C 
BRANCH  19  21
ATOM     20  C   UNL     1       2.694   3.288  17.099  0.00  0.00    +0.000 C 
ATOM     21  C   UNL     1       2.681   2.135  18.088  0.00  0.00    +0.000 C 
ENDBRANCH  19  21
ENDBRANCH  18  19
ENDBRANCH  17  18
ENDBRANCH  16  17
ENDBRANCH  15  16
ENDBRANCH  14  15
ENDBRANCH   1  14
TORSDOF 7
ENDMDL
MODEL 5
REMARK VINA RESULT:      -6.5      2.329      5.951
REMARK  Name = 
REMARK  8 active torsions:
REMARK  status: ('A' for Active; 'I' for Inactive)
REMARK    1  A    between atoms: C_1  and  C_2
REMARK    2  A    between atoms: C_2  and  C_3
REMARK    3  A    between atoms: C_3  and  C_4
REMARK    4  A    between atoms: C_4  and  C_5
REMARK    5  A    between atoms: C_5  and  C_6
REMARK    6  A    between atoms: C_6  and  C_7
REMARK    7  A    between atoms: C_7  and  O_8
REMARK    8  A    between atoms: O_8  and  C_9
REMARK                            x       y       z     vdW  Elec       q    Type
REMARK                         _______ _______ _______ _____ _____    ______ ____
ROOT
ATOM      1  C   UNL     1       3.956   5.480  17.128  0.00  0.00    +0.000 A 
ATOM      2  C   UNL     1       3.807   6.543  18.020  0.00  0.00    +0.000 A 
ATOM      3  C   UNL     1       2.981   6.412  19.140  0.00  0.00    +0.000 A 
ATOM      4  C   UNL     1       2.336   5.202  19.398  0.00  0.00    +0.000 A 
ATOM      5  C   UNL     1       2.481   4.133  18.521  0.00  0.00    +0.000 A 
ATOM      6  C   UNL     1       3.268   4.286  17.373  0.00  0.00    +0.000 A 
ATOM      7  C   UNL     1       1.945   2.774  18.736  0.00  0.00    +0.000 C 
ATOM      8  O   UNL     1       1.553   2.091  17.797  0.00  0.00    +0.000 OA
ATOM      9  N   UNL     1       2.099   2.202  19.978  0.00  0.00    +0.000 N 
ATOM     10  C   UNL     1       1.585   2.819  21.184  0.00  0.00    +0.000 C 
ATOM     11  C   UNL     1       2.085   4.228  21.463  0.00  0.00    +0.000 C 
ATOM     12  O   UNL     1       1.551   5.155  20.511  0.00  0.00    +0.000 OA
ATOM     13  H   UNL     1       1.895   1.214  19.911  0.00  0.00    +0.000 HD
ENDROOT
BRANCH   1  14
ATOM     14  O   UNL     1       4.808   5.681  16.083  0.00  0.00    +0.000 OA
BRANCH  14  15
ATOM     15  C   UNL     1       5.044   4.533  15.260  0.00  0.00    +0.000 C 
BRANCH  15  16
ATOM     16  C   UNL     1       6.342   3.873  15.693  0.00  0.00    +0.000 C 
BRANCH  16  17
ATOM     17  C   UNL     1       7.321   4.913  16.227  0.00  0.00    +0.000 C 
BRANCH  17  18
ATOM     18  C   UNL     1       7.608   4.706  17.713  0.00  0.00    +0.000 C 
BRANCH  18  19
ATOM     19  C   UNL     1       7.556   6.037  18.466  0.00  0.00    +0.000 C 
BRANCH  19  21
ATOM     20  C   UNL     1       8.200   8.432  18.046  0.00  0.00    +0.000 C 
ATOM     21  C   UNL     1       7.453   7.222  17.509  0.00  0.00    +0.000 C 
ENDBRANCH  19  21
ENDBRANCH  18  19
ENDBRANCH  17  18
ENDBRANCH  16  17
ENDBRANCH  15  16
ENDBRANCH  14  15
ENDBRANCH   1  14
TORSDOF 7
ENDMDL
MODEL 6
REMARK VINA RESULT:      -6.5      2.669      5.788
REMARK  Name = 
REMARK  8 active torsions:
REMARK  status: ('A' for Active; 'I' for Inactive)
REMARK    1  A    between atoms: C_1  and  C_2
REMARK    2  A    between atoms: C_2  and  C_3
REMARK    3  A    between atoms: C_3  and  C_4
REMARK    4  A    between atoms: C_4  and  C_5
REMARK    5  A    between atoms: C_5  and  C_6
REMARK    6  A    between atoms: C_6  and  C_7
REMARK    7  A    between atoms: C_7  and  O_8
REMARK    8  A    between atoms: O_8  and  C_9
REMARK                            x       y       z     vdW  Elec       q    Type
REMARK                         _______ _______ _______ _____ _____    ______ ____
ROOT
ATOM      1  C   UNL     1       4.738   5.552  17.857  0.00  0.00    +0.000 A 
ATOM      2  C   UNL     1       3.495   6.111  17.556  0.00  0.00    +0.000 A 
ATOM      3  C   UNL     1       2.321   5.508  18.017  0.00  0.00    +0.000 A 
ATOM      4  C   UNL     1       2.387   4.369  18.820  0.00  0.00    +0.000 A 
ATOM      5  C   UNL     1       3.619   3.805  19.132  0.00  0.00    +0.000 A 
ATOM      6  C   UNL     1       4.789   4.384  18.625  0.00  0.00    +0.000 A 
ATOM      7  C   UNL     1       3.829   2.673  20.057  0.00  0.00    +0.000 C 
ATOM      8  O   UNL     1       4.719   1.853  19.862  0.00  0.00    +0.000 OA
ATOM      9  N   UNL     1       3.157   2.678  21.257  0.00  0.00    +0.000 N 
ATOM     10  C   UNL     1       1.712   2.742  21.335  0.00  0.00    +0.000 C 
ATOM     11  C   UNL     1       1.071   3.940  20.652  0.00  0.00    +0.000 C 
ATOM     12  O   UNL     1       1.198   3.843  19.229  0.00  0.00    +0.000 OA
ATOM     13  H   UNL     1       3.565   1.980  21.864  0.00  0.00    +0.000 HD
ENDROOT
BRANCH   1  14
ATOM     14  O   UNL     1       5.832   6.225  17.399  0.00  0.00    +0.000 OA
BRANCH  14  15
ATOM     15  C   UNL     1       6.627   5.514  16.443  0.00  0.00    +0.000 C 
BRANCH  15  16
ATOM     16  C   UNL     1       5.792   5.254  15.201  0.00  0.00    +0.000 C 
BRANCH  16  17
ATOM     17  C   UNL     1       6.191   3.932  14.554  0.00  0.00    +0.000 C 
BRANCH  17  18
ATOM     18  C   UNL     1       6.665   4.130  13.115  0.00  0.00    +0.000 C 
BRANCH  18  19
ATOM     19  C   UNL     1       5.897   3.213  12.160  0.00  0.00    +0.000 C 
BRANCH  19  21
ATOM     20  C   UNL     1       3.788   3.138  10.793  0.00  0.00    +0.000 C 
ATOM     21  C   UNL     1       4.413   3.568  12.110  0.00  0.00    +0.000 C 
ENDBRANCH  19  21
ENDBRANCH  18  19
ENDBRANCH  17  18
ENDBRANCH  16  17
ENDBRANCH  15  16
ENDBRANCH  14  15
ENDBRANCH   1  14
TORSDOF 7
ENDMDL
MODEL 7
REMARK VINA RESULT:      -6.4      3.005      6.138
REMARK  Name = 
REMARK  8 active torsions:
REMARK  status: ('A' for Active; 'I' for Inactive)
REMARK    1  A    between atoms: C_1  and  C_2
REMARK    2  A    between atoms: C_2  and  C_3
REMARK    3  A    between atoms: C_3  and  C_4
REMARK    4  A    between atoms: C_4  and  C_5
REMARK    5  A    between atoms: C_5  and  C_6
REMARK    6  A    between atoms: C_6  and  C_7
REMARK    7  A    between atoms: C_7  and  O_8
REMARK    8  A    between atoms: O_8  and  C_9
REMARK                            x       y       z     vdW  Elec       q    Type
REMARK                         _______ _______ _______ _____ _____    ______ ____
ROOT
ATOM      1  C   UNL     1       4.772   4.295  17.718  0.00  0.00    +0.000 A 
ATOM      2  C   UNL     1       3.567   4.397  17.021  0.00  0.00    +0.000 A 
ATOM      3  C   UNL     1       2.410   3.790  17.521  0.00  0.00    +0.000 A 
ATOM      4  C   UNL     1       2.444   3.118  18.743  0.00  0.00    +0.000 A 
ATOM      5  C   UNL     1       3.637   3.013  19.450  0.00  0.00    +0.000 A 
ATOM      6  C   UNL     1       4.803   3.579  18.920  0.00  0.00    +0.000 A 
ATOM      7  C   UNL     1       3.781   2.428  20.798  0.00  0.00    +0.000 C 
ATOM      8  O   UNL     1       4.793   1.816  21.118  0.00  0.00    +0.000 OA
ATOM      9  N   UNL     1       2.859   2.771  21.760  0.00  0.00    +0.000 N 
ATOM     10  C   UNL     1       1.438   2.543  21.587  0.00  0.00    +0.000 C 
ATOM     11  C   UNL     1       0.815   3.190  20.360  0.00  0.00    +0.000 C 
ATOM     12  O   UNL     1       1.275   2.556  19.162  0.00  0.00    +0.000 OA
ATOM     13  H   UNL     1       3.208   2.485  22.665  0.00  0.00    +0.000 HD
ENDROOT
BRANCH   1  14
ATOM     14  O   UNL     1       5.841   4.947  17.178  0.00  0.00    +0.000 OA
BRANCH  14  15
ATOM     15  C   UNL     1       5.594   5.577  15.916  0.00  0.00    +0.000 C 
BRANCH  15  16
ATOM     16  C   UNL     1       6.484   4.938  14.862  0.00  0.00    +0.000 C 
BRANCH  16  17
ATOM     17  C   UNL     1       5.696   3.928  14.035  0.00  0.00    +0.000 C 
BRANCH  17  18
ATOM     18  C   UNL     1       6.393   3.617  12.712  0.00  0.00    +0.000 C 
BRANCH  18  19
ATOM     19  C   UNL     1       5.457   2.854  11.772  0.00  0.00    +0.000 C 
BRANCH  19  21
ATOM     20  C   UNL     1       3.199   3.025  10.678  0.00  0.00    +0.000 C 
ATOM     21  C   UNL     1       4.443   3.784  11.110  0.00  0.00    +0.000 C 
ENDBRANCH  19  21
ENDBRANCH  18  19
ENDBRANCH  17  18
ENDBRANCH  16  17
ENDBRANCH  15  16
ENDBRANCH  14  15
ENDBRANCH   1  14
TORSDOF 7
ENDMDL
MODEL 8
REMARK VINA RESULT:      -6.3      1.567      3.063
REMARK  Name = 
REMARK  8 active torsions:
REMARK  status: ('A' for Active; 'I' for Inactive)
REMARK    1  A    between atoms: C_1  and  C_2
REMARK    2  A    between atoms: C_2  and  C_3
REMARK    3  A    between atoms: C_3  and  C_4
REMARK    4  A    between atoms: C_4  and  C_5
REMARK    5  A    between atoms: C_5  and  C_6
REMARK    6  A    between atoms: C_6  and  C_7
REMARK    7  A    between atoms: C_7  and  O_8
REMARK    8  A    between atoms: O_8  and  C_9
REMARK                            x       y       z     vdW  Elec       q    Type
REMARK                         _______ _______ _______ _____ _____    ______ ____
ROOT
ATOM      1  C   UNL     1       3.230   2.782  19.212  0.00  0.00    +0.000 A 
ATOM      2  C   UNL     1       2.630   2.792  17.952  0.00  0.00    +0.000 A 
ATOM      3  C   UNL     1       3.234   3.471  16.890  0.00  0.00    +0.000 A 
ATOM      4  C   UNL     1       4.464   4.105  17.072  0.00  0.00    +0.000 A 
ATOM      5  C   UNL     1       5.074   4.098  18.321  0.00  0.00    +0.000 A 
ATOM      6  C   UNL     1       4.440   3.460  19.394  0.00  0.00    +0.000 A 
ATOM      7  C   UNL     1       6.419   4.633  18.616  0.00  0.00    +0.000 C 
ATOM      8  O   UNL     1       6.669   5.157  19.695  0.00  0.00    +0.000 OA
ATOM      9  N   UNL     1       7.444   4.336  17.748  0.00  0.00    +0.000 N 
ATOM     10  C   UNL     1       7.391   4.677  16.341  0.00  0.00    +0.000 C 
ATOM     11  C   UNL     1       6.205   4.113  15.574  0.00  0.00    +0.000 C 
ATOM     12  O   UNL     1       4.987   4.743  15.987  0.00  0.00    +0.000 OA
ATOM     13  H   UNL     1       8.324   4.569  18.189  0.00  0.00    +0.000 HD
ENDROOT
BRANCH   1  14
ATOM     14  O   UNL     1       2.591   2.066  20.181  0.00  0.00    +0.000 OA
BRANCH  14  15
ATOM     15  C   UNL     1       1.398   2.668  20.696  0.00  0.00    +0.000 C 
BRANCH  15  16
ATOM     16  C   UNL     1       1.758   3.985  21.364  0.00  0.00    +0.000 C 
BRANCH  16  17
ATOM     17  C   UNL     1       1.213   5.160  20.560  0.00  0.00    +0.000 C 
BRANCH  17  18
ATOM     18  C   UNL     1       2.322   6.131  20.159  0.00  0.00    +0.000 C 
BRANCH  18  19
ATOM     19  C   UNL     1       1.807   7.572  20.161  0.00  0.00    +0.000 C 
BRANCH  19  21
ATOM     20  C   UNL     1       2.835   7.360  17.875  0.00  0.00    +0.000 C 
ATOM     21  C   UNL     1       2.127   8.287  18.850  0.00  0.00    +0.000 C 
ENDBRANCH  19  21
ENDBRANCH  18  19
ENDBRANCH  17  18
ENDBRANCH  16  17
ENDBRANCH  15  16
ENDBRANCH  14  15
ENDBRANCH   1  14
TORSDOF 7
ENDMDL
MODEL 9
REMARK VINA RESULT:      -6.3      1.682      3.365
REMARK  Name = 
REMARK  8 active torsions:
REMARK  status: ('A' for Active; 'I' for Inactive)
REMARK    1  A    between atoms: C_1  and  C_2
REMARK    2  A    between atoms: C_2  and  C_3
REMARK    3  A    between atoms: C_3  and  C_4
REMARK    4  A    between atoms: C_4  and  C_5
REMARK    5  A    between atoms: C_5  and  C_6
REMARK    6  A    between atoms: C_6  and  C_7
REMARK    7  A    between atoms: C_7  and  O_8
REMARK    8  A    between atoms: O_8  and  C_9
REMARK                            x       y       z     vdW  Elec       q    Type
REMARK                         _______ _______ _______ _____ _____    ______ ____
ROOT
ATOM      1  C   UNL     1       3.576   3.438  17.371  0.00  0.00    +0.000 A 
ATOM      2  C   UNL     1       4.082   3.099  18.628  0.00  0.00    +0.000 A 
ATOM      3  C   UNL     1       5.339   3.561  19.029  0.00  0.00    +0.000 A 
ATOM      4  C   UNL     1       6.076   4.401  18.193  0.00  0.00    +0.000 A 
ATOM      5  C   UNL     1       5.582   4.750  16.942  0.00  0.00    +0.000 A 
ATOM      6  C   UNL     1       4.345   4.243  16.524  0.00  0.00    +0.000 A 
ATOM      7  C   UNL     1       6.209   5.714  16.015  0.00  0.00    +0.000 C 
ATOM      8  O   UNL     1       6.145   5.560  14.802  0.00  0.00    +0.000 OA
ATOM      9  N   UNL     1       6.674   6.903  16.528  0.00  0.00    +0.000 N 
ATOM     10  C   UNL     1       7.665   6.957  17.583  0.00  0.00    +0.000 C 
ATOM     11  C   UNL     1       7.298   6.226  18.865  0.00  0.00    +0.000 C 
ATOM     12  O   UNL     1       7.291   4.809  18.659  0.00  0.00    +0.000 OA
ATOM     13  H   UNL     1       6.861   7.538  15.763  0.00  0.00    +0.000 HD
ENDROOT
BRANCH   1  14
ATOM     14  O   UNL     1       2.328   2.975  17.076  0.00  0.00    +0.000 OA
BRANCH  14  15
ATOM     15  C   UNL     1       1.274   3.511  17.884  0.00  0.00    +0.000 C 
BRANCH  15  16
ATOM     16  C   UNL     1       0.835   2.457  18.887  0.00  0.00    +0.000 C 
BRANCH  16  17
ATOM     17  C   UNL     1       1.061   2.945  20.313  0.00  0.00    +0.000 C 
BRANCH  17  18
ATOM     18  C   UNL     1       0.826   4.450  20.437  0.00  0.00    +0.000 C 
BRANCH  18  19
ATOM     19  C   UNL     1       2.132   5.177  20.767  0.00  0.00    +0.000 C 
BRANCH  19  21
ATOM     20  C   UNL     1       2.901   6.696  18.916  0.00  0.00    +0.000 C 
ATOM     21  C   UNL     1       2.135   6.604  20.225  0.00  0.00    +0.000 C 
ENDBRANCH  19  21
ENDBRANCH  18  19
ENDBRANCH  17  18
ENDBRANCH  16  17
ENDBRANCH  15  16
ENDBRANCH  14  15
ENDBRANCH   1  14
TORSDOF 7
ENDMDL
