MODEL 1
REMARK VINA RESULT:      -8.9      0.000      0.000
REMARK  Name = 
REMARK  9 active torsions:
REMARK  status: ('A' for Active; 'I' for Inactive)
REMARK    1  A    between atoms: C_1  and  O_2
REMARK    2  A    between atoms: O_2  and  C_3
REMARK    3  A    between atoms: C_5  and  N_6
REMARK    4  A    between atoms: C_13  and  C_14
REMARK    5  A    between atoms: C_13  and  O_15
REMARK    6  A    between atoms: N_17  and  C_18
REMARK    7  A    between atoms: C_18  and  C_19
REMARK    8  A    between atoms: C_27  and  N_28
REMARK    9  A    between atoms: C_31  and  C_32
REMARK                            x       y       z     vdW  Elec       q    Type
REMARK                         _______ _______ _______ _____ _____    ______ ____
ROOT
ATOM      1  N   UNL     1       2.190   8.463  18.235  0.00  0.00    +0.000 N 
ATOM      2  C   UNL     1       2.623   7.195  18.316  0.00  0.00    +0.000 A 
ATOM      3  N   UNL     1       3.509   6.802  17.350  0.00  0.00    +0.000 NA
ATOM      4  C   UNL     1       3.659   5.523  17.568  0.00  0.00    +0.000 A 
ATOM      5  N   UNL     1       2.928   5.179  18.667  0.00  0.00    +0.000 N 
ATOM      6  N   UNL     1       2.260   6.227  19.168  0.00  0.00    +0.000 NA
ATOM      7  C   UNL     1       2.829   3.849  19.224  0.00  0.00    +0.000 C 
ATOM      8  C   UNL     1       3.944   2.924  18.695  0.00  0.00    +0.000 C 
ATOM      9  C   UNL     1       3.581   1.455  18.924  0.00  0.00    +0.000 C 
ATOM     10  C   UNL     1       4.181   3.179  17.183  0.00  0.00    +0.000 C 
ATOM     11  N   UNL     1       4.385   4.600  16.900  0.00  0.00    +0.000 N 
ATOM     12  H   UNL     1       2.477   8.955  17.399  0.00  0.00    +0.000 HD
ENDROOT
BRANCH   1  15
ATOM     13  C   UNL     1      -0.274  10.966  19.538  0.00  0.00    +0.000 A 
ATOM     14  C   UNL     1       0.485  10.177  18.660  0.00  0.00    +0.000 A 
ATOM     15  C   UNL     1       1.397   9.216  19.112  0.00  0.00    +0.000 A 
ATOM     16  C   UNL     1       1.587   9.081  20.486  0.00  0.00    +0.000 A 
ATOM     17  C   UNL     1       0.891   9.892  21.381  0.00  0.00    +0.000 A 
ATOM     18  C   UNL     1      -0.040  10.843  20.918  0.00  0.00    +0.000 A 
BRANCH  18  19
ATOM     19  N   UNL     1      -0.696  11.647  21.892  0.00  0.00    +0.000 N 
ATOM     20  C   UNL     1      -1.723  11.309  22.745  0.00  0.00    +0.000 A 
ATOM     21  N   UNL     1      -2.072  12.304  23.537  0.00  0.00    +0.000 NA
ATOM     22  C   UNL     1      -1.259  13.348  23.184  0.00  0.00    +0.000 A 
ATOM     23  C   UNL     1      -1.381  14.680  23.815  0.00  0.00    +0.000 C 
ATOM     24  C   UNL     1      -0.393  12.960  22.188  0.00  0.00    +0.000 A 
ENDBRANCH  18  19
BRANCH  13  26
ATOM     25  C   UNL     1      -0.564  13.047  18.430  0.00  0.00    +0.000 C 
ATOM     26  O   UNL     1      -1.148  11.917  19.081  0.00  0.00    +0.000 OA
ENDBRANCH  13  26
ENDBRANCH   1  15
BRANCH   8  27
ATOM     27  O   UNL     1       5.173   3.165  19.407  0.00  0.00    +0.000 OA
ATOM     28  H   UNL     1       5.047   3.916  20.011  0.00  0.00    +0.000 HD
ENDBRANCH   8  27
BRANCH  11  29
ATOM     29  C   UNL     1       5.565   5.030  16.166  0.00  0.00    +0.000 C 
BRANCH  29  30
ATOM     30  C   UNL     1       6.565   5.751  17.045  0.00  0.00    +0.000 A 
ATOM     31  C   UNL     1       6.859   7.109  16.841  0.00  0.00    +0.000 A 
ATOM     32  C   UNL     1       7.702   7.797  17.715  0.00  0.00    +0.000 A 
ATOM     33  C   UNL     1       8.257   7.138  18.808  0.00  0.00    +0.000 A 
ATOM     34  C   UNL     1       7.983   5.788  19.020  0.00  0.00    +0.000 A 
ATOM     35  C   UNL     1       7.143   5.097  18.143  0.00  0.00    +0.000 A 
ENDBRANCH  29  30
ENDBRANCH  11  29
TORSDOF 6
ENDMDL
MODEL 2
REMARK VINA RESULT:      -8.7      1.062      1.630
REMARK  Name = 
REMARK  9 active torsions:
REMARK  status: ('A' for Active; 'I' for Inactive)
REMARK    1  A    between atoms: C_1  and  O_2
REMARK    2  A    between atoms: O_2  and  C_3
REMARK    3  A    between atoms: C_5  and  N_6
REMARK    4  A    between atoms: C_13  and  C_14
REMARK    5  A    between atoms: C_13  and  O_15
REMARK    6  A    between atoms: N_17  and  C_18
REMARK    7  A    between atoms: C_18  and  C_19
REMARK    8  A    between atoms: C_27  and  N_28
REMARK    9  A    between atoms: C_31  and  C_32
REMARK                            x       y       z     vdW  Elec       q    Type
REMARK                         _______ _______ _______ _____ _____    ______ ____
ROOT
ATOM      1  N   UNL     1       2.222   8.864  18.193  0.00  0.00    +0.000 N 
ATOM      2  C   UNL     1       2.629   7.591  18.315  0.00  0.00    +0.000 A 
ATOM      3  N   UNL     1       3.498   7.145  17.356  0.00  0.00    +0.000 NA
ATOM      4  C   UNL     1       3.622   5.871  17.618  0.00  0.00    +0.000 A 
ATOM      5  N   UNL     1       2.893   5.582  18.734  0.00  0.00    +0.000 N 
ATOM      6  N   UNL     1       2.253   6.661  19.203  0.00  0.00    +0.000 NA
ATOM      7  C   UNL     1       2.770   4.275  19.338  0.00  0.00    +0.000 C 
ATOM      8  C   UNL     1       3.861   3.308  18.833  0.00  0.00    +0.000 C 
ATOM      9  C   UNL     1       3.468   1.855  19.116  0.00  0.00    +0.000 C 
ATOM     10  C   UNL     1       4.090   3.504  17.311  0.00  0.00    +0.000 C 
ATOM     11  N   UNL     1       4.322   4.910  16.977  0.00  0.00    +0.000 N 
ATOM     12  H   UNL     1       2.513   9.320  17.338  0.00  0.00    +0.000 HD
ENDROOT
BRANCH   1  15
ATOM     13  C   UNL     1       0.013   9.942  21.020  0.00  0.00    +0.000 A 
ATOM     14  C   UNL     1       0.822   9.152  20.188  0.00  0.00    +0.000 A 
ATOM     15  C   UNL     1       1.453   9.665  19.049  0.00  0.00    +0.000 A 
ATOM     16  C   UNL     1       1.224  10.996  18.710  0.00  0.00    +0.000 A 
ATOM     17  C   UNL     1       0.377  11.789  19.483  0.00  0.00    +0.000 A 
ATOM     18  C   UNL     1      -0.239  11.271  20.640  0.00  0.00    +0.000 A 
BRANCH  18  19
ATOM     19  N   UNL     1      -1.104  12.137  21.366  0.00  0.00    +0.000 N 
ATOM     20  C   UNL     1      -2.422  12.447  21.123  0.00  0.00    +0.000 A 
ATOM     21  N   UNL     1      -2.923  13.273  22.020  0.00  0.00    +0.000 NA
ATOM     22  C   UNL     1      -1.893  13.536  22.882  0.00  0.00    +0.000 A 
ATOM     23  C   UNL     1      -2.042  14.478  24.013  0.00  0.00    +0.000 C 
ATOM     24  C   UNL     1      -0.771  12.832  22.510  0.00  0.00    +0.000 A 
ENDBRANCH  18  19
BRANCH  13  26
ATOM     25  C   UNL     1       0.139   9.422  23.334  0.00  0.00    +0.000 C 
ATOM     26  O   UNL     1      -0.615   9.421  22.121  0.00  0.00    +0.000 OA
ENDBRANCH  13  26
ENDBRANCH   1  15
BRANCH   8  27
ATOM     27  O   UNL     1       5.101   3.546  19.527  0.00  0.00    +0.000 OA
ATOM     28  H   UNL     1       5.840   3.285  18.951  0.00  0.00    +0.000 HD
ENDBRANCH   8  27
BRANCH  11  29
ATOM     29  C   UNL     1       5.506   5.289  16.220  0.00  0.00    +0.000 C 
BRANCH  29  30
ATOM     30  C   UNL     1       6.557   5.955  17.080  0.00  0.00    +0.000 A 
ATOM     31  C   UNL     1       6.899   7.304  16.888  0.00  0.00    +0.000 A 
ATOM     32  C   UNL     1       7.793   7.944  17.748  0.00  0.00    +0.000 A 
ATOM     33  C   UNL     1       8.352   7.247  18.814  0.00  0.00    +0.000 A 
ATOM     34  C   UNL     1       8.030   5.906  19.014  0.00  0.00    +0.000 A 
ATOM     35  C   UNL     1       7.140   5.262  18.151  0.00  0.00    +0.000 A 
ENDBRANCH  29  30
ENDBRANCH  11  29
TORSDOF 6
ENDMDL
MODEL 3
REMARK VINA RESULT:      -8.6      1.948      2.993
REMARK  Name = 
REMARK  9 active torsions:
REMARK  status: ('A' for Active; 'I' for Inactive)
REMARK    1  A    between atoms: C_1  and  O_2
REMARK    2  A    between atoms: O_2  and  C_3
REMARK    3  A    between atoms: C_5  and  N_6
REMARK    4  A    between atoms: C_13  and  C_14
REMARK    5  A    between atoms: C_13  and  O_15
REMARK    6  A    between atoms: N_17  and  C_18
REMARK    7  A    between atoms: C_18  and  C_19
REMARK    8  A    between atoms: C_27  and  N_28
REMARK    9  A    between atoms: C_31  and  C_32
REMARK                            x       y       z     vdW  Elec       q    Type
REMARK                         _______ _______ _______ _____ _____    ______ ____
ROOT
ATOM      1  N   UNL     1       2.777   8.738  17.806  0.00  0.00    +0.000 N 
ATOM      2  C   UNL     1       3.101   7.440  17.916  0.00  0.00    +0.000 A 
ATOM      3  N   UNL     1       4.112   7.005  17.102  0.00  0.00    +0.000 NA
ATOM      4  C   UNL     1       4.133   5.713  17.298  0.00  0.00    +0.000 A 
ATOM      5  N   UNL     1       3.201   5.400  18.243  0.00  0.00    +0.000 N 
ATOM      6  N   UNL     1       2.530   6.483  18.659  0.00  0.00    +0.000 NA
ATOM      7  C   UNL     1       2.915   4.069  18.728  0.00  0.00    +0.000 C 
ATOM      8  C   UNL     1       4.039   3.076  18.365  0.00  0.00    +0.000 C 
ATOM      9  C   UNL     1       3.541   1.633  18.476  0.00  0.00    +0.000 C 
ATOM     10  C   UNL     1       4.551   3.346  16.926  0.00  0.00    +0.000 C 
ATOM     11  N   UNL     1       4.898   4.754  16.732  0.00  0.00    +0.000 N 
ATOM     12  H   UNL     1       3.238   9.226  17.050  0.00  0.00    +0.000 HD
ENDROOT
BRANCH   1  15
ATOM     13  C   UNL     1       0.264   9.797  20.375  0.00  0.00    +0.000 A 
ATOM     14  C   UNL     1       1.179   9.019  19.649  0.00  0.00    +0.000 A 
ATOM     15  C   UNL     1       1.898   9.529  18.561  0.00  0.00    +0.000 A 
ATOM     16  C   UNL     1       1.652  10.840  18.163  0.00  0.00    +0.000 A 
ATOM     17  C   UNL     1       0.704  11.617  18.827  0.00  0.00    +0.000 A 
ATOM     18  C   UNL     1      -0.001  11.104  19.934  0.00  0.00    +0.000 A 
BRANCH  18  19
ATOM     19  N   UNL     1      -0.965  11.951  20.548  0.00  0.00    +0.000 N 
ATOM     20  C   UNL     1      -0.836  12.746  21.664  0.00  0.00    +0.000 A 
ATOM     21  N   UNL     1      -1.935  13.420  21.937  0.00  0.00    +0.000 NA
ATOM     22  C   UNL     1      -2.836  13.045  20.977  0.00  0.00    +0.000 A 
ATOM     23  C   UNL     1      -4.226  13.549  20.971  0.00  0.00    +0.000 C 
ATOM     24  C   UNL     1      -2.254  12.158  20.101  0.00  0.00    +0.000 A 
ENDBRANCH  18  19
BRANCH  13  26
ATOM     25  C   UNL     1       0.180   9.347  22.706  0.00  0.00    +0.000 C 
ATOM     26  O   UNL     1      -0.449   9.278  21.425  0.00  0.00    +0.000 OA
ENDBRANCH  13  26
ENDBRANCH   1  15
BRANCH   8  27
ATOM     27  O   UNL     1       5.139   3.209  19.285  0.00  0.00    +0.000 OA
ATOM     28  H   UNL     1       5.384   4.148  19.353  0.00  0.00    +0.000 HD
ENDBRANCH   8  27
BRANCH  11  29
ATOM     29  C   UNL     1       6.215   5.113  16.227  0.00  0.00    +0.000 C 
BRANCH  29  30
ATOM     30  C   UNL     1       6.381   4.793  14.757  0.00  0.00    +0.000 A 
ATOM     31  C   UNL     1       7.490   5.264  14.036  0.00  0.00    +0.000 A 
ATOM     32  C   UNL     1       7.695   4.883  12.709  0.00  0.00    +0.000 A 
ATOM     33  C   UNL     1       6.797   4.020  12.088  0.00  0.00    +0.000 A 
ATOM     34  C   UNL     1       5.687   3.549  12.787  0.00  0.00    +0.000 A 
ATOM     35  C   UNL     1       5.479   3.935  14.113  0.00  0.00    +0.000 A 
ENDBRANCH  29  30
ENDBRANCH  11  29
TORSDOF 6
ENDMDL
MODEL 4
REMARK VINA RESULT:      -8.6      0.852      1.217
REMARK  Name = 
REMARK  9 active torsions:
REMARK  status: ('A' for Active; 'I' for Inactive)
REMARK    1  A    between atoms: C_1  and  O_2
REMARK    2  A    between atoms: O_2  and  C_3
REMARK    3  A    between atoms: C_5  and  N_6
REMARK    4  A    between atoms: C_13  and  C_14
REMARK    5  A    between atoms: C_13  and  O_15
REMARK    6  A    between atoms: N_17  and  C_18
REMARK    7  A    between atoms: C_18  and  C_19
REMARK    8  A    between atoms: C_27  and  N_28
REMARK    9  A    between atoms: C_31  and  C_32
REMARK                            x       y       z     vdW  Elec       q    Type
REMARK                         _______ _______ _______ _____ _____    ______ ____
ROOT
ATOM      1  N   UNL     1       2.114   8.508  18.064  0.00  0.00    +0.000 N 
ATOM      2  C   UNL     1       2.566   7.246  18.122  0.00  0.00    +0.000 A 
ATOM      3  N   UNL     1       3.563   6.926  17.240  0.00  0.00    +0.000 NA
ATOM      4  C   UNL     1       3.719   5.639  17.402  0.00  0.00    +0.000 A 
ATOM      5  N   UNL     1       2.880   5.219  18.392  0.00  0.00    +0.000 N 
ATOM      6  N   UNL     1       2.136   6.224  18.874  0.00  0.00    +0.000 NA
ATOM      7  C   UNL     1       2.753   3.858  18.860  0.00  0.00    +0.000 C 
ATOM      8  C   UNL     1       3.941   2.985  18.407  0.00  0.00    +0.000 C 
ATOM      9  C   UNL     1       3.591   1.498  18.512  0.00  0.00    +0.000 C 
ATOM     10  C   UNL     1       4.337   3.331  16.947  0.00  0.00    +0.000 C 
ATOM     11  N   UNL     1       4.536   4.769  16.768  0.00  0.00    +0.000 N 
ATOM     12  H   UNL     1       2.480   9.053  17.294  0.00  0.00    +0.000 HD
ENDROOT
BRANCH   1  15
ATOM     13  C   UNL     1      -0.632  10.788  19.203  0.00  0.00    +0.000 A 
ATOM     14  C   UNL     1       0.240  10.063  18.376  0.00  0.00    +0.000 A 
ATOM     15  C   UNL     1       1.212   9.196  18.888  0.00  0.00    +0.000 A 
ATOM     16  C   UNL     1       1.342   9.094  20.271  0.00  0.00    +0.000 A 
ATOM     17  C   UNL     1       0.531   9.848  21.118  0.00  0.00    +0.000 A 
ATOM     18  C   UNL     1      -0.459  10.703  20.594  0.00  0.00    +0.000 A 
BRANCH  18  19
ATOM     19  N   UNL     1      -1.235  11.454  21.521  0.00  0.00    +0.000 N 
ATOM     20  C   UNL     1      -1.203  11.431  22.897  0.00  0.00    +0.000 A 
ATOM     21  N   UNL     1      -2.052  12.282  23.438  0.00  0.00    +0.000 NA
ATOM     22  C   UNL     1      -2.685  12.880  22.382  0.00  0.00    +0.000 A 
ATOM     23  C   UNL     1      -3.764  13.872  22.580  0.00  0.00    +0.000 C 
ATOM     24  C   UNL     1      -2.185  12.400  21.194  0.00  0.00    +0.000 A 
ENDBRANCH  18  19
BRANCH  13  26
ATOM     25  C   UNL     1      -2.118  11.291  17.419  0.00  0.00    +0.000 C 
ATOM     26  O   UNL     1      -1.565  11.649  18.687  0.00  0.00    +0.000 OA
ENDBRANCH  13  26
ENDBRANCH   1  15
BRANCH   8  27
ATOM     27  O   UNL     1       5.078   3.206  19.264  0.00  0.00    +0.000 OA
ATOM     28  H   UNL     1       5.184   2.440  19.854  0.00  0.00    +0.000 HD
ENDBRANCH   8  27
BRANCH  11  29
ATOM     29  C   UNL     1       5.779   5.263  16.196  0.00  0.00    +0.000 C 
BRANCH  29  30
ATOM     30  C   UNL     1       6.643   5.979  17.211  0.00  0.00    +0.000 A 
ATOM     31  C   UNL     1       7.194   5.291  18.304  0.00  0.00    +0.000 A 
ATOM     32  C   UNL     1       8.073   5.928  19.180  0.00  0.00    +0.000 A 
ATOM     33  C   UNL     1       8.419   7.261  18.972  0.00  0.00    +0.000 A 
ATOM     34  C   UNL     1       7.875   7.960  17.897  0.00  0.00    +0.000 A 
ATOM     35  C   UNL     1       6.990   7.324  17.022  0.00  0.00    +0.000 A 
ENDBRANCH  29  30
ENDBRANCH  11  29
TORSDOF 6
ENDMDL
MODEL 5
REMARK VINA RESULT:      -8.5      1.317      1.613
REMARK  Name = 
REMARK  9 active torsions:
REMARK  status: ('A' for Active; 'I' for Inactive)
REMARK    1  A    between atoms: C_1  and  O_2
REMARK    2  A    between atoms: O_2  and  C_3
REMARK    3  A    between atoms: C_5  and  N_6
REMARK    4  A    between atoms: C_13  and  C_14
REMARK    5  A    between atoms: C_13  and  O_15
REMARK    6  A    between atoms: N_17  and  C_18
REMARK    7  A    between atoms: C_18  and  C_19
REMARK    8  A    between atoms: C_27  and  N_28
REMARK    9  A    between atoms: C_31  and  C_32
REMARK                            x       y       z     vdW  Elec       q    Type
REMARK                         _______ _______ _______ _____ _____    ______ ____
ROOT
ATOM      1  N   UNL     1       2.133   9.031  17.742  0.00  0.00    +0.000 N 
ATOM      2  C   UNL     1       2.575   7.789  17.992  0.00  0.00    +0.000 A 
ATOM      3  N   UNL     1       3.503   7.297  17.113  0.00  0.00    +0.000 NA
ATOM      4  C   UNL     1       3.658   6.056  17.490  0.00  0.00    +0.000 A 
ATOM      5  N   UNL     1       2.888   5.835  18.594  0.00  0.00    +0.000 N 
ATOM      6  N   UNL     1       2.190   6.925  18.940  0.00  0.00    +0.000 NA
ATOM      7  C   UNL     1       2.781   4.581  19.303  0.00  0.00    +0.000 C 
ATOM      8  C   UNL     1       3.926   3.616  18.931  0.00  0.00    +0.000 C 
ATOM      9  C   UNL     1       3.570   2.179  19.321  0.00  0.00    +0.000 C 
ATOM     10  C   UNL     1       4.219   3.690  17.409  0.00  0.00    +0.000 C 
ATOM     11  N   UNL     1       4.419   5.070  16.965  0.00  0.00    +0.000 N 
ATOM     12  H   UNL     1       2.447   9.424  16.864  0.00  0.00    +0.000 HD
ENDROOT
BRANCH   1  15
ATOM     13  C   UNL     1       0.962  11.579  20.227  0.00  0.00    +0.000 A 
ATOM     14  C   UNL     1       1.799  10.771  19.442  0.00  0.00    +0.000 A 
ATOM     15  C   UNL     1       1.298   9.873  18.492  0.00  0.00    +0.000 A 
ATOM     16  C   UNL     1      -0.083   9.750  18.364  0.00  0.00    +0.000 A 
ATOM     17  C   UNL     1      -0.940  10.495  19.172  0.00  0.00    +0.000 A 
ATOM     18  C   UNL     1      -0.429  11.412  20.112  0.00  0.00    +0.000 A 
BRANCH  18  19
ATOM     19  N   UNL     1      -1.366  12.122  20.913  0.00  0.00    +0.000 N 
ATOM     20  C   UNL     1      -1.984  13.325  20.661  0.00  0.00    +0.000 A 
ATOM     21  N   UNL     1      -2.819  13.677  21.620  0.00  0.00    +0.000 NA
ATOM     22  C   UNL     1      -2.738  12.678  22.552  0.00  0.00    +0.000 A 
ATOM     23  C   UNL     1      -3.494  12.732  23.822  0.00  0.00    +0.000 C 
ATOM     24  C   UNL     1      -1.865  11.702  22.129  0.00  0.00    +0.000 A 
ENDBRANCH  18  19
BRANCH  13  26
ATOM     25  C   UNL     1       2.273  13.508  20.674  0.00  0.00    +0.000 C 
ATOM     26  O   UNL     1       1.465  12.438  21.168  0.00  0.00    +0.000 OA
ENDBRANCH  13  26
ENDBRANCH   1  15
BRANCH   8  27
ATOM     27  O   UNL     1       5.124   3.958  19.655  0.00  0.00    +0.000 OA
ATOM     28  H   UNL     1       5.726   3.195  19.649  0.00  0.00    +0.000 HD
ENDBRANCH   8  27
BRANCH  11  29
ATOM     29  C   UNL     1       5.622   5.428  16.230  0.00  0.00    +0.000 C 
BRANCH  29  30
ATOM     30  C   UNL     1       6.658   6.104  17.103  0.00  0.00    +0.000 A 
ATOM     31  C   UNL     1       6.989   7.455  16.914  0.00  0.00    +0.000 A 
ATOM     32  C   UNL     1       7.867   8.105  17.784  0.00  0.00    +0.000 A 
ATOM     33  C   UNL     1       8.419   7.413  18.858  0.00  0.00    +0.000 A 
ATOM     34  C   UNL     1       8.106   6.069  19.055  0.00  0.00    +0.000 A 
ATOM     35  C   UNL     1       7.232   5.417  18.181  0.00  0.00    +0.000 A 
ENDBRANCH  29  30
ENDBRANCH  11  29
TORSDOF 6
ENDMDL
MODEL 6
REMARK VINA RESULT:      -8.4      1.775      2.584
REMARK  Name = 
REMARK  9 active torsions:
REMARK  status: ('A' for Active; 'I' for Inactive)
REMARK    1  A    between atoms: C_1  and  O_2
REMARK    2  A    between atoms: O_2  and  C_3
REMARK    3  A    between atoms: C_5  and  N_6
REMARK    4  A    between atoms: C_13  and  C_14
REMARK    5  A    between atoms: C_13  and  O_15
REMARK    6  A    between atoms: N_17  and  C_18
REMARK    7  A    between atoms: C_18  and  C_19
REMARK    8  A    between atoms: C_27  and  N_28
REMARK    9  A    between atoms: C_31  and  C_32
REMARK                            x       y       z     vdW  Elec       q    Type
REMARK                         _______ _______ _______ _____ _____    ______ ____
ROOT
ATOM      1  N   UNL     1       2.740   8.667  17.736  0.00  0.00    +0.000 N 
ATOM      2  C   UNL     1       3.071   7.373  17.869  0.00  0.00    +0.000 A 
ATOM      3  N   UNL     1       4.108   6.938  17.088  0.00  0.00    +0.000 NA
ATOM      4  C   UNL     1       4.134   5.649  17.299  0.00  0.00    +0.000 A 
ATOM      5  N   UNL     1       3.178   5.337  18.220  0.00  0.00    +0.000 N 
ATOM      6  N   UNL     1       2.487   6.419  18.605  0.00  0.00    +0.000 NA
ATOM      7  C   UNL     1       2.890   4.009  18.711  0.00  0.00    +0.000 C 
ATOM      8  C   UNL     1       4.031   3.022  18.391  0.00  0.00    +0.000 C 
ATOM      9  C   UNL     1       3.542   1.576  18.504  0.00  0.00    +0.000 C 
ATOM     10  C   UNL     1       4.582   3.281  16.964  0.00  0.00    +0.000 C 
ATOM     11  N   UNL     1       4.923   4.690  16.765  0.00  0.00    +0.000 N 
ATOM     12  H   UNL     1       3.218   9.151  16.987  0.00  0.00    +0.000 HD
ENDROOT
BRANCH   1  15
ATOM     13  C   UNL     1       0.730  11.608  18.896  0.00  0.00    +0.000 A 
ATOM     14  C   UNL     1       1.600  10.803  18.145  0.00  0.00    +0.000 A 
ATOM     15  C   UNL     1       1.834   9.458  18.457  0.00  0.00    +0.000 A 
ATOM     16  C   UNL     1       1.212   8.924  19.583  0.00  0.00    +0.000 A 
ATOM     17  C   UNL     1       0.390   9.716  20.382  0.00  0.00    +0.000 A 
ATOM     18  C   UNL     1       0.144  11.063  20.051  0.00  0.00    +0.000 A 
BRANCH  18  19
ATOM     19  N   UNL     1      -0.691  11.812  20.926  0.00  0.00    +0.000 N 
ATOM     20  C   UNL     1      -0.361  12.467  22.090  0.00  0.00    +0.000 A 
ATOM     21  N   UNL     1      -1.391  13.083  22.636  0.00  0.00    +0.000 NA
ATOM     22  C   UNL     1      -2.450  12.813  21.812  0.00  0.00    +0.000 A 
ATOM     23  C   UNL     1      -3.817  13.289  22.116  0.00  0.00    +0.000 C 
ATOM     24  C   UNL     1      -2.039  12.049  20.744  0.00  0.00    +0.000 A 
ENDBRANCH  18  19
BRANCH  13  26
ATOM     25  C   UNL     1       1.611  13.814  18.880  0.00  0.00    +0.000 C 
ATOM     26  O   UNL     1       0.527  12.929  18.591  0.00  0.00    +0.000 OA
ENDBRANCH  13  26
ENDBRANCH   1  15
BRANCH   8  27
ATOM     27  O   UNL     1       5.104   3.174  19.340  0.00  0.00    +0.000 OA
ATOM     28  H   UNL     1       4.741   3.513  20.176  0.00  0.00    +0.000 HD
ENDBRANCH   8  27
BRANCH  11  29
ATOM     29  C   UNL     1       6.250   5.055  16.293  0.00  0.00    +0.000 C 
BRANCH  29  30
ATOM     30  C   UNL     1       6.434   4.792  14.814  0.00  0.00    +0.000 A 
ATOM     31  C   UNL     1       7.515   5.348  14.111  0.00  0.00    +0.000 A 
ATOM     32  C   UNL     1       7.742   5.022  12.773  0.00  0.00    +0.000 A 
ATOM     33  C   UNL     1       6.894   4.130  12.122  0.00  0.00    +0.000 A 
ATOM     34  C   UNL     1       5.812   3.575  12.803  0.00  0.00    +0.000 A 
ATOM     35  C   UNL     1       5.582   3.906  14.141  0.00  0.00    +0.000 A 
ENDBRANCH  29  30
ENDBRANCH  11  29
TORSDOF 6
ENDMDL
MODEL 7
REMARK VINA RESULT:      -8.4      1.904      2.842
REMARK  Name = 
REMARK  9 active torsions:
REMARK  status: ('A' for Active; 'I' for Inactive)
REMARK    1  A    between atoms: C_1  and  O_2
REMARK    2  A    between atoms: O_2  and  C_3
REMARK    3  A    between atoms: C_5  and  N_6
REMARK    4  A    between atoms: C_13  and  C_14
REMARK    5  A    between atoms: C_13  and  O_15
REMARK    6  A    between atoms: N_17  and  C_18
REMARK    7  A    between atoms: C_18  and  C_19
REMARK    8  A    between atoms: C_27  and  N_28
REMARK    9  A    between atoms: C_31  and  C_32
REMARK                            x       y       z     vdW  Elec       q    Type
REMARK                         _______ _______ _______ _____ _____    ______ ____
ROOT
ATOM      1  N   UNL     1       2.165   9.113  17.691  0.00  0.00    +0.000 N 
ATOM      2  C   UNL     1       2.770   7.957  18.007  0.00  0.00    +0.000 A 
ATOM      3  N   UNL     1       3.722   7.520  17.126  0.00  0.00    +0.000 NA
ATOM      4  C   UNL     1       4.045   6.338  17.580  0.00  0.00    +0.000 A 
ATOM      5  N   UNL     1       3.346   6.106  18.729  0.00  0.00    +0.000 N 
ATOM      6  N   UNL     1       2.529   7.124  19.028  0.00  0.00    +0.000 NA
ATOM      7  C   UNL     1       3.423   4.904  19.526  0.00  0.00    +0.000 C 
ATOM      8  C   UNL     1       4.666   4.063  19.173  0.00  0.00    +0.000 C 
ATOM      9  C   UNL     1       4.508   2.626  19.677  0.00  0.00    +0.000 C 
ATOM     10  C   UNL     1       4.896   4.061  17.639  0.00  0.00    +0.000 C 
ATOM     11  N   UNL     1       4.905   5.418  17.093  0.00  0.00    +0.000 N 
ATOM     12  H   UNL     1       2.398   9.476  16.775  0.00  0.00    +0.000 HD
ENDROOT
BRANCH   1  15
ATOM     13  C   UNL     1       0.760  11.560  20.156  0.00  0.00    +0.000 A 
ATOM     14  C   UNL     1       1.670  10.808  19.397  0.00  0.00    +0.000 A 
ATOM     15  C   UNL     1       1.257   9.899  18.416  0.00  0.00    +0.000 A 
ATOM     16  C   UNL     1      -0.109   9.704  18.230  0.00  0.00    +0.000 A 
ATOM     17  C   UNL     1      -1.037  10.391  19.011  0.00  0.00    +0.000 A 
ATOM     18  C   UNL     1      -0.614  11.320  19.982  0.00  0.00    +0.000 A 
BRANCH  18  19
ATOM     19  N   UNL     1      -1.619  11.968  20.752  0.00  0.00    +0.000 N 
ATOM     20  C   UNL     1      -2.543  12.908  20.356  0.00  0.00    +0.000 A 
ATOM     21  N   UNL     1      -3.344  13.276  21.336  0.00  0.00    +0.000 NA
ATOM     22  C   UNL     1      -2.924  12.569  22.430  0.00  0.00    +0.000 A 
ATOM     23  C   UNL     1      -3.545  12.747  23.761  0.00  0.00    +0.000 C 
ATOM     24  C   UNL     1      -1.878  11.743  22.089  0.00  0.00    +0.000 A 
ENDBRANCH  18  19
BRANCH  13  26
ATOM     25  C   UNL     1       2.038  13.487  20.696  0.00  0.00    +0.000 C 
ATOM     26  O   UNL     1       1.178  12.431  21.127  0.00  0.00    +0.000 OA
ENDBRANCH  13  26
ENDBRANCH   1  15
BRANCH   8  27
ATOM     27  O   UNL     1       5.835   4.603  19.820  0.00  0.00    +0.000 OA
ATOM     28  H   UNL     1       6.178   5.341  19.287  0.00  0.00    +0.000 HD
ENDBRANCH   8  27
BRANCH  11  29
ATOM     29  C   UNL     1       6.029   5.866  16.284  0.00  0.00    +0.000 C 
BRANCH  29  30
ATOM     30  C   UNL     1       6.100   5.162  14.946  0.00  0.00    +0.000 A 
ATOM     31  C   UNL     1       7.286   5.158  14.194  0.00  0.00    +0.000 A 
ATOM     32  C   UNL     1       7.380   4.422  13.012  0.00  0.00    +0.000 A 
ATOM     33  C   UNL     1       6.292   3.676  12.569  0.00  0.00    +0.000 A 
ATOM     34  C   UNL     1       5.106   3.675  13.299  0.00  0.00    +0.000 A 
ATOM     35  C   UNL     1       5.008   4.416  14.480  0.00  0.00    +0.000 A 
ENDBRANCH  29  30
ENDBRANCH  11  29
TORSDOF 6
ENDMDL
MODEL 8
REMARK VINA RESULT:      -8.4      1.613      2.453
REMARK  Name = 
REMARK  9 active torsions:
REMARK  status: ('A' for Active; 'I' for Inactive)
REMARK    1  A    between atoms: C_1  and  O_2
REMARK    2  A    between atoms: O_2  and  C_3
REMARK    3  A    between atoms: C_5  and  N_6
REMARK    4  A    between atoms: C_13  and  C_14
REMARK    5  A    between atoms: C_13  and  O_15
REMARK    6  A    between atoms: N_17  and  C_18
REMARK    7  A    between atoms: C_18  and  C_19
REMARK    8  A    between atoms: C_27  and  N_28
REMARK    9  A    between atoms: C_31  and  C_32
REMARK                            x       y       z     vdW  Elec       q    Type
REMARK                         _______ _______ _______ _____ _____    ______ ____
ROOT
ATOM      1  N   UNL     1       2.362   8.497  18.038  0.00  0.00    +0.000 N 
ATOM      2  C   UNL     1       2.785   7.224  18.096  0.00  0.00    +0.000 A 
ATOM      3  N   UNL     1       3.825   6.901  17.267  0.00  0.00    +0.000 NA
ATOM      4  C   UNL     1       3.946   5.608  17.411  0.00  0.00    +0.000 A 
ATOM      5  N   UNL     1       3.043   5.186  18.342  0.00  0.00    +0.000 N 
ATOM      6  N   UNL     1       2.292   6.197  18.800  0.00  0.00    +0.000 NA
ATOM      7  C   UNL     1       2.862   3.820  18.773  0.00  0.00    +0.000 C 
ATOM      8  C   UNL     1       4.057   2.931  18.372  0.00  0.00    +0.000 C 
ATOM      9  C   UNL     1       3.673   1.450  18.426  0.00  0.00    +0.000 C 
ATOM     10  C   UNL     1       4.544   3.297  16.945  0.00  0.00    +0.000 C 
ATOM     11  N   UNL     1       4.781   4.734  16.808  0.00  0.00    +0.000 N 
ATOM     12  H   UNL     1       2.782   9.049  17.302  0.00  0.00    +0.000 HD
ENDROOT
BRANCH   1  15
ATOM     13  C   UNL     1      -0.313  10.900  19.088  0.00  0.00    +0.000 A 
ATOM     14  C   UNL     1       0.589  10.176  18.294  0.00  0.00    +0.000 A 
ATOM     15  C   UNL     1       1.426   9.187  18.823  0.00  0.00    +0.000 A 
ATOM     16  C   UNL     1       1.389   8.955  20.196  0.00  0.00    +0.000 A 
ATOM     17  C   UNL     1       0.546   9.701  21.018  0.00  0.00    +0.000 A 
ATOM     18  C   UNL     1      -0.308  10.681  20.476  0.00  0.00    +0.000 A 
BRANCH  18  19
ATOM     19  N   UNL     1      -1.125  11.413  21.381  0.00  0.00    +0.000 N 
ATOM     20  C   UNL     1      -0.983  11.575  22.741  0.00  0.00    +0.000 A 
ATOM     21  N   UNL     1      -1.919  12.344  23.261  0.00  0.00    +0.000 NA
ATOM     22  C   UNL     1      -2.724  12.692  22.210  0.00  0.00    +0.000 A 
ATOM     23  C   UNL     1      -3.937  13.519  22.397  0.00  0.00    +0.000 C 
ATOM     24  C   UNL     1      -2.244  12.147  21.042  0.00  0.00    +0.000 A 
ENDBRANCH  18  19
BRANCH  13  26
ATOM     25  C   UNL     1      -1.974  11.482  17.492  0.00  0.00    +0.000 C 
ATOM     26  O   UNL     1      -1.112  11.881  18.559  0.00  0.00    +0.000 OA
ENDBRANCH  13  26
ENDBRANCH   1  15
BRANCH   8  27
ATOM     27  O   UNL     1       5.147   3.112  19.297  0.00  0.00    +0.000 OA
ATOM     28  H   UNL     1       4.978   2.578  20.093  0.00  0.00    +0.000 HD
ENDBRANCH   8  27
BRANCH  11  29
ATOM     29  C   UNL     1       6.065   5.213  16.319  0.00  0.00    +0.000 C 
BRANCH  29  30
ATOM     30  C   UNL     1       6.298   4.870  14.863  0.00  0.00    +0.000 A 
ATOM     31  C   UNL     1       7.425   5.352  14.179  0.00  0.00    +0.000 A 
ATOM     32  C   UNL     1       7.692   4.950  12.869  0.00  0.00    +0.000 A 
ATOM     33  C   UNL     1       6.839   4.057  12.228  0.00  0.00    +0.000 A 
ATOM     34  C   UNL     1       5.712   3.575  12.891  0.00  0.00    +0.000 A 
ATOM     35  C   UNL     1       5.441   3.980  14.200  0.00  0.00    +0.000 A 
ENDBRANCH  29  30
ENDBRANCH  11  29
TORSDOF 6
ENDMDL
MODEL 9
REMARK VINA RESULT:      -8.4      1.355      2.117
REMARK  Name = 
REMARK  9 active torsions:
REMARK  status: ('A' for Active; 'I' for Inactive)
REMARK    1  A    between atoms: C_1  and  O_2
REMARK    2  A    between atoms: O_2  and  C_3
REMARK    3  A    between atoms: C_5  and  N_6
REMARK    4  A    between atoms: C_13  and  C_14
REMARK    5  A    between atoms: C_13  and  O_15
REMARK    6  A    between atoms: N_17  and  C_18
REMARK    7  A    between atoms: C_18  and  C_19
REMARK    8  A    between atoms: C_27  and  N_28
REMARK    9  A    between atoms: C_31  and  C_32
REMARK                            x       y       z     vdW  Elec       q    Type
REMARK                         _______ _______ _______ _____ _____    ______ ____
ROOT
ATOM      1  N   UNL     1       1.922   9.132  18.412  0.00  0.00    +0.000 N 
ATOM      2  C   UNL     1       2.252   7.839  18.558  0.00  0.00    +0.000 A 
ATOM      3  N   UNL     1       3.078   7.320  17.599  0.00  0.00    +0.000 NA
ATOM      4  C   UNL     1       3.128   6.047  17.888  0.00  0.00    +0.000 A 
ATOM      5  N   UNL     1       2.399   5.827  19.019  0.00  0.00    +0.000 N 
ATOM      6  N   UNL     1       1.833   6.954  19.472  0.00  0.00    +0.000 NA
ATOM      7  C   UNL     1       2.205   4.544  19.654  0.00  0.00    +0.000 C 
ATOM      8  C   UNL     1       3.227   3.501  19.157  0.00  0.00    +0.000 C 
ATOM      9  C   UNL     1       2.750   2.082  19.478  0.00  0.00    +0.000 C 
ATOM     10  C   UNL     1       3.446   3.649  17.628  0.00  0.00    +0.000 C 
ATOM     11  N   UNL     1       3.758   5.030  17.260  0.00  0.00    +0.000 N 
ATOM     12  H   UNL     1       2.228   9.550  17.544  0.00  0.00    +0.000 HD
ENDROOT
BRANCH   1  15
ATOM     13  C   UNL     1       0.423  10.650  21.492  0.00  0.00    +0.000 A 
ATOM     14  C   UNL     1       1.168   9.812  20.647  0.00  0.00    +0.000 A 
ATOM     15  C   UNL     1       1.216   9.997  19.260  0.00  0.00    +0.000 A 
ATOM     16  C   UNL     1       0.454  11.021  18.704  0.00  0.00    +0.000 A 
ATOM     17  C   UNL     1      -0.343  11.831  19.511  0.00  0.00    +0.000 A 
ATOM     18  C   UNL     1      -0.370  11.652  20.909  0.00  0.00    +0.000 A 
BRANCH  18  19
ATOM     19  N   UNL     1      -1.223  12.505  21.663  0.00  0.00    +0.000 N 
ATOM     20  C   UNL     1      -0.889  13.561  22.481  0.00  0.00    +0.000 A 
ATOM     21  N   UNL     1      -1.945  14.148  23.008  0.00  0.00    +0.000 NA
ATOM     22  C   UNL     1      -3.021  13.444  22.538  0.00  0.00    +0.000 A 
ATOM     23  C   UNL     1      -4.405  13.765  22.951  0.00  0.00    +0.000 C 
ATOM     24  C   UNL     1      -2.601  12.443  21.693  0.00  0.00    +0.000 A 
ENDBRANCH  18  19
BRANCH  13  26
ATOM     25  C   UNL     1      -0.486   9.388  23.287  0.00  0.00    +0.000 C 
ATOM     26  O   UNL     1       0.369  10.444  22.846  0.00  0.00    +0.000 OA
ENDBRANCH  13  26
ENDBRANCH   1  15
BRANCH   8  27
ATOM     27  O   UNL     1       4.489   3.677  19.829  0.00  0.00    +0.000 OA
ATOM     28  H   UNL     1       4.523   3.085  20.599  0.00  0.00    +0.000 HD
ENDBRANCH   8  27
BRANCH  11  29
ATOM     29  C   UNL     1       4.952   5.319  16.478  0.00  0.00    +0.000 C 
BRANCH  29  30
ATOM     30  C   UNL     1       6.059   5.928  17.311  0.00  0.00    +0.000 A 
ATOM     31  C   UNL     1       6.673   5.197  18.341  0.00  0.00    +0.000 A 
ATOM     32  C   UNL     1       7.762   5.722  19.039  0.00  0.00    +0.000 A 
ATOM     33  C   UNL     1       8.255   6.981  18.712  0.00  0.00    +0.000 A 
ATOM     34  C   UNL     1       7.652   7.723  17.698  0.00  0.00    +0.000 A 
ATOM     35  C   UNL     1       6.559   7.201  17.002  0.00  0.00    +0.000 A 
ENDBRANCH  29  30
ENDBRANCH  11  29
TORSDOF 6
ENDMDL
