MODEL 1
REMARK VINA RESULT:      -8.5      0.000      0.000
REMARK  Name = 
REMARK  5 active torsions:
REMARK  status: ('A' for Active; 'I' for Inactive)
REMARK    1  A    between atoms: N_1  and  C_2
REMARK    2  A    between atoms: C_5  and  C_6
REMARK    3  A    between atoms: N_9  and  C_10
REMARK    4  A    between atoms: C_15  and  C_16
REMARK    5  A    between atoms: C_19  and  N_20
REMARK                            x       y       z     vdW  Elec       q    Type
REMARK                         _______ _______ _______ _____ _____    ______ ____
ROOT
ATOM      1  C   UNL     1       3.525   4.017  19.775  0.00  0.00    +0.000 A 
ATOM      2  C   UNL     1       3.531   2.763  20.431  0.00  0.00    +0.000 A 
ATOM      3  C   UNL     1       2.449   2.352  21.204  0.00  0.00    +0.000 A 
ATOM      4  C   UNL     1       1.371   3.204  21.373  0.00  0.00    +0.000 A 
ATOM      5  C   UNL     1       1.382   4.470  20.779  0.00  0.00    +0.000 A 
ATOM      6  C   UNL     1       2.443   4.923  19.953  0.00  0.00    +0.000 A 
ENDROOT
BRANCH   6   7
ATOM      7  C   UNL     1       2.346   6.310  19.407  0.00  0.00    +0.000 A 
ATOM      8  C   UNL     1       2.767   6.651  18.111  0.00  0.00    +0.000 A 
ATOM      9  C   UNL     1       2.575   7.940  17.589  0.00  0.00    +0.000 A 
ATOM     10  C   UNL     1       2.084   8.969  18.387  0.00  0.00    +0.000 A 
ATOM     11  C   UNL     1       1.692   8.662  19.686  0.00  0.00    +0.000 A 
ATOM     12  C   UNL     1       1.822   7.358  20.188  0.00  0.00    +0.000 A 
BRANCH  10  13
ATOM     13  N   UNL     1       1.772  10.215  17.830  0.00  0.00    +0.000 N 
ATOM     14  H   UNL     1       1.010  10.190  17.162  0.00  0.00    +0.000 HD
ATOM     15  H   UNL     1       2.579  10.727  17.488  0.00  0.00    +0.000 HD
ENDBRANCH  10  13
ENDBRANCH   6   7
BRANCH   1  19
ATOM     16  C   UNL     1       5.775   4.470  17.149  0.00  0.00    +0.000 A 
ATOM     17  C   UNL     1       6.484   4.985  18.252  0.00  0.00    +0.000 A 
ATOM     18  N   UNL     1       5.793   4.807  19.380  0.00  0.00    +0.000 NA
ATOM     19  N   UNL     1       4.627   4.268  18.913  0.00  0.00    +0.000 N 
ATOM     20  N   UNL     1       4.626   3.953  17.600  0.00  0.00    +0.000 NA
BRANCH  16  24
ATOM     21  C   UNL     1       6.843   4.406  13.003  0.00  0.00    +0.000 A 
ATOM     22  C   UNL     1       7.653   5.046  13.939  0.00  0.00    +0.000 A 
ATOM     23  C   UNL     1       7.294   5.077  15.288  0.00  0.00    +0.000 A 
ATOM     24  C   UNL     1       6.127   4.443  15.737  0.00  0.00    +0.000 A 
ATOM     25  C   UNL     1       5.348   3.746  14.803  0.00  0.00    +0.000 A 
ATOM     26  C   UNL     1       5.719   3.712  13.453  0.00  0.00    +0.000 A 
BRANCH  21  27
ATOM     27  N   UNL     1       7.278   4.267  11.680  0.00  0.00    +0.000 N 
ATOM     28  H   UNL     1       6.684   4.738  11.004  0.00  0.00    +0.000 HD
ATOM     29  H   UNL     1       7.473   3.308  11.413  0.00  0.00    +0.000 HD
ENDBRANCH  21  27
ENDBRANCH  16  24
ENDBRANCH   1  19
TORSDOF 5
ENDMDL
MODEL 2
REMARK VINA RESULT:      -8.4      4.112      6.240
REMARK  Name = 
REMARK  5 active torsions:
REMARK  status: ('A' for Active; 'I' for Inactive)
REMARK    1  A    between atoms: N_1  and  C_2
REMARK    2  A    between atoms: C_5  and  C_6
REMARK    3  A    between atoms: N_9  and  C_10
REMARK    4  A    between atoms: C_15  and  C_16
REMARK    5  A    between atoms: C_19  and  N_20
REMARK                            x       y       z     vdW  Elec       q    Type
REMARK                         _______ _______ _______ _____ _____    ______ ____
ROOT
ATOM      1  C   UNL     1       6.652   5.642  16.306  0.00  0.00    +0.000 A 
ATOM      2  C   UNL     1       7.432   5.108  15.253  0.00  0.00    +0.000 A 
ATOM      3  C   UNL     1       6.843   4.394  14.214  0.00  0.00    +0.000 A 
ATOM      4  C   UNL     1       5.478   4.160  14.238  0.00  0.00    +0.000 A 
ATOM      5  C   UNL     1       4.707   4.631  15.306  0.00  0.00    +0.000 A 
ATOM      6  C   UNL     1       5.253   5.394  16.370  0.00  0.00    +0.000 A 
ENDROOT
BRANCH   6   7
ATOM      7  C   UNL     1       4.326   5.807  17.467  0.00  0.00    +0.000 A 
ATOM      8  C   UNL     1       4.083   5.013  18.600  0.00  0.00    +0.000 A 
ATOM      9  C   UNL     1       3.285   5.467  19.661  0.00  0.00    +0.000 A 
ATOM     10  C   UNL     1       2.589   6.670  19.569  0.00  0.00    +0.000 A 
ATOM     11  C   UNL     1       2.788   7.458  18.439  0.00  0.00    +0.000 A 
ATOM     12  C   UNL     1       3.639   7.034  17.407  0.00  0.00    +0.000 A 
BRANCH  10  13
ATOM     13  N   UNL     1       1.900   7.180  20.674  0.00  0.00    +0.000 N 
ATOM     14  H   UNL     1       2.362   7.014  21.562  0.00  0.00    +0.000 HD
ATOM     15  H   UNL     1       0.914   6.940  20.693  0.00  0.00    +0.000 HD
ENDBRANCH  10  13
ENDBRANCH   6   7
BRANCH   1  19
ATOM     16  C   UNL     1       8.175   8.173  18.160  0.00  0.00    +0.000 A 
ATOM     17  C   UNL     1       8.269   7.063  19.023  0.00  0.00    +0.000 A 
ATOM     18  N   UNL     1       7.805   5.963  18.426  0.00  0.00    +0.000 NA
ATOM     19  N   UNL     1       7.349   6.460  17.237  0.00  0.00    +0.000 N 
ATOM     20  N   UNL     1       7.653   7.754  17.001  0.00  0.00    +0.000 NA
BRANCH  16  24
ATOM     21  C   UNL     1       9.300  12.252  18.822  0.00  0.00    +0.000 A 
ATOM     22  C   UNL     1       9.760  11.238  19.661  0.00  0.00    +0.000 A 
ATOM     23  C   UNL     1       9.380   9.912  19.451  0.00  0.00    +0.000 A 
ATOM     24  C   UNL     1       8.550   9.562  18.376  0.00  0.00    +0.000 A 
ATOM     25  C   UNL     1       8.141  10.574  17.496  0.00  0.00    +0.000 A 
ATOM     26  C   UNL     1       8.533  11.902  17.709  0.00  0.00    +0.000 A 
BRANCH  21  27
ATOM     27  N   UNL     1       9.792  13.554  18.961  0.00  0.00    +0.000 N 
ATOM     28  H   UNL     1      10.320  13.878  18.157  0.00  0.00    +0.000 HD
ATOM     29  H   UNL     1      10.288  13.712  19.832  0.00  0.00    +0.000 HD
ENDBRANCH  21  27
ENDBRANCH  16  24
ENDBRANCH   1  19
TORSDOF 5
ENDMDL
MODEL 3
REMARK VINA RESULT:      -8.4      0.205      1.369
REMARK  Name = 
REMARK  5 active torsions:
REMARK  status: ('A' for Active; 'I' for Inactive)
REMARK    1  A    between atoms: N_1  and  C_2
REMARK    2  A    between atoms: C_5  and  C_6
REMARK    3  A    between atoms: N_9  and  C_10
REMARK    4  A    between atoms: C_15  and  C_16
REMARK    5  A    between atoms: C_19  and  N_20
REMARK                            x       y       z     vdW  Elec       q    Type
REMARK                         _______ _______ _______ _____ _____    ______ ____
ROOT
ATOM      1  C   UNL     1       3.504   4.169  19.775  0.00  0.00    +0.000 A 
ATOM      2  C   UNL     1       3.592   2.912  20.418  0.00  0.00    +0.000 A 
ATOM      3  C   UNL     1       2.543   2.427  21.193  0.00  0.00    +0.000 A 
ATOM      4  C   UNL     1       1.416   3.210  21.378  0.00  0.00    +0.000 A 
ATOM      5  C   UNL     1       1.344   4.480  20.797  0.00  0.00    +0.000 A 
ATOM      6  C   UNL     1       2.370   5.006  19.970  0.00  0.00    +0.000 A 
ENDROOT
BRANCH   6   7
ATOM      7  C   UNL     1       2.185   6.390  19.439  0.00  0.00    +0.000 A 
ATOM      8  C   UNL     1       1.734   7.457  20.232  0.00  0.00    +0.000 A 
ATOM      9  C   UNL     1       1.662   8.768  19.733  0.00  0.00    +0.000 A 
ATOM     10  C   UNL     1       1.904   9.035  18.389  0.00  0.00    +0.000 A 
ATOM     11  C   UNL     1       2.320   7.985  17.575  0.00  0.00    +0.000 A 
ATOM     12  C   UNL     1       2.456   6.687  18.089  0.00  0.00    +0.000 A 
BRANCH  10  13
ATOM     13  N   UNL     1       1.958  10.354  17.924  0.00  0.00    +0.000 N 
ATOM     14  H   UNL     1       1.346  10.540  17.137  0.00  0.00    +0.000 HD
ATOM     15  H   UNL     1       2.901  10.701  17.780  0.00  0.00    +0.000 HD
ENDBRANCH  10  13
ENDBRANCH   6   7
BRANCH   1  19
ATOM     16  C   UNL     1       5.746   4.681  17.154  0.00  0.00    +0.000 A 
ATOM     17  C   UNL     1       6.326   5.425  18.201  0.00  0.00    +0.000 A 
ATOM     18  N   UNL     1       5.631   5.265  19.330  0.00  0.00    +0.000 NA
ATOM     19  N   UNL     1       4.583   4.496  18.909  0.00  0.00    +0.000 N 
ATOM     20  N   UNL     1       4.678   4.040  17.642  0.00  0.00    +0.000 NA
BRANCH  16  24
ATOM     21  C   UNL     1       6.901   4.289  13.049  0.00  0.00    +0.000 A 
ATOM     22  C   UNL     1       5.723   3.710  13.518  0.00  0.00    +0.000 A 
ATOM     23  C   UNL     1       5.358   3.828  14.860  0.00  0.00    +0.000 A 
ATOM     24  C   UNL     1       6.149   4.553  15.761  0.00  0.00    +0.000 A 
ATOM     25  C   UNL     1       7.300   5.189  15.273  0.00  0.00    +0.000 A 
ATOM     26  C   UNL     1       7.656   5.073  13.923  0.00  0.00    +0.000 A 
BRANCH  21  27
ATOM     27  N   UNL     1       7.189   4.278  11.679  0.00  0.00    +0.000 N 
ATOM     28  H   UNL     1       6.819   5.080  11.179  0.00  0.00    +0.000 HD
ATOM     29  H   UNL     1       6.961   3.402  11.221  0.00  0.00    +0.000 HD
ENDBRANCH  21  27
ENDBRANCH  16  24
ENDBRANCH   1  19
TORSDOF 5
ENDMDL
MODEL 4
REMARK VINA RESULT:      -8.3      4.072      6.284
REMARK  Name = 
REMARK  5 active torsions:
REMARK  status: ('A' for Active; 'I' for Inactive)
REMARK    1  A    between atoms: N_1  and  C_2
REMARK    2  A    between atoms: C_5  and  C_6
REMARK    3  A    between atoms: N_9  and  C_10
REMARK    4  A    between atoms: C_15  and  C_16
REMARK    5  A    between atoms: C_19  and  N_20
REMARK                            x       y       z     vdW  Elec       q    Type
REMARK                         _______ _______ _______ _____ _____    ______ ____
ROOT
ATOM      1  C   UNL     1       6.647   5.602  16.260  0.00  0.00    +0.000 A 
ATOM      2  C   UNL     1       7.390   5.184  15.131  0.00  0.00    +0.000 A 
ATOM      3  C   UNL     1       6.784   4.480  14.094  0.00  0.00    +0.000 A 
ATOM      4  C   UNL     1       5.445   4.141  14.194  0.00  0.00    +0.000 A 
ATOM      5  C   UNL     1       4.717   4.497  15.333  0.00  0.00    +0.000 A 
ATOM      6  C   UNL     1       5.277   5.245  16.401  0.00  0.00    +0.000 A 
ENDROOT
BRANCH   6   7
ATOM      7  C   UNL     1       4.400   5.530  17.577  0.00  0.00    +0.000 A 
ATOM      8  C   UNL     1       3.703   6.738  17.733  0.00  0.00    +0.000 A 
ATOM      9  C   UNL     1       2.810   6.942  18.797  0.00  0.00    +0.000 A 
ATOM     10  C   UNL     1       2.686   6.003  19.817  0.00  0.00    +0.000 A 
ATOM     11  C   UNL     1       3.395   4.810  19.700  0.00  0.00    +0.000 A 
ATOM     12  C   UNL     1       4.237   4.579  18.602  0.00  0.00    +0.000 A 
BRANCH  10  13
ATOM     13  N   UNL     1       1.705   6.147  20.803  0.00  0.00    +0.000 N 
ATOM     14  H   UNL     1       0.907   6.703  20.514  0.00  0.00    +0.000 HD
ATOM     15  H   UNL     1       2.069   6.423  21.709  0.00  0.00    +0.000 HD
ENDBRANCH  10  13
ENDBRANCH   6   7
BRANCH   1  19
ATOM     16  C   UNL     1       8.167   8.141  18.107  0.00  0.00    +0.000 A 
ATOM     17  C   UNL     1       8.270   7.031  18.970  0.00  0.00    +0.000 A 
ATOM     18  N   UNL     1       7.809   5.929  18.374  0.00  0.00    +0.000 NA
ATOM     19  N   UNL     1       7.345   6.424  17.188  0.00  0.00    +0.000 N 
ATOM     20  N   UNL     1       7.641   7.720  16.951  0.00  0.00    +0.000 NA
BRANCH  16  24
ATOM     21  C   UNL     1       9.273  12.225  18.764  0.00  0.00    +0.000 A 
ATOM     22  C   UNL     1       9.761  11.211  19.587  0.00  0.00    +0.000 A 
ATOM     23  C   UNL     1       9.386   9.883  19.379  0.00  0.00    +0.000 A 
ATOM     24  C   UNL     1       8.535   9.532  18.322  0.00  0.00    +0.000 A 
ATOM     25  C   UNL     1       8.097  10.545  17.457  0.00  0.00    +0.000 A 
ATOM     26  C   UNL     1       8.484  11.875  17.668  0.00  0.00    +0.000 A 
BRANCH  21  27
ATOM     27  N   UNL     1       9.758  13.531  18.899  0.00  0.00    +0.000 N 
ATOM     28  H   UNL     1       9.534  14.131  18.112  0.00  0.00    +0.000 HD
ATOM     29  H   UNL     1      10.741  13.578  19.148  0.00  0.00    +0.000 HD
ENDBRANCH  21  27
ENDBRANCH  16  24
ENDBRANCH   1  19
TORSDOF 5
ENDMDL
MODEL 5
REMARK VINA RESULT:      -7.9      2.629      7.335
REMARK  Name = 
REMARK  5 active torsions:
REMARK  status: ('A' for Active; 'I' for Inactive)
REMARK    1  A    between atoms: N_1  and  C_2
REMARK    2  A    between atoms: C_5  and  C_6
REMARK    3  A    between atoms: N_9  and  C_10
REMARK    4  A    between atoms: C_15  and  C_16
REMARK    5  A    between atoms: C_19  and  N_20
REMARK                            x       y       z     vdW  Elec       q    Type
REMARK                         _______ _______ _______ _____ _____    ______ ____
ROOT
ATOM      1  C   UNL     1       3.766   6.225  17.596  0.00  0.00    +0.000 A 
ATOM      2  C   UNL     1       4.552   6.788  16.563  0.00  0.00    +0.000 A 
ATOM      3  C   UNL     1       5.240   5.980  15.663  0.00  0.00    +0.000 A 
ATOM      4  C   UNL     1       5.194   4.604  15.812  0.00  0.00    +0.000 A 
ATOM      5  C   UNL     1       4.469   4.039  16.866  0.00  0.00    +0.000 A 
ATOM      6  C   UNL     1       3.722   4.816  17.789  0.00  0.00    +0.000 A 
ENDROOT
BRANCH   6   7
ATOM      7  C   UNL     1       3.020   4.091  18.890  0.00  0.00    +0.000 A 
ATOM      8  C   UNL     1       3.701   3.457  19.942  0.00  0.00    +0.000 A 
ATOM      9  C   UNL     1       3.015   2.868  21.016  0.00  0.00    +0.000 A 
ATOM     10  C   UNL     1       1.626   2.766  21.008  0.00  0.00    +0.000 A 
ATOM     11  C   UNL     1       0.931   3.358  19.957  0.00  0.00    +0.000 A 
ATOM     12  C   UNL     1       1.615   4.006  18.917  0.00  0.00    +0.000 A 
BRANCH  10  13
ATOM     13  N   UNL     1       0.940   2.297  22.133  0.00  0.00    +0.000 N 
ATOM     14  H   UNL     1       1.127   1.325  22.355  0.00  0.00    +0.000 HD
ATOM     15  H   UNL     1      -0.050   2.518  22.134  0.00  0.00    +0.000 HD
ENDBRANCH  10  13
ENDBRANCH   6   7
BRANCH   1  19
ATOM     16  C   UNL     1       1.825   8.823  18.880  0.00  0.00    +0.000 A 
ATOM     17  C   UNL     1       1.893   7.928  19.965  0.00  0.00    +0.000 A 
ATOM     18  N   UNL     1       2.689   6.896  19.673  0.00  0.00    +0.000 NA
ATOM     19  N   UNL     1       3.009   7.148  18.370  0.00  0.00    +0.000 N 
ATOM     20  N   UNL     1       2.600   8.346  17.899  0.00  0.00    +0.000 NA
BRANCH  16  24
ATOM     21  C   UNL     1      -0.314  12.509  18.459  0.00  0.00    +0.000 A 
ATOM     22  C   UNL     1       1.079  12.491  18.486  0.00  0.00    +0.000 A 
ATOM     23  C   UNL     1       1.773  11.289  18.638  0.00  0.00    +0.000 A 
ATOM     24  C   UNL     1       1.088  10.070  18.738  0.00  0.00    +0.000 A 
ATOM     25  C   UNL     1      -0.311  10.084  18.646  0.00  0.00    +0.000 A 
ATOM     26  C   UNL     1      -0.999  11.294  18.485  0.00  0.00    +0.000 A 
BRANCH  21  27
ATOM     27  N   UNL     1      -0.993  13.699  18.173  0.00  0.00    +0.000 N 
ATOM     28  H   UNL     1      -1.982  13.567  17.983  0.00  0.00    +0.000 HD
ATOM     29  H   UNL     1      -0.540  14.268  17.466  0.00  0.00    +0.000 HD
ENDBRANCH  21  27
ENDBRANCH  16  24
ENDBRANCH   1  19
TORSDOF 5
ENDMDL
MODEL 6
REMARK VINA RESULT:      -7.9      2.563      7.407
REMARK  Name = 
REMARK  5 active torsions:
REMARK  status: ('A' for Active; 'I' for Inactive)
REMARK    1  A    between atoms: N_1  and  C_2
REMARK    2  A    between atoms: C_5  and  C_6
REMARK    3  A    between atoms: N_9  and  C_10
REMARK    4  A    between atoms: C_15  and  C_16
REMARK    5  A    between atoms: C_19  and  N_20
REMARK                            x       y       z     vdW  Elec       q    Type
REMARK                         _______ _______ _______ _____ _____    ______ ____
ROOT
ATOM      1  C   UNL     1       2.608   4.703  20.218  0.00  0.00    +0.000 A 
ATOM      2  C   UNL     1       1.754   4.011  21.110  0.00  0.00    +0.000 A 
ATOM      3  C   UNL     1       2.062   2.727  21.549  0.00  0.00    +0.000 A 
ATOM      4  C   UNL     1       3.198   2.098  21.067  0.00  0.00    +0.000 A 
ATOM      5  C   UNL     1       4.016   2.749  20.138  0.00  0.00    +0.000 A 
ATOM      6  C   UNL     1       3.765   4.070  19.686  0.00  0.00    +0.000 A 
ENDROOT
BRANCH   6   7
ATOM      7  C   UNL     1       4.699   4.638  18.666  0.00  0.00    +0.000 A 
ATOM      8  C   UNL     1       5.828   5.400  19.006  0.00  0.00    +0.000 A 
ATOM      9  C   UNL     1       6.741   5.837  18.034  0.00  0.00    +0.000 A 
ATOM     10  C   UNL     1       6.488   5.651  16.678  0.00  0.00    +0.000 A 
ATOM     11  C   UNL     1       5.355   4.927  16.316  0.00  0.00    +0.000 A 
ATOM     12  C   UNL     1       4.476   4.431  17.291  0.00  0.00    +0.000 A 
BRANCH  10  13
ATOM     13  N   UNL     1       7.457   5.971  15.721  0.00  0.00    +0.000 N 
ATOM     14  H   UNL     1       7.585   5.260  15.009  0.00  0.00    +0.000 HD
ATOM     15  H   UNL     1       8.334   6.295  16.116  0.00  0.00    +0.000 HD
ENDBRANCH  10  13
ENDBRANCH   6   7
BRANCH   1  19
ATOM     16  C   UNL     1       1.498   8.009  20.209  0.00  0.00    +0.000 A 
ATOM     17  C   UNL     1       2.222   7.927  19.004  0.00  0.00    +0.000 A 
ATOM     18  N   UNL     1       2.652   6.679  18.799  0.00  0.00    +0.000 NA
ATOM     19  N   UNL     1       2.253   6.052  19.945  0.00  0.00    +0.000 N 
ATOM     20  N   UNL     1       1.467   6.789  20.759  0.00  0.00    +0.000 NA
BRANCH  16  24
ATOM     21  C   UNL     1      -0.406  11.352  22.090  0.00  0.00    +0.000 A 
ATOM     22  C   UNL     1      -0.304  10.126  22.745  0.00  0.00    +0.000 A 
ATOM     23  C   UNL     1       0.304   9.034  22.123  0.00  0.00    +0.000 A 
ATOM     24  C   UNL     1       0.852   9.151  20.839  0.00  0.00    +0.000 A 
ATOM     25  C   UNL     1       0.806  10.403  20.207  0.00  0.00    +0.000 A 
ATOM     26  C   UNL     1       0.201  11.495  20.842  0.00  0.00    +0.000 A 
BRANCH  21  27
ATOM     27  N   UNL     1      -0.896  12.472  22.772  0.00  0.00    +0.000 N 
ATOM     28  H   UNL     1      -1.907  12.481  22.865  0.00  0.00    +0.000 HD
ATOM     29  H   UNL     1      -0.537  13.354  22.420  0.00  0.00    +0.000 HD
ENDBRANCH  21  27
ENDBRANCH  16  24
ENDBRANCH   1  19
TORSDOF 5
ENDMDL
MODEL 7
REMARK VINA RESULT:      -7.8      2.818      6.355
REMARK  Name = 
REMARK  5 active torsions:
REMARK  status: ('A' for Active; 'I' for Inactive)
REMARK    1  A    between atoms: N_1  and  C_2
REMARK    2  A    between atoms: C_5  and  C_6
REMARK    3  A    between atoms: N_9  and  C_10
REMARK    4  A    between atoms: C_15  and  C_16
REMARK    5  A    between atoms: C_19  and  N_20
REMARK                            x       y       z     vdW  Elec       q    Type
REMARK                         _______ _______ _______ _____ _____    ______ ____
ROOT
ATOM      1  C   UNL     1       2.389   4.384  18.877  0.00  0.00    +0.000 A 
ATOM      2  C   UNL     1       1.366   3.417  19.019  0.00  0.00    +0.000 A 
ATOM      3  C   UNL     1       1.547   2.111  18.575  0.00  0.00    +0.000 A 
ATOM      4  C   UNL     1       2.728   1.766  17.939  0.00  0.00    +0.000 A 
ATOM      5  C   UNL     1       3.721   2.730  17.740  0.00  0.00    +0.000 A 
ATOM      6  C   UNL     1       3.601   4.065  18.204  0.00  0.00    +0.000 A 
ENDROOT
BRANCH   6   7
ATOM      7  C   UNL     1       4.720   5.005  17.895  0.00  0.00    +0.000 A 
ATOM      8  C   UNL     1       4.741   5.816  16.749  0.00  0.00    +0.000 A 
ATOM      9  C   UNL     1       5.756   6.761  16.533  0.00  0.00    +0.000 A 
ATOM     10  C   UNL     1       6.859   6.833  17.380  0.00  0.00    +0.000 A 
ATOM     11  C   UNL     1       6.877   6.014  18.505  0.00  0.00    +0.000 A 
ATOM     12  C   UNL     1       5.828   5.116  18.757  0.00  0.00    +0.000 A 
BRANCH  10  13
ATOM     13  N   UNL     1       7.801   7.858  17.237  0.00  0.00    +0.000 N 
ATOM     14  H   UNL     1       8.760   7.532  17.176  0.00  0.00    +0.000 HD
ATOM     15  H   UNL     1       7.685   8.619  17.898  0.00  0.00    +0.000 HD
ENDBRANCH  10  13
ENDBRANCH   6   7
BRANCH   1  19
ATOM     16  C   UNL     1       1.768   7.715  19.706  0.00  0.00    +0.000 A 
ATOM     17  C   UNL     1       1.568   7.052  20.933  0.00  0.00    +0.000 A 
ATOM     18  N   UNL     1       1.857   5.754  20.818  0.00  0.00    +0.000 NA
ATOM     19  N   UNL     1       2.135   5.645  19.485  0.00  0.00    +0.000 N 
ATOM     20  N   UNL     1       2.198   6.815  18.814  0.00  0.00    +0.000 NA
BRANCH  16  24
ATOM     21  C   UNL     1       1.231  11.829  18.645  0.00  0.00    +0.000 A 
ATOM     22  C   UNL     1       1.984  10.976  17.841  0.00  0.00    +0.000 A 
ATOM     23  C   UNL     1       2.170   9.639  18.198  0.00  0.00    +0.000 A 
ATOM     24  C   UNL     1       1.579   9.115  19.356  0.00  0.00    +0.000 A 
ATOM     25  C   UNL     1       0.769   9.958  20.129  0.00  0.00    +0.000 A 
ATOM     26  C   UNL     1       0.582  11.296  19.760  0.00  0.00    +0.000 A 
BRANCH  21  27
ATOM     27  N   UNL     1       0.942  13.127  18.211  0.00  0.00    +0.000 N 
ATOM     28  H   UNL     1       0.076  13.198  17.687  0.00  0.00    +0.000 HD
ATOM     29  H   UNL     1       1.715  13.580  17.734  0.00  0.00    +0.000 HD
ENDBRANCH  21  27
ENDBRANCH  16  24
ENDBRANCH   1  19
TORSDOF 5
ENDMDL
MODEL 8
REMARK VINA RESULT:      -7.8      2.109      6.921
REMARK  Name = 
REMARK  5 active torsions:
REMARK  status: ('A' for Active; 'I' for Inactive)
REMARK    1  A    between atoms: N_1  and  C_2
REMARK    2  A    between atoms: C_5  and  C_6
REMARK    3  A    between atoms: N_9  and  C_10
REMARK    4  A    between atoms: C_15  and  C_16
REMARK    5  A    between atoms: C_19  and  N_20
REMARK                            x       y       z     vdW  Elec       q    Type
REMARK                         _______ _______ _______ _____ _____    ______ ____
ROOT
ATOM      1  C   UNL     1       2.784   4.766  19.840  0.00  0.00    +0.000 A 
ATOM      2  C   UNL     1       1.880   4.330  20.838  0.00  0.00    +0.000 A 
ATOM      3  C   UNL     1       2.090   3.138  21.525  0.00  0.00    +0.000 A 
ATOM      4  C   UNL     1       3.175   2.344  21.193  0.00  0.00    +0.000 A 
ATOM      5  C   UNL     1       4.040   2.736  20.167  0.00  0.00    +0.000 A 
ATOM      6  C   UNL     1       3.890   3.958  19.460  0.00  0.00    +0.000 A 
ENDROOT
BRANCH   6   7
ATOM      7  C   UNL     1       4.864   4.242  18.363  0.00  0.00    +0.000 A 
ATOM      8  C   UNL     1       4.664   3.823  17.038  0.00  0.00    +0.000 A 
ATOM      9  C   UNL     1       5.546   4.188  16.008  0.00  0.00    +0.000 A 
ATOM     10  C   UNL     1       6.730   4.864  16.287  0.00  0.00    +0.000 A 
ATOM     11  C   UNL     1       6.967   5.260  17.600  0.00  0.00    +0.000 A 
ATOM     12  C   UNL     1       6.052   4.953  18.620  0.00  0.00    +0.000 A 
BRANCH  10  13
ATOM     13  N   UNL     1       7.541   5.339  15.250  0.00  0.00    +0.000 N 
ATOM     14  H   UNL     1       7.343   4.921  14.347  0.00  0.00    +0.000 HD
ATOM     15  H   UNL     1       8.531   5.346  15.471  0.00  0.00    +0.000 HD
ENDBRANCH  10  13
ENDBRANCH   6   7
BRANCH   1  19
ATOM     16  C   UNL     1       1.943   8.084  19.170  0.00  0.00    +0.000 A 
ATOM     17  C   UNL     1       2.630   7.701  18.001  0.00  0.00    +0.000 A 
ATOM     18  N   UNL     1       2.953   6.406  18.050  0.00  0.00    +0.000 NA
ATOM     19  N   UNL     1       2.532   6.059  19.302  0.00  0.00    +0.000 N 
ATOM     20  N   UNL     1       1.828   7.007  19.956  0.00  0.00    +0.000 NA
BRANCH  16  24
ATOM     21  C   UNL     1       0.366  11.907  20.283  0.00  0.00    +0.000 A 
ATOM     22  C   UNL     1       0.778  11.657  18.975  0.00  0.00    +0.000 A 
ATOM     23  C   UNL     1       1.306  10.414  18.620  0.00  0.00    +0.000 A 
ATOM     24  C   UNL     1       1.407   9.380  19.560  0.00  0.00    +0.000 A 
ATOM     25  C   UNL     1       0.933   9.613  20.858  0.00  0.00    +0.000 A 
ATOM     26  C   UNL     1       0.397  10.860  21.205  0.00  0.00    +0.000 A 
BRANCH  21  27
ATOM     27  N   UNL     1      -0.282  13.107  20.596  0.00  0.00    +0.000 N 
ATOM     28  H   UNL     1       0.307  13.770  21.092  0.00  0.00    +0.000 HD
ATOM     29  H   UNL     1      -1.180  12.980  21.050  0.00  0.00    +0.000 HD
ENDBRANCH  21  27
ENDBRANCH  16  24
ENDBRANCH   1  19
TORSDOF 5
ENDMDL
MODEL 9
REMARK VINA RESULT:      -7.8      2.445      7.275
REMARK  Name = 
REMARK  5 active torsions:
REMARK  status: ('A' for Active; 'I' for Inactive)
REMARK    1  A    between atoms: N_1  and  C_2
REMARK    2  A    between atoms: C_5  and  C_6
REMARK    3  A    between atoms: N_9  and  C_10
REMARK    4  A    between atoms: C_15  and  C_16
REMARK    5  A    between atoms: C_19  and  N_20
REMARK                            x       y       z     vdW  Elec       q    Type
REMARK                         _______ _______ _______ _____ _____    ______ ____
ROOT
ATOM      1  C   UNL     1       2.668   4.768  20.026  0.00  0.00    +0.000 A 
ATOM      2  C   UNL     1       1.809   4.113  20.940  0.00  0.00    +0.000 A 
ATOM      3  C   UNL     1       2.112   2.846  21.429  0.00  0.00    +0.000 A 
ATOM      4  C   UNL     1       3.248   2.196  20.976  0.00  0.00    +0.000 A 
ATOM      5  C   UNL     1       4.072   2.809  20.026  0.00  0.00    +0.000 A 
ATOM      6  C   UNL     1       3.826   4.113  19.523  0.00  0.00    +0.000 A 
ENDROOT
BRANCH   6   7
ATOM      7  C   UNL     1       4.765   4.639  18.486  0.00  0.00    +0.000 A 
ATOM      8  C   UNL     1       5.843   5.485  18.792  0.00  0.00    +0.000 A 
ATOM      9  C   UNL     1       6.767   5.885  17.814  0.00  0.00    +0.000 A 
ATOM     10  C   UNL     1       6.570   5.570  16.472  0.00  0.00    +0.000 A 
ATOM     11  C   UNL     1       5.488   4.759  16.141  0.00  0.00    +0.000 A 
ATOM     12  C   UNL     1       4.601   4.304  17.128  0.00  0.00    +0.000 A 
BRANCH  10  13
ATOM     13  N   UNL     1       7.555   5.857  15.521  0.00  0.00    +0.000 N 
ATOM     14  H   UNL     1       8.461   5.452  15.729  0.00  0.00    +0.000 HD
ATOM     15  H   UNL     1       7.611   6.838  15.269  0.00  0.00    +0.000 HD
ENDBRANCH  10  13
ENDBRANCH   6   7
BRANCH   1  19
ATOM     16  C   UNL     1       1.614   8.090  19.901  0.00  0.00    +0.000 A 
ATOM     17  C   UNL     1       2.253   7.925  18.656  0.00  0.00    +0.000 A 
ATOM     18  N   UNL     1       2.647   6.660  18.495  0.00  0.00    +0.000 NA
ATOM     19  N   UNL     1       2.317   6.107  19.700  0.00  0.00    +0.000 N 
ATOM     20  N   UNL     1       1.601   6.904  20.521  0.00  0.00    +0.000 NA
BRANCH  16  24
ATOM     21  C   UNL     1      -0.095  11.606  21.649  0.00  0.00    +0.000 A 
ATOM     22  C   UNL     1       0.408  11.626  20.349  0.00  0.00    +0.000 A 
ATOM     23  C   UNL     1       0.978  10.482  19.788  0.00  0.00    +0.000 A 
ATOM     24  C   UNL     1       1.032   9.279  20.505  0.00  0.00    +0.000 A 
ATOM     25  C   UNL     1       0.468   9.244  21.788  0.00  0.00    +0.000 A 
ATOM     26  C   UNL     1      -0.109  10.394  22.342  0.00  0.00    +0.000 A 
BRANCH  21  27
ATOM     27  N   UNL     1      -0.781  12.717  22.152  0.00  0.00    +0.000 N 
ATOM     28  H   UNL     1      -0.373  13.098  23.000  0.00  0.00    +0.000 HD
ATOM     29  H   UNL     1      -1.782  12.573  22.240  0.00  0.00    +0.000 HD
ENDBRANCH  21  27
ENDBRANCH  16  24
ENDBRANCH   1  19
TORSDOF 5
ENDMDL
