MODEL 1
REMARK VINA RESULT:      -8.5      0.000      0.000
REMARK  Name = 
REMARK  6 active torsions:
REMARK  status: ('A' for Active; 'I' for Inactive)
REMARK    1  A    between atoms: O_1  and  C_2
REMARK    2  A    between atoms: C_2  and  C_3
REMARK    3  A    between atoms: C_2  and  C_15
REMARK    4  A    between atoms: C_3  and  S_4
REMARK    5  A    between atoms: S_4  and  C_5
REMARK    6  A    between atoms: C_15  and  N_16
REMARK                            x       y       z     vdW  Elec       q    Type
REMARK                         _______ _______ _______ _____ _____    ______ ____
ROOT
ATOM      1  C   UNL     1       1.473   7.674  19.818  0.00  0.00    +0.000 C 
ENDROOT
BRANCH   1   2
ATOM      2  O   UNL     1       1.043   7.931  21.165  0.00  0.00    +0.000 OA
ATOM      3  H   UNL     1       1.557   8.686  21.504  0.00  0.00    +0.000 HD
ENDBRANCH   1   2
BRANCH   1   4
ATOM      4  C   UNL     1       1.568   9.040  19.116  0.00  0.00    +0.000 C 
BRANCH   4   5
ATOM      5  S   UNL     1       0.972  10.420  20.150  0.00  0.00    +0.000 S 
BRANCH   5   6
ATOM      6  C   UNL     1      -0.566  10.797  19.328  0.00  0.00    +0.000 A 
ATOM      7  C   UNL     1      -1.454  11.662  19.965  0.00  0.00    +0.000 A 
ATOM      8  C   UNL     1      -2.668  11.989  19.368  0.00  0.00    +0.000 A 
ATOM      9  C   UNL     1      -3.022  11.452  18.123  0.00  0.00    +0.000 A 
ATOM     10  C   UNL     1      -4.233  11.795  17.503  0.00  0.00    +0.000 A 
ATOM     11  C   UNL     1      -4.577  11.252  16.264  0.00  0.00    +0.000 A 
ATOM     12  C   UNL     1      -3.717  10.354  15.637  0.00  0.00    +0.000 A 
ATOM     13  C   UNL     1      -2.509  10.003  16.242  0.00  0.00    +0.000 A 
ATOM     14  C   UNL     1      -2.140  10.551  17.482  0.00  0.00    +0.000 A 
ATOM     15  C   UNL     1      -0.919  10.227  18.101  0.00  0.00    +0.000 A 
ENDBRANCH   5   6
ENDBRANCH   4   5
ENDBRANCH   1   4
BRANCH   1  16
ATOM     16  C   UNL     1       2.828   6.947  19.842  0.00  0.00    +0.000 C 
BRANCH  16  17
ATOM     17  N   UNL     1       2.939   5.859  18.876  0.00  0.00    +0.000 N 
ATOM     18  C   UNL     1       3.805   5.847  17.796  0.00  0.00    +0.000 A 
ATOM     19  C   UNL     1       4.636   6.844  17.256  0.00  0.00    +0.000 A 
ATOM     20  C   UNL     1       5.455   6.508  16.172  0.00  0.00    +0.000 A 
ATOM     21  C   UNL     1       5.448   5.223  15.639  0.00  0.00    +0.000 A 
ATOM     22  C   UNL     1       4.606   4.243  16.171  0.00  0.00    +0.000 A 
ATOM     23  C   UNL     1       3.766   4.556  17.262  0.00  0.00    +0.000 A 
ATOM     24  C   UNL     1       2.815   3.801  18.016  0.00  0.00    +0.000 A 
ATOM     25  C   UNL     1       2.349   2.471  17.941  0.00  0.00    +0.000 A 
ATOM     26  C   UNL     1       1.393   2.019  18.857  0.00  0.00    +0.000 A 
ATOM     27  C   UNL     1       0.901   2.870  19.842  0.00  0.00    +0.000 A 
ATOM     28  C   UNL     1       1.349   4.189  19.936  0.00  0.00    +0.000 A 
ATOM     29  C   UNL     1       2.309   4.635  19.012  0.00  0.00    +0.000 A 
ENDBRANCH  16  17
ENDBRANCH   1  16
TORSDOF 6
ENDMDL
MODEL 2
REMARK VINA RESULT:      -8.5      0.752      1.636
REMARK  Name = 
REMARK  6 active torsions:
REMARK  status: ('A' for Active; 'I' for Inactive)
REMARK    1  A    between atoms: O_1  and  C_2
REMARK    2  A    between atoms: C_2  and  C_3
REMARK    3  A    between atoms: C_2  and  C_15
REMARK    4  A    between atoms: C_3  and  S_4
REMARK    5  A    between atoms: S_4  and  C_5
REMARK    6  A    between atoms: C_15  and  N_16
REMARK                            x       y       z     vdW  Elec       q    Type
REMARK                         _______ _______ _______ _____ _____    ______ ____
ROOT
ATOM      1  C   UNL     1       1.480   7.968  19.555  0.00  0.00    +0.000 C 
ENDROOT
BRANCH   1   2
ATOM      2  O   UNL     1       1.218   8.744  20.736  0.00  0.00    +0.000 OA
ATOM      3  H   UNL     1       1.901   8.527  21.395  0.00  0.00    +0.000 HD
ENDBRANCH   1   2
BRANCH   1   4
ATOM      4  C   UNL     1       1.659   8.969  18.401  0.00  0.00    +0.000 C 
BRANCH   4   5
ATOM      5  S   UNL     1       1.288  10.691  18.879  0.00  0.00    +0.000 S 
BRANCH   5   6
ATOM      6  C   UNL     1      -0.465  10.744  18.550  0.00  0.00    +0.000 A 
ATOM      7  C   UNL     1      -0.965   9.929  17.536  0.00  0.00    +0.000 A 
ATOM      8  C   UNL     1      -2.326   9.932  17.237  0.00  0.00    +0.000 A 
ATOM      9  C   UNL     1      -3.212  10.755  17.944  0.00  0.00    +0.000 A 
ATOM     10  C   UNL     1      -4.587  10.748  17.665  0.00  0.00    +0.000 A 
ATOM     11  C   UNL     1      -5.462  11.574  18.373  0.00  0.00    +0.000 A 
ATOM     12  C   UNL     1      -4.968  12.423  19.359  0.00  0.00    +0.000 A 
ATOM     13  C   UNL     1      -3.602  12.443  19.647  0.00  0.00    +0.000 A 
ATOM     14  C   UNL     1      -2.709  11.607  18.954  0.00  0.00    +0.000 A 
ATOM     15  C   UNL     1      -1.332  11.595  19.241  0.00  0.00    +0.000 A 
ENDBRANCH   5   6
ENDBRANCH   4   5
ENDBRANCH   1   4
BRANCH   1  16
ATOM     16  C   UNL     1       2.739   7.113  19.772  0.00  0.00    +0.000 C 
BRANCH  16  17
ATOM     17  N   UNL     1       2.851   5.975  18.866  0.00  0.00    +0.000 N 
ATOM     18  C   UNL     1       3.728   5.900  17.797  0.00  0.00    +0.000 A 
ATOM     19  C   UNL     1       4.573   6.862  17.214  0.00  0.00    +0.000 A 
ATOM     20  C   UNL     1       5.399   6.463  16.157  0.00  0.00    +0.000 A 
ATOM     21  C   UNL     1       5.387   5.152  15.693  0.00  0.00    +0.000 A 
ATOM     22  C   UNL     1       4.533   4.207  16.266  0.00  0.00    +0.000 A 
ATOM     23  C   UNL     1       3.684   4.583  17.331  0.00  0.00    +0.000 A 
ATOM     24  C   UNL     1       2.720   3.875  18.113  0.00  0.00    +0.000 A 
ATOM     25  C   UNL     1       2.243   2.547  18.103  0.00  0.00    +0.000 A 
ATOM     26  C   UNL     1       1.276   2.151  19.032  0.00  0.00    +0.000 A 
ATOM     27  C   UNL     1       0.780   3.056  19.965  0.00  0.00    +0.000 A 
ATOM     28  C   UNL     1       1.237   4.375  19.995  0.00  0.00    +0.000 A 
ATOM     29  C   UNL     1       2.210   4.765  19.059  0.00  0.00    +0.000 A 
ENDBRANCH  16  17
ENDBRANCH   1  16
TORSDOF 6
ENDMDL
MODEL 3
REMARK VINA RESULT:      -8.3      0.195      3.028
REMARK  Name = 
REMARK  6 active torsions:
REMARK  status: ('A' for Active; 'I' for Inactive)
REMARK    1  A    between atoms: O_1  and  C_2
REMARK    2  A    between atoms: C_2  and  C_3
REMARK    3  A    between atoms: C_2  and  C_15
REMARK    4  A    between atoms: C_3  and  S_4
REMARK    5  A    between atoms: S_4  and  C_5
REMARK    6  A    between atoms: C_15  and  N_16
REMARK                            x       y       z     vdW  Elec       q    Type
REMARK                         _______ _______ _______ _____ _____    ______ ____
ROOT
ATOM      1  C   UNL     1       1.581   7.617  19.678  0.00  0.00    +0.000 C 
ENDROOT
BRANCH   1   2
ATOM      2  O   UNL     1       0.987   7.822  20.970  0.00  0.00    +0.000 OA
ATOM      3  H   UNL     1       0.380   8.580  20.903  0.00  0.00    +0.000 HD
ENDBRANCH   1   2
BRANCH   1   4
ATOM      4  C   UNL     1       1.680   9.001  19.013  0.00  0.00    +0.000 C 
BRANCH   4   5
ATOM      5  S   UNL     1       1.083  10.355  20.082  0.00  0.00    +0.000 S 
BRANCH   5   6
ATOM      6  C   UNL     1      -0.466  10.735  19.283  0.00  0.00    +0.000 A 
ATOM      7  C   UNL     1      -1.353  11.582  19.945  0.00  0.00    +0.000 A 
ATOM      8  C   UNL     1      -2.576  11.912  19.366  0.00  0.00    +0.000 A 
ATOM      9  C   UNL     1      -2.940  11.394  18.116  0.00  0.00    +0.000 A 
ATOM     10  C   UNL     1      -4.160  11.738  17.516  0.00  0.00    +0.000 A 
ATOM     11  C   UNL     1      -4.514  11.215  16.271  0.00  0.00    +0.000 A 
ATOM     12  C   UNL     1      -3.656  10.334  15.619  0.00  0.00    +0.000 A 
ATOM     13  C   UNL     1      -2.439   9.981  16.205  0.00  0.00    +0.000 A 
ATOM     14  C   UNL     1      -2.059  10.510  17.451  0.00  0.00    +0.000 A 
ATOM     15  C   UNL     1      -0.829  10.184  18.050  0.00  0.00    +0.000 A 
ENDBRANCH   5   6
ENDBRANCH   4   5
ENDBRANCH   1   4
BRANCH   1  16
ATOM     16  C   UNL     1       2.962   6.963  19.846  0.00  0.00    +0.000 C 
BRANCH  16  17
ATOM     17  N   UNL     1       3.155   5.761  19.040  0.00  0.00    +0.000 N 
ATOM     18  C   UNL     1       2.410   4.601  19.162  0.00  0.00    +0.000 A 
ATOM     19  C   UNL     1       1.451   4.203  20.111  0.00  0.00    +0.000 A 
ATOM     20  C   UNL     1       0.817   2.969  19.934  0.00  0.00    +0.000 A 
ATOM     21  C   UNL     1       1.124   2.154  18.850  0.00  0.00    +0.000 A 
ATOM     22  C   UNL     1       2.090   2.548  17.921  0.00  0.00    +0.000 A 
ATOM     23  C   UNL     1       2.750   3.787  18.078  0.00  0.00    +0.000 A 
ATOM     24  C   UNL     1       3.758   4.464  17.325  0.00  0.00    +0.000 A 
ATOM     25  C   UNL     1       4.482   4.142  16.157  0.00  0.00    +0.000 A 
ATOM     26  C   UNL     1       5.420   5.047  15.651  0.00  0.00    +0.000 A 
ATOM     27  C   UNL     1       5.645   6.262  16.289  0.00  0.00    +0.000 A 
ATOM     28  C   UNL     1       4.940   6.604  17.445  0.00  0.00    +0.000 A 
ATOM     29  C   UNL     1       3.999   5.689  17.947  0.00  0.00    +0.000 A 
ENDBRANCH  16  17
ENDBRANCH   1  16
TORSDOF 6
ENDMDL
MODEL 4
REMARK VINA RESULT:      -8.2      1.053      3.536
REMARK  Name = 
REMARK  6 active torsions:
REMARK  status: ('A' for Active; 'I' for Inactive)
REMARK    1  A    between atoms: O_1  and  C_2
REMARK    2  A    between atoms: C_2  and  C_3
REMARK    3  A    between atoms: C_2  and  C_15
REMARK    4  A    between atoms: C_3  and  S_4
REMARK    5  A    between atoms: S_4  and  C_5
REMARK    6  A    between atoms: C_15  and  N_16
REMARK                            x       y       z     vdW  Elec       q    Type
REMARK                         _______ _______ _______ _____ _____    ______ ____
ROOT
ATOM      1  C   UNL     1       2.169   8.215  18.790  0.00  0.00    +0.000 C 
ENDROOT
BRANCH   1   2
ATOM      2  O   UNL     1       1.418   7.696  17.680  0.00  0.00    +0.000 OA
ATOM      3  H   UNL     1       1.022   8.450  17.209  0.00  0.00    +0.000 HD
ENDBRANCH   1   2
BRANCH   1   4
ATOM      4  C   UNL     1       1.230   9.167  19.551  0.00  0.00    +0.000 C 
BRANCH   4   5
ATOM      5  S   UNL     1       1.075  10.805  18.762  0.00  0.00    +0.000 S 
BRANCH   5   6
ATOM      6  C   UNL     1      -0.691  10.878  18.519  0.00  0.00    +0.000 A 
ATOM      7  C   UNL     1      -1.248  10.080  17.522  0.00  0.00    +0.000 A 
ATOM      8  C   UNL     1      -2.621  10.098  17.291  0.00  0.00    +0.000 A 
ATOM      9  C   UNL     1      -3.464  10.922  18.049  0.00  0.00    +0.000 A 
ATOM     10  C   UNL     1      -4.851  10.931  17.837  0.00  0.00    +0.000 A 
ATOM     11  C   UNL     1      -5.682  11.757  18.596  0.00  0.00    +0.000 A 
ATOM     12  C   UNL     1      -5.132  12.591  19.566  0.00  0.00    +0.000 A 
ATOM     13  C   UNL     1      -3.754  12.594  19.786  0.00  0.00    +0.000 A 
ATOM     14  C   UNL     1      -2.904  11.758  19.042  0.00  0.00    +0.000 A 
ATOM     15  C   UNL     1      -1.515  11.730  19.261  0.00  0.00    +0.000 A 
ENDBRANCH   5   6
ENDBRANCH   4   5
ENDBRANCH   1   4
BRANCH   1  16
ATOM     16  C   UNL     1       2.647   7.052  19.675  0.00  0.00    +0.000 C 
BRANCH  16  17
ATOM     17  N   UNL     1       2.977   5.837  18.938  0.00  0.00    +0.000 N 
ATOM     18  C   UNL     1       2.301   4.635  19.054  0.00  0.00    +0.000 A 
ATOM     19  C   UNL     1       1.300   4.210  19.946  0.00  0.00    +0.000 A 
ATOM     20  C   UNL     1       0.761   2.930  19.775  0.00  0.00    +0.000 A 
ATOM     21  C   UNL     1       1.201   2.097  18.752  0.00  0.00    +0.000 A 
ATOM     22  C   UNL     1       2.208   2.520  17.881  0.00  0.00    +0.000 A 
ATOM     23  C   UNL     1       2.774   3.806  18.033  0.00  0.00    +0.000 A 
ATOM     24  C   UNL     1       3.791   4.520  17.328  0.00  0.00    +0.000 A 
ATOM     25  C   UNL     1       4.621   4.203  16.231  0.00  0.00    +0.000 A 
ATOM     26  C   UNL     1       5.535   5.149  15.757  0.00  0.00    +0.000 A 
ATOM     27  C   UNL     1       5.632   6.400  16.358  0.00  0.00    +0.000 A 
ATOM     28  C   UNL     1       4.820   6.737  17.444  0.00  0.00    +0.000 A 
ATOM     29  C   UNL     1       3.904   5.780  17.914  0.00  0.00    +0.000 A 
ENDBRANCH  16  17
ENDBRANCH   1  16
TORSDOF 6
ENDMDL
MODEL 5
REMARK VINA RESULT:      -8.2      0.905      1.056
REMARK  Name = 
REMARK  6 active torsions:
REMARK  status: ('A' for Active; 'I' for Inactive)
REMARK    1  A    between atoms: O_1  and  C_2
REMARK    2  A    between atoms: C_2  and  C_3
REMARK    3  A    between atoms: C_2  and  C_15
REMARK    4  A    between atoms: C_3  and  S_4
REMARK    5  A    between atoms: S_4  and  C_5
REMARK    6  A    between atoms: C_15  and  N_16
REMARK                            x       y       z     vdW  Elec       q    Type
REMARK                         _______ _______ _______ _____ _____    ______ ____
ROOT
ATOM      1  C   UNL     1       1.689   7.747  19.165  0.00  0.00    +0.000 C 
ENDROOT
BRANCH   1   2
ATOM      2  O   UNL     1       1.466   8.557  20.331  0.00  0.00    +0.000 OA
ATOM      3  H   UNL     1       2.035   8.218  21.044  0.00  0.00    +0.000 HD
ENDBRANCH   1   2
BRANCH   1   4
ATOM      4  C   UNL     1       1.721   8.705  17.962  0.00  0.00    +0.000 C 
BRANCH   4   5
ATOM      5  S   UNL     1       1.910  10.455  18.443  0.00  0.00    +0.000 S 
BRANCH   5   6
ATOM      6  C   UNL     1       0.199  10.924  18.629  0.00  0.00    +0.000 A 
ATOM      7  C   UNL     1      -0.102  11.968  19.503  0.00  0.00    +0.000 A 
ATOM      8  C   UNL     1      -1.421  12.374  19.685  0.00  0.00    +0.000 A 
ATOM      9  C   UNL     1      -2.467  11.740  19.003  0.00  0.00    +0.000 A 
ATOM     10  C   UNL     1      -3.797  12.157  19.164  0.00  0.00    +0.000 A 
ATOM     11  C   UNL     1      -4.832  11.516  18.481  0.00  0.00    +0.000 A 
ATOM     12  C   UNL     1      -4.549  10.445  17.639  0.00  0.00    +0.000 A 
ATOM     13  C   UNL     1      -3.231  10.017  17.470  0.00  0.00    +0.000 A 
ATOM     14  C   UNL     1      -2.174  10.661  18.137  0.00  0.00    +0.000 A 
ATOM     15  C   UNL     1      -0.837  10.259  17.966  0.00  0.00    +0.000 A 
ENDBRANCH   5   6
ENDBRANCH   4   5
ENDBRANCH   1   4
BRANCH   1  16
ATOM     16  C   UNL     1       3.010   6.977  19.320  0.00  0.00    +0.000 C 
BRANCH  16  17
ATOM     17  N   UNL     1       3.091   5.762  18.516  0.00  0.00    +0.000 N 
ATOM     18  C   UNL     1       3.956   5.576  17.452  0.00  0.00    +0.000 A 
ATOM     19  C   UNL     1       4.815   6.466  16.781  0.00  0.00    +0.000 A 
ATOM     20  C   UNL     1       5.623   5.960  15.756  0.00  0.00    +0.000 A 
ATOM     21  C   UNL     1       5.582   4.614  15.409  0.00  0.00    +0.000 A 
ATOM     22  C   UNL     1       4.713   3.741  16.069  0.00  0.00    +0.000 A 
ATOM     23  C   UNL     1       3.882   4.225  17.102  0.00  0.00    +0.000 A 
ATOM     24  C   UNL     1       2.912   3.608  17.951  0.00  0.00    +0.000 A 
ATOM     25  C   UNL     1       2.409   2.294  18.061  0.00  0.00    +0.000 A 
ATOM     26  C   UNL     1       1.442   2.001  19.027  0.00  0.00    +0.000 A 
ATOM     27  C   UNL     1       0.973   2.993  19.882  0.00  0.00    +0.000 A 
ATOM     28  C   UNL     1       1.457   4.301  19.793  0.00  0.00    +0.000 A 
ATOM     29  C   UNL     1       2.428   4.587  18.819  0.00  0.00    +0.000 A 
ENDBRANCH  16  17
ENDBRANCH   1  16
TORSDOF 6
ENDMDL
MODEL 6
REMARK VINA RESULT:      -8.1      1.295      3.242
REMARK  Name = 
REMARK  6 active torsions:
REMARK  status: ('A' for Active; 'I' for Inactive)
REMARK    1  A    between atoms: O_1  and  C_2
REMARK    2  A    between atoms: C_2  and  C_3
REMARK    3  A    between atoms: C_2  and  C_15
REMARK    4  A    between atoms: C_3  and  S_4
REMARK    5  A    between atoms: S_4  and  C_5
REMARK    6  A    between atoms: C_15  and  N_16
REMARK                            x       y       z     vdW  Elec       q    Type
REMARK                         _______ _______ _______ _____ _____    ______ ____
ROOT
ATOM      1  C   UNL     1       2.249   8.486  18.955  0.00  0.00    +0.000 C 
ENDROOT
BRANCH   1   2
ATOM      2  O   UNL     1       2.303   9.578  18.023  0.00  0.00    +0.000 OA
ATOM      3  H   UNL     1       2.537   9.215  17.150  0.00  0.00    +0.000 HD
ENDBRANCH   1   2
BRANCH   1   4
ATOM      4  C   UNL     1       1.142   8.825  19.968  0.00  0.00    +0.000 C 
BRANCH   4   5
ATOM      5  S   UNL     1       0.970  10.616  20.271  0.00  0.00    +0.000 S 
BRANCH   5   6
ATOM      6  C   UNL     1      -0.580  10.934  19.446  0.00  0.00    +0.000 A 
ATOM      7  C   UNL     1      -1.490  11.786  20.068  0.00  0.00    +0.000 A 
ATOM      8  C   UNL     1      -2.714  12.068  19.468  0.00  0.00    +0.000 A 
ATOM      9  C   UNL     1      -3.056  11.497  18.235  0.00  0.00    +0.000 A 
ATOM     10  C   UNL     1      -4.278  11.793  17.612  0.00  0.00    +0.000 A 
ATOM     11  C   UNL     1      -4.610  11.217  16.385  0.00  0.00    +0.000 A 
ATOM     12  C   UNL     1      -3.727  10.331  15.773  0.00  0.00    +0.000 A 
ATOM     13  C   UNL     1      -2.508  10.026  16.382  0.00  0.00    +0.000 A 
ATOM     14  C   UNL     1      -2.151  10.608  17.610  0.00  0.00    +0.000 A 
ATOM     15  C   UNL     1      -0.920  10.331  18.231  0.00  0.00    +0.000 A 
ENDBRANCH   5   6
ENDBRANCH   4   5
ENDBRANCH   1   4
BRANCH   1  16
ATOM     16  C   UNL     1       1.955   7.180  18.200  0.00  0.00    +0.000 C 
BRANCH  16  17
ATOM     17  N   UNL     1       2.900   6.103  18.477  0.00  0.00    +0.000 N 
ATOM     18  C   UNL     1       2.700   5.098  19.407  0.00  0.00    +0.000 A 
ATOM     19  C   UNL     1       1.707   4.917  20.387  0.00  0.00    +0.000 A 
ATOM     20  C   UNL     1       1.741   3.748  21.156  0.00  0.00    +0.000 A 
ATOM     21  C   UNL     1       2.729   2.789  20.960  0.00  0.00    +0.000 A 
ATOM     22  C   UNL     1       3.721   2.985  19.996  0.00  0.00    +0.000 A 
ATOM     23  C   UNL     1       3.715   4.158  19.210  0.00  0.00    +0.000 A 
ATOM     24  C   UNL     1       4.564   4.645  18.168  0.00  0.00    +0.000 A 
ATOM     25  C   UNL     1       5.732   4.148  17.552  0.00  0.00    +0.000 A 
ATOM     26  C   UNL     1       6.338   4.879  16.526  0.00  0.00    +0.000 A 
ATOM     27  C   UNL     1       5.799   6.091  16.108  0.00  0.00    +0.000 A 
ATOM     28  C   UNL     1       4.643   6.603  16.702  0.00  0.00    +0.000 A 
ATOM     29  C   UNL     1       4.039   5.861  17.732  0.00  0.00    +0.000 A 
ENDBRANCH  16  17
ENDBRANCH   1  16
TORSDOF 6
ENDMDL
MODEL 7
REMARK VINA RESULT:      -8.1      1.556      3.699
REMARK  Name = 
REMARK  6 active torsions:
REMARK  status: ('A' for Active; 'I' for Inactive)
REMARK    1  A    between atoms: O_1  and  C_2
REMARK    2  A    between atoms: C_2  and  C_3
REMARK    3  A    between atoms: C_2  and  C_15
REMARK    4  A    between atoms: C_3  and  S_4
REMARK    5  A    between atoms: S_4  and  C_5
REMARK    6  A    between atoms: C_15  and  N_16
REMARK                            x       y       z     vdW  Elec       q    Type
REMARK                         _______ _______ _______ _____ _____    ______ ____
ROOT
ATOM      1  C   UNL     1       2.264   8.512  18.545  0.00  0.00    +0.000 C 
ENDROOT
BRANCH   1   2
ATOM      2  O   UNL     1       2.304   9.383  17.403  0.00  0.00    +0.000 OA
ATOM      3  H   UNL     1       1.601   9.105  16.789  0.00  0.00    +0.000 HD
ENDBRANCH   1   2
BRANCH   1   4
ATOM      4  C   UNL     1       1.178   9.066  19.484  0.00  0.00    +0.000 C 
BRANCH   4   5
ATOM      5  S   UNL     1       0.925  10.865  19.307  0.00  0.00    +0.000 S 
BRANCH   5   6
ATOM      6  C   UNL     1      -0.781  10.899  18.787  0.00  0.00    +0.000 A 
ATOM      7  C   UNL     1      -1.148  10.115  17.695  0.00  0.00    +0.000 A 
ATOM      8  C   UNL     1      -2.467  10.105  17.247  0.00  0.00    +0.000 A 
ATOM      9  C   UNL     1      -3.444  10.885  17.880  0.00  0.00    +0.000 A 
ATOM     10  C   UNL     1      -4.779  10.863  17.449  0.00  0.00    +0.000 A 
ATOM     11  C   UNL     1      -5.745  11.646  18.085  0.00  0.00    +0.000 A 
ATOM     12  C   UNL     1      -5.382  12.466  19.150  0.00  0.00    +0.000 A 
ATOM     13  C   UNL     1      -4.057  12.498  19.588  0.00  0.00    +0.000 A 
ATOM     14  C   UNL     1      -3.075  11.706  18.970  0.00  0.00    +0.000 A 
ATOM     15  C   UNL     1      -1.738  11.708  19.408  0.00  0.00    +0.000 A 
ENDBRANCH   5   6
ENDBRANCH   4   5
ENDBRANCH   1   4
BRANCH   1  16
ATOM     16  C   UNL     1       1.948   7.079  18.087  0.00  0.00    +0.000 C 
BRANCH  16  17
ATOM     17  N   UNL     1       2.917   6.083  18.532  0.00  0.00    +0.000 N 
ATOM     18  C   UNL     1       2.651   5.073  19.440  0.00  0.00    +0.000 A 
ATOM     19  C   UNL     1       1.532   4.823  20.255  0.00  0.00    +0.000 A 
ATOM     20  C   UNL     1       1.533   3.666  21.044  0.00  0.00    +0.000 A 
ATOM     21  C   UNL     1       2.610   2.787  21.025  0.00  0.00    +0.000 A 
ATOM     22  C   UNL     1       3.725   3.052  20.226  0.00  0.00    +0.000 A 
ATOM     23  C   UNL     1       3.753   4.214  19.423  0.00  0.00    +0.000 A 
ATOM     24  C   UNL     1       4.716   4.758  18.518  0.00  0.00    +0.000 A 
ATOM     25  C   UNL     1       6.001   4.350  18.103  0.00  0.00    +0.000 A 
ATOM     26  C   UNL     1       6.705   5.118  17.170  0.00  0.00    +0.000 A 
ATOM     27  C   UNL     1       6.147   6.280  16.647  0.00  0.00    +0.000 A 
ATOM     28  C   UNL     1       4.876   6.703  17.042  0.00  0.00    +0.000 A 
ATOM     29  C   UNL     1       4.175   5.925  17.980  0.00  0.00    +0.000 A 
ENDBRANCH  16  17
ENDBRANCH   1  16
TORSDOF 6
ENDMDL
MODEL 8
REMARK VINA RESULT:      -8.1      1.353      1.601
REMARK  Name = 
REMARK  6 active torsions:
REMARK  status: ('A' for Active; 'I' for Inactive)
REMARK    1  A    between atoms: O_1  and  C_2
REMARK    2  A    between atoms: C_2  and  C_3
REMARK    3  A    between atoms: C_2  and  C_15
REMARK    4  A    between atoms: C_3  and  S_4
REMARK    5  A    between atoms: S_4  and  C_5
REMARK    6  A    between atoms: C_15  and  N_16
REMARK                            x       y       z     vdW  Elec       q    Type
REMARK                         _______ _______ _______ _____ _____    ______ ____
ROOT
ATOM      1  C   UNL     1       1.926   7.365  19.325  0.00  0.00    +0.000 C 
ENDROOT
BRANCH   1   2
ATOM      2  O   UNL     1       2.775   6.877  20.377  0.00  0.00    +0.000 OA
ATOM      3  H   UNL     1       2.330   6.116  20.791  0.00  0.00    +0.000 HD
ENDBRANCH   1   2
BRANCH   1   4
ATOM      4  C   UNL     1       1.511   8.793  19.720  0.00  0.00    +0.000 C 
BRANCH   4   5
ATOM      5  S   UNL     1       1.389   9.925  18.294  0.00  0.00    +0.000 S 
BRANCH   5   6
ATOM      6  C   UNL     1      -0.240  10.601  18.558  0.00  0.00    +0.000 A 
ATOM      7  C   UNL     1      -0.425  11.461  19.639  0.00  0.00    +0.000 A 
ATOM      8  C   UNL     1      -1.676  12.017  19.891  0.00  0.00    +0.000 A 
ATOM      9  C   UNL     1      -2.771  11.717  19.070  0.00  0.00    +0.000 A 
ATOM     10  C   UNL     1      -4.031  12.290  19.303  0.00  0.00    +0.000 A 
ATOM     11  C   UNL     1      -5.116  11.983  18.481  0.00  0.00    +0.000 A 
ATOM     12  C   UNL     1      -4.955  11.091  17.423  0.00  0.00    +0.000 A 
ATOM     13  C   UNL     1      -3.708  10.513  17.180  0.00  0.00    +0.000 A 
ATOM     14  C   UNL     1      -2.601  10.822  17.989  0.00  0.00    +0.000 A 
ATOM     15  C   UNL     1      -1.331  10.266  17.750  0.00  0.00    +0.000 A 
ENDBRANCH   5   6
ENDBRANCH   4   5
ENDBRANCH   1   4
BRANCH   1  16
ATOM     16  C   UNL     1       2.694   7.339  17.993  0.00  0.00    +0.000 C 
BRANCH  16  17
ATOM     17  N   UNL     1       3.448   6.112  17.762  0.00  0.00    +0.000 N 
ATOM     18  C   UNL     1       4.818   6.050  17.576  0.00  0.00    +0.000 A 
ATOM     19  C   UNL     1       5.782   7.060  17.403  0.00  0.00    +0.000 A 
ATOM     20  C   UNL     1       7.125   6.681  17.292  0.00  0.00    +0.000 A 
ATOM     21  C   UNL     1       7.500   5.343  17.351  0.00  0.00    +0.000 A 
ATOM     22  C   UNL     1       6.534   4.345  17.506  0.00  0.00    +0.000 A 
ATOM     23  C   UNL     1       5.171   4.698  17.615  0.00  0.00    +0.000 A 
ATOM     24  C   UNL     1       3.971   3.940  17.778  0.00  0.00    +0.000 A 
ATOM     25  C   UNL     1       3.697   2.559  17.873  0.00  0.00    +0.000 A 
ATOM     26  C   UNL     1       2.380   2.123  18.043  0.00  0.00    +0.000 A 
ATOM     27  C   UNL     1       1.337   3.040  18.122  0.00  0.00    +0.000 A 
ATOM     28  C   UNL     1       1.583   4.412  18.032  0.00  0.00    +0.000 A 
ATOM     29  C   UNL     1       2.910   4.842  17.861  0.00  0.00    +0.000 A 
ENDBRANCH  16  17
ENDBRANCH   1  16
TORSDOF 6
ENDMDL
MODEL 9
REMARK VINA RESULT:      -8.1      1.441      1.536
REMARK  Name = 
REMARK  6 active torsions:
REMARK  status: ('A' for Active; 'I' for Inactive)
REMARK    1  A    between atoms: O_1  and  C_2
REMARK    2  A    between atoms: C_2  and  C_3
REMARK    3  A    between atoms: C_2  and  C_15
REMARK    4  A    between atoms: C_3  and  S_4
REMARK    5  A    between atoms: S_4  and  C_5
REMARK    6  A    between atoms: C_15  and  N_16
REMARK                            x       y       z     vdW  Elec       q    Type
REMARK                         _______ _______ _______ _____ _____    ______ ____
ROOT
ATOM      1  C   UNL     1       2.351   8.320  18.533  0.00  0.00    +0.000 C 
ENDROOT
BRANCH   1   2
ATOM      2  O   UNL     1       2.307   9.369  17.552  0.00  0.00    +0.000 OA
ATOM      3  H   UNL     1       3.216   9.525  17.240  0.00  0.00    +0.000 HD
ENDBRANCH   1   2
BRANCH   1   4
ATOM      4  C   UNL     1       1.277   8.653  19.583  0.00  0.00    +0.000 C 
BRANCH   4   5
ATOM      5  S   UNL     1       1.159  10.437  19.949  0.00  0.00    +0.000 S 
BRANCH   5   6
ATOM      6  C   UNL     1      -0.437  10.805  19.243  0.00  0.00    +0.000 A 
ATOM      7  C   UNL     1      -1.304  11.617  19.973  0.00  0.00    +0.000 A 
ATOM      8  C   UNL     1      -2.562  11.936  19.468  0.00  0.00    +0.000 A 
ATOM      9  C   UNL     1      -2.981  11.443  18.226  0.00  0.00    +0.000 A 
ATOM     10  C   UNL     1      -4.239  11.777  17.700  0.00  0.00    +0.000 A 
ATOM     11  C   UNL     1      -4.648  11.278  16.462  0.00  0.00    +0.000 A 
ATOM     12  C   UNL     1      -3.808  10.433  15.742  0.00  0.00    +0.000 A 
ATOM     13  C   UNL     1      -2.555  10.090  16.254  0.00  0.00    +0.000 A 
ATOM     14  C   UNL     1      -2.121  10.595  17.491  0.00  0.00    +0.000 A 
ATOM     15  C   UNL     1      -0.854  10.279  18.016  0.00  0.00    +0.000 A 
ENDBRANCH   5   6
ENDBRANCH   4   5
ENDBRANCH   1   4
BRANCH   1  16
ATOM     16  C   UNL     1       2.086   6.968  17.851  0.00  0.00    +0.000 C 
BRANCH  16  17
ATOM     17  N   UNL     1       3.015   5.912  18.240  0.00  0.00    +0.000 N 
ATOM     18  C   UNL     1       4.362   5.890  17.924  0.00  0.00    +0.000 A 
ATOM     19  C   UNL     1       5.136   6.706  17.079  0.00  0.00    +0.000 A 
ATOM     20  C   UNL     1       6.513   6.466  17.006  0.00  0.00    +0.000 A 
ATOM     21  C   UNL     1       7.103   5.449  17.747  0.00  0.00    +0.000 A 
ATOM     22  C   UNL     1       6.325   4.631  18.571  0.00  0.00    +0.000 A 
ATOM     23  C   UNL     1       4.932   4.847  18.660  0.00  0.00    +0.000 A 
ATOM     24  C   UNL     1       3.885   4.206  19.391  0.00  0.00    +0.000 A 
ATOM     25  C   UNL     1       3.847   3.110  20.279  0.00  0.00    +0.000 A 
ATOM     26  C   UNL     1       2.631   2.724  20.852  0.00  0.00    +0.000 A 
ATOM     27  C   UNL     1       1.460   3.413  20.554  0.00  0.00    +0.000 A 
ATOM     28  C   UNL     1       1.473   4.501  19.679  0.00  0.00    +0.000 A 
ATOM     29  C   UNL     1       2.699   4.883  19.108  0.00  0.00    +0.000 A 
ENDBRANCH  16  17
ENDBRANCH   1  16
TORSDOF 6
ENDMDL
