MODEL 1
REMARK VINA RESULT:      -7.5      0.000      0.000
REMARK  Name = 
REMARK  4 active torsions:
REMARK  status: ('A' for Active; 'I' for Inactive)
REMARK    1  A    between atoms: C_2  and  C_3
REMARK    2  A    between atoms: C_4  and  C_5
REMARK    3  A    between atoms: N_10  and  N_11
REMARK    4  A    between atoms: C_12  and  C_14
REMARK                            x       y       z     vdW  Elec       q    Type
REMARK                         _______ _______ _______ _____ _____    ______ ____
ROOT
ATOM      1  O   UNL     1       8.126   6.780  18.687  0.00  0.00    +0.000 OA
ATOM      2  C   UNL     1       7.681   7.590  17.880  0.00  0.00    +0.000 C 
ATOM      3  N   UNL     1       6.569   7.369  17.097  0.00  0.00    +0.000 N 
ATOM      4  H   UNL     1       6.171   8.055  16.457  0.00  0.00    +0.000 HD
ENDROOT
BRANCH   3   5
ATOM      5  N   UNL     1       5.839   6.189  17.250  0.00  0.00    +0.000 N 
ATOM      6  C   UNL     1       4.478   6.294  17.468  0.00  0.00    +0.000 C 
ATOM      7  O   UNL     1       3.896   7.375  17.530  0.00  0.00    +0.000 OA
ATOM      8  H   UNL     1       6.316   5.321  17.015  0.00  0.00    +0.000 HD
BRANCH   6   9
ATOM      9  C   UNL     1       3.733   5.014  17.602  0.00  0.00    +0.000 A 
ATOM     10  C   UNL     1       2.357   4.999  17.867  0.00  0.00    +0.000 A 
ATOM     11  C   UNL     1       1.683   3.781  17.990  0.00  0.00    +0.000 A 
ATOM     12  C   UNL     1       2.377   2.581  17.841  0.00  0.00    +0.000 A 
ATOM     13  C   UNL     1       3.742   2.592  17.556  0.00  0.00    +0.000 A 
ATOM     14  C   UNL     1       4.420   3.807  17.427  0.00  0.00    +0.000 A 
ENDBRANCH   6   9
ENDBRANCH   3   5
BRANCH   2  15
ATOM     15  C   UNL     1       8.272   8.931  17.651  0.00  0.00    +0.000 C 
ATOM     16  C   UNL     1       8.732   9.678  18.667  0.00  0.00    +0.000 C 
BRANCH  16  17
ATOM     17  C   UNL     1       9.265  10.981  18.428  0.00  0.00    +0.000 A 
ATOM     18  C   UNL     1       8.720  12.054  17.738  0.00  0.00    +0.000 A 
ATOM     19  C   UNL     1       9.570  13.198  17.709  0.00  0.00    +0.000 A 
ATOM     20  C   UNL     1      10.747  12.975  18.383  0.00  0.00    +0.000 A 
ATOM     21  S   UNL     1      10.810  11.408  19.063  0.00  0.00    +0.000 S 
ENDBRANCH  16  17
ENDBRANCH   2  15
TORSDOF 4
ENDMDL
MODEL 2
REMARK VINA RESULT:      -7.3      0.753      1.469
REMARK  Name = 
REMARK  4 active torsions:
REMARK  status: ('A' for Active; 'I' for Inactive)
REMARK    1  A    between atoms: C_2  and  C_3
REMARK    2  A    between atoms: C_4  and  C_5
REMARK    3  A    between atoms: N_10  and  N_11
REMARK    4  A    between atoms: C_12  and  C_14
REMARK                            x       y       z     vdW  Elec       q    Type
REMARK                         _______ _______ _______ _____ _____    ______ ____
ROOT
ATOM      1  O   UNL     1       8.025   6.840  18.708  0.00  0.00    +0.000 OA
ATOM      2  C   UNL     1       7.595   7.680  17.923  0.00  0.00    +0.000 C 
ATOM      3  N   UNL     1       6.488   7.497  17.125  0.00  0.00    +0.000 N 
ATOM      4  H   UNL     1       6.103   8.209  16.504  0.00  0.00    +0.000 HD
ENDROOT
BRANCH   3   5
ATOM      5  N   UNL     1       5.744   6.322  17.233  0.00  0.00    +0.000 N 
ATOM      6  C   UNL     1       4.397   6.433  17.528  0.00  0.00    +0.000 C 
ATOM      7  O   UNL     1       3.841   7.516  17.695  0.00  0.00    +0.000 OA
ATOM      8  H   UNL     1       6.191   5.465  16.914  0.00  0.00    +0.000 HD
BRANCH   6   9
ATOM      9  C   UNL     1       3.635   5.159  17.612  0.00  0.00    +0.000 A 
ATOM     10  C   UNL     1       4.274   3.920  17.475  0.00  0.00    +0.000 A 
ATOM     11  C   UNL     1       3.532   2.739  17.557  0.00  0.00    +0.000 A 
ATOM     12  C   UNL     1       2.157   2.792  17.783  0.00  0.00    +0.000 A 
ATOM     13  C   UNL     1       1.521   4.023  17.942  0.00  0.00    +0.000 A 
ATOM     14  C   UNL     1       2.259   5.206  17.866  0.00  0.00    +0.000 A 
ENDBRANCH   6   9
ENDBRANCH   3   5
BRANCH   2  15
ATOM     15  C   UNL     1       8.203   9.022  17.743  0.00  0.00    +0.000 C 
ATOM     16  C   UNL     1       8.906   9.611  18.722  0.00  0.00    +0.000 C 
BRANCH  16  17
ATOM     17  C   UNL     1       9.453  10.918  18.540  0.00  0.00    +0.000 A 
ATOM     18  C   UNL     1      10.700  11.419  18.884  0.00  0.00    +0.000 A 
ATOM     19  C   UNL     1      10.872  12.791  18.541  0.00  0.00    +0.000 A 
ATOM     20  C   UNL     1       9.752  13.309  17.936  0.00  0.00    +0.000 A 
ATOM     21  S   UNL     1       8.517  12.140  17.764  0.00  0.00    +0.000 S 
ENDBRANCH  16  17
ENDBRANCH   2  15
TORSDOF 4
ENDMDL
MODEL 3
REMARK VINA RESULT:      -7.0      0.768      1.151
REMARK  Name = 
REMARK  4 active torsions:
REMARK  status: ('A' for Active; 'I' for Inactive)
REMARK    1  A    between atoms: C_2  and  C_3
REMARK    2  A    between atoms: C_4  and  C_5
REMARK    3  A    between atoms: N_10  and  N_11
REMARK    4  A    between atoms: C_12  and  C_14
REMARK                            x       y       z     vdW  Elec       q    Type
REMARK                         _______ _______ _______ _____ _____    ______ ____
ROOT
ATOM      1  O   UNL     1       8.311   6.710  18.891  0.00  0.00    +0.000 OA
ATOM      2  C   UNL     1       7.740   7.444  18.090  0.00  0.00    +0.000 C 
ATOM      3  N   UNL     1       6.621   7.082  17.373  0.00  0.00    +0.000 N 
ATOM      4  H   UNL     1       6.118   7.703  16.740  0.00  0.00    +0.000 HD
ENDROOT
BRANCH   3   5
ATOM      5  N   UNL     1       6.033   5.836  17.593  0.00  0.00    +0.000 N 
ATOM      6  C   UNL     1       4.683   5.800  17.892  0.00  0.00    +0.000 C 
ATOM      7  O   UNL     1       3.993   6.815  17.970  0.00  0.00    +0.000 OA
ATOM      8  H   UNL     1       6.585   5.018  17.344  0.00  0.00    +0.000 HD
BRANCH   6   9
ATOM      9  C   UNL     1       4.089   4.453  18.095  0.00  0.00    +0.000 A 
ATOM     10  C   UNL     1       4.584   3.581  19.074  0.00  0.00    +0.000 A 
ATOM     11  C   UNL     1       4.008   2.320  19.241  0.00  0.00    +0.000 A 
ATOM     12  C   UNL     1       2.934   1.930  18.441  0.00  0.00    +0.000 A 
ATOM     13  C   UNL     1       2.424   2.803  17.480  0.00  0.00    +0.000 A 
ATOM     14  C   UNL     1       2.995   4.067  17.312  0.00  0.00    +0.000 A 
ENDBRANCH   6   9
ENDBRANCH   3   5
BRANCH   2  15
ATOM     15  C   UNL     1       8.169   8.834  17.799  0.00  0.00    +0.000 C 
ATOM     16  C   UNL     1       8.845   9.563  18.700  0.00  0.00    +0.000 C 
BRANCH  16  17
ATOM     17  C   UNL     1       9.217  10.911  18.412  0.00  0.00    +0.000 A 
ATOM     18  C   UNL     1       8.529  11.899  17.723  0.00  0.00    +0.000 A 
ATOM     19  C   UNL     1       9.241  13.130  17.636  0.00  0.00    +0.000 A 
ATOM     20  C   UNL     1      10.460  13.058  18.266  0.00  0.00    +0.000 A 
ATOM     21  S   UNL     1      10.727  11.525  18.976  0.00  0.00    +0.000 S 
ENDBRANCH  16  17
ENDBRANCH   2  15
TORSDOF 4
ENDMDL
MODEL 4
REMARK VINA RESULT:      -7.0      1.057      1.575
REMARK  Name = 
REMARK  4 active torsions:
REMARK  status: ('A' for Active; 'I' for Inactive)
REMARK    1  A    between atoms: C_2  and  C_3
REMARK    2  A    between atoms: C_4  and  C_5
REMARK    3  A    between atoms: N_10  and  N_11
REMARK    4  A    between atoms: C_12  and  C_14
REMARK                            x       y       z     vdW  Elec       q    Type
REMARK                         _______ _______ _______ _____ _____    ______ ____
ROOT
ATOM      1  O   UNL     1       7.649   6.420  16.532  0.00  0.00    +0.000 OA
ATOM      2  C   UNL     1       7.248   7.277  17.314  0.00  0.00    +0.000 C 
ATOM      3  N   UNL     1       6.146   7.127  18.127  0.00  0.00    +0.000 N 
ATOM      4  H   UNL     1       5.836   7.819  18.808  0.00  0.00    +0.000 HD
ENDROOT
BRANCH   3   5
ATOM      5  N   UNL     1       5.456   5.914  18.138  0.00  0.00    +0.000 N 
ATOM      6  C   UNL     1       4.076   5.954  18.061  0.00  0.00    +0.000 C 
ATOM      7  O   UNL     1       3.445   7.006  17.985  0.00  0.00    +0.000 OA
ATOM      8  H   UNL     1       6.011   5.069  18.020  0.00  0.00    +0.000 HD
BRANCH   6   9
ATOM      9  C   UNL     1       3.379   4.641  18.052  0.00  0.00    +0.000 A 
ATOM     10  C   UNL     1       4.082   3.447  17.840  0.00  0.00    +0.000 A 
ATOM     11  C   UNL     1       3.400   2.228  17.835  0.00  0.00    +0.000 A 
ATOM     12  C   UNL     1       2.022   2.196  18.050  0.00  0.00    +0.000 A 
ATOM     13  C   UNL     1       1.323   3.380  18.284  0.00  0.00    +0.000 A 
ATOM     14  C   UNL     1       2.001   4.601  18.294  0.00  0.00    +0.000 A 
ENDBRANCH   6   9
ENDBRANCH   3   5
BRANCH   2  15
ATOM     15  C   UNL     1       7.912   8.591  17.503  0.00  0.00    +0.000 C 
ATOM     16  C   UNL     1       8.546   8.899  18.645  0.00  0.00    +0.000 C 
BRANCH  16  17
ATOM     17  C   UNL     1       9.147  10.183  18.818  0.00  0.00    +0.000 A 
ATOM     18  C   UNL     1       9.585  11.098  17.872  0.00  0.00    +0.000 A 
ATOM     19  C   UNL     1      10.143  12.278  18.443  0.00  0.00    +0.000 A 
ATOM     20  C   UNL     1      10.115  12.242  19.816  0.00  0.00    +0.000 A 
ATOM     21  S   UNL     1       9.399  10.806  20.406  0.00  0.00    +0.000 S 
ENDBRANCH  16  17
ENDBRANCH   2  15
TORSDOF 4
ENDMDL
MODEL 5
REMARK VINA RESULT:      -6.9      3.178      8.785
REMARK  Name = 
REMARK  4 active torsions:
REMARK  status: ('A' for Active; 'I' for Inactive)
REMARK    1  A    between atoms: C_2  and  C_3
REMARK    2  A    between atoms: C_4  and  C_5
REMARK    3  A    between atoms: N_10  and  N_11
REMARK    4  A    between atoms: C_12  and  C_14
REMARK                            x       y       z     vdW  Elec       q    Type
REMARK                         _______ _______ _______ _____ _____    ______ ____
ROOT
ATOM      1  O   UNL     1       8.023   5.684  20.287  0.00  0.00    +0.000 OA
ATOM      2  C   UNL     1       7.456   5.867  19.214  0.00  0.00    +0.000 C 
ATOM      3  N   UNL     1       7.650   6.972  18.416  0.00  0.00    +0.000 N 
ATOM      4  H   UNL     1       7.214   7.106  17.504  0.00  0.00    +0.000 HD
ENDROOT
BRANCH   3   5
ATOM      5  N   UNL     1       8.592   7.934  18.784  0.00  0.00    +0.000 N 
ATOM      6  C   UNL     1       8.418   9.223  18.314  0.00  0.00    +0.000 C 
ATOM      7  O   UNL     1       7.476   9.545  17.593  0.00  0.00    +0.000 OA
ATOM      8  H   UNL     1       9.247   7.676  19.519  0.00  0.00    +0.000 HD
BRANCH   6   9
ATOM      9  C   UNL     1       9.429  10.223  18.748  0.00  0.00    +0.000 A 
ATOM     10  C   UNL     1      10.274  10.849  17.823  0.00  0.00    +0.000 A 
ATOM     11  C   UNL     1      11.216  11.784  18.260  0.00  0.00    +0.000 A 
ATOM     12  C   UNL     1      11.311  12.100  19.614  0.00  0.00    +0.000 A 
ATOM     13  C   UNL     1      10.456  11.495  20.536  0.00  0.00    +0.000 A 
ATOM     14  C   UNL     1       9.509  10.563  20.103  0.00  0.00    +0.000 A 
ENDBRANCH   6   9
ENDBRANCH   3   5
BRANCH   2  15
ATOM     15  C   UNL     1       6.492   4.906  18.621  0.00  0.00    +0.000 C 
ATOM     16  C   UNL     1       5.289   4.689  19.173  0.00  0.00    +0.000 C 
BRANCH  16  17
ATOM     17  C   UNL     1       4.392   3.733  18.605  0.00  0.00    +0.000 A 
ATOM     18  C   UNL     1       3.740   3.740  17.381  0.00  0.00    +0.000 A 
ATOM     19  C   UNL     1       2.911   2.599  17.176  0.00  0.00    +0.000 A 
ATOM     20  C   UNL     1       2.951   1.741  18.248  0.00  0.00    +0.000 A 
ATOM     21  S   UNL     1       3.999   2.299  19.477  0.00  0.00    +0.000 S 
ENDBRANCH  16  17
ENDBRANCH   2  15
TORSDOF 4
ENDMDL
MODEL 6
REMARK VINA RESULT:      -6.8      1.580      1.715
REMARK  Name = 
REMARK  4 active torsions:
REMARK  status: ('A' for Active; 'I' for Inactive)
REMARK    1  A    between atoms: C_2  and  C_3
REMARK    2  A    between atoms: C_4  and  C_5
REMARK    3  A    between atoms: N_10  and  N_11
REMARK    4  A    between atoms: C_12  and  C_14
REMARK                            x       y       z     vdW  Elec       q    Type
REMARK                         _______ _______ _______ _____ _____    ______ ____
ROOT
ATOM      1  O   UNL     1       6.660   7.612  16.743  0.00  0.00    +0.000 OA
ATOM      2  C   UNL     1       7.351   7.396  17.734  0.00  0.00    +0.000 C 
ATOM      3  N   UNL     1       7.249   6.268  18.517  0.00  0.00    +0.000 N 
ATOM      4  H   UNL     1       7.850   6.065  19.315  0.00  0.00    +0.000 HD
ENDROOT
BRANCH   3   5
ATOM      5  N   UNL     1       6.362   5.253  18.155  0.00  0.00    +0.000 N 
ATOM      6  C   UNL     1       5.222   5.086  18.920  0.00  0.00    +0.000 C 
ATOM      7  O   UNL     1       4.968   5.791  19.895  0.00  0.00    +0.000 OA
ATOM      8  H   UNL     1       6.512   4.815  17.248  0.00  0.00    +0.000 HD
BRANCH   6   9
ATOM      9  C   UNL     1       4.291   4.011  18.488  0.00  0.00    +0.000 A 
ATOM     10  C   UNL     1       3.462   4.174  17.371  0.00  0.00    +0.000 A 
ATOM     11  C   UNL     1       2.595   3.146  16.989  0.00  0.00    +0.000 A 
ATOM     12  C   UNL     1       2.561   1.955  17.713  0.00  0.00    +0.000 A 
ATOM     13  C   UNL     1       3.402   1.780  18.813  0.00  0.00    +0.000 A 
ATOM     14  C   UNL     1       4.273   2.803  19.196  0.00  0.00    +0.000 A 
ENDBRANCH   6   9
ENDBRANCH   3   5
BRANCH   2  15
ATOM     15  C   UNL     1       8.409   8.320  18.214  0.00  0.00    +0.000 C 
ATOM     16  C   UNL     1       8.286   9.651  18.093  0.00  0.00    +0.000 C 
BRANCH  16  17
ATOM     17  C   UNL     1       9.332  10.520  18.530  0.00  0.00    +0.000 A 
ATOM     18  C   UNL     1      10.313  11.172  17.797  0.00  0.00    +0.000 A 
ATOM     19  C   UNL     1      11.192  11.955  18.601  0.00  0.00    +0.000 A 
ATOM     20  C   UNL     1      10.860  11.887  19.933  0.00  0.00    +0.000 A 
ATOM     21  S   UNL     1       9.486  10.907  20.203  0.00  0.00    +0.000 S 
ENDBRANCH  16  17
ENDBRANCH   2  15
TORSDOF 4
ENDMDL
MODEL 7
REMARK VINA RESULT:      -6.8      1.525      1.858
REMARK  Name = 
REMARK  4 active torsions:
REMARK  status: ('A' for Active; 'I' for Inactive)
REMARK    1  A    between atoms: C_2  and  C_3
REMARK    2  A    between atoms: C_4  and  C_5
REMARK    3  A    between atoms: N_10  and  N_11
REMARK    4  A    between atoms: C_12  and  C_14
REMARK                            x       y       z     vdW  Elec       q    Type
REMARK                         _______ _______ _______ _____ _____    ______ ____
ROOT
ATOM      1  O   UNL     1       6.983   7.217  16.701  0.00  0.00    +0.000 OA
ATOM      2  C   UNL     1       7.500   7.171  17.813  0.00  0.00    +0.000 C 
ATOM      3  N   UNL     1       7.239   6.193  18.747  0.00  0.00    +0.000 N 
ATOM      4  H   UNL     1       7.699   6.128  19.654  0.00  0.00    +0.000 HD
ENDROOT
BRANCH   3   5
ATOM      5  N   UNL     1       6.388   5.136  18.421  0.00  0.00    +0.000 N 
ATOM      6  C   UNL     1       5.082   5.194  18.871  0.00  0.00    +0.000 C 
ATOM      7  O   UNL     1       4.650   6.132  19.538  0.00  0.00    +0.000 OA
ATOM      8  H   UNL     1       6.725   4.475  17.724  0.00  0.00    +0.000 HD
BRANCH   6   9
ATOM      9  C   UNL     1       4.202   4.060  18.483  0.00  0.00    +0.000 A 
ATOM     10  C   UNL     1       4.393   2.778  19.014  0.00  0.00    +0.000 A 
ATOM     11  C   UNL     1       3.551   1.731  18.630  0.00  0.00    +0.000 A 
ATOM     12  C   UNL     1       2.516   1.963  17.724  0.00  0.00    +0.000 A 
ATOM     13  C   UNL     1       2.309   3.242  17.210  0.00  0.00    +0.000 A 
ATOM     14  C   UNL     1       3.145   4.294  17.595  0.00  0.00    +0.000 A 
ENDBRANCH   6   9
ENDBRANCH   3   5
BRANCH   2  15
ATOM     15  C   UNL     1       8.497   8.159  18.296  0.00  0.00    +0.000 C 
ATOM     16  C   UNL     1       8.299   9.479  18.160  0.00  0.00    +0.000 C 
BRANCH  16  17
ATOM     17  C   UNL     1       9.288  10.411  18.600  0.00  0.00    +0.000 A 
ATOM     18  C   UNL     1      10.258  11.090  17.877  0.00  0.00    +0.000 A 
ATOM     19  C   UNL     1      11.074  11.937  18.682  0.00  0.00    +0.000 A 
ATOM     20  C   UNL     1      10.707  11.890  20.005  0.00  0.00    +0.000 A 
ATOM     21  S   UNL     1       9.374  10.852  20.265  0.00  0.00    +0.000 S 
ENDBRANCH  16  17
ENDBRANCH   2  15
TORSDOF 4
ENDMDL
MODEL 8
REMARK VINA RESULT:      -6.8      3.144      8.756
REMARK  Name = 
REMARK  4 active torsions:
REMARK  status: ('A' for Active; 'I' for Inactive)
REMARK    1  A    between atoms: C_2  and  C_3
REMARK    2  A    between atoms: C_4  and  C_5
REMARK    3  A    between atoms: N_10  and  N_11
REMARK    4  A    between atoms: C_12  and  C_14
REMARK                            x       y       z     vdW  Elec       q    Type
REMARK                         _______ _______ _______ _____ _____    ______ ____
ROOT
ATOM      1  O   UNL     1       8.474   5.575  19.804  0.00  0.00    +0.000 OA
ATOM      2  C   UNL     1       7.662   5.940  18.960  0.00  0.00    +0.000 C 
ATOM      3  N   UNL     1       7.619   7.208  18.426  0.00  0.00    +0.000 N 
ATOM      4  H   UNL     1       6.974   7.503  17.693  0.00  0.00    +0.000 HD
ENDROOT
BRANCH   3   5
ATOM      5  N   UNL     1       8.585   8.146  18.795  0.00  0.00    +0.000 N 
ATOM      6  C   UNL     1       8.476   9.425  18.280  0.00  0.00    +0.000 C 
ATOM      7  O   UNL     1       7.570   9.759  17.518  0.00  0.00    +0.000 OA
ATOM      8  H   UNL     1       9.206   7.888  19.559  0.00  0.00    +0.000 HD
BRANCH   6   9
ATOM      9  C   UNL     1       9.510  10.400  18.715  0.00  0.00    +0.000 A 
ATOM     10  C   UNL     1       9.704  10.696  20.071  0.00  0.00    +0.000 A 
ATOM     11  C   UNL     1      10.683  11.618  20.451  0.00  0.00    +0.000 A 
ATOM     12  C   UNL     1      11.472  12.238  19.483  0.00  0.00    +0.000 A 
ATOM     13  C   UNL     1      11.296  11.931  18.134  0.00  0.00    +0.000 A 
ATOM     14  C   UNL     1      10.322  11.006  17.749  0.00  0.00    +0.000 A 
ENDBRANCH   6   9
ENDBRANCH   3   5
BRANCH   2  15
ATOM     15  C   UNL     1       6.622   5.052  18.383  0.00  0.00    +0.000 C 
ATOM     16  C   UNL     1       5.496   4.763  19.053  0.00  0.00    +0.000 C 
BRANCH  16  17
ATOM     17  C   UNL     1       4.524   3.877  18.494  0.00  0.00    +0.000 A 
ATOM     18  C   UNL     1       3.872   3.927  17.271  0.00  0.00    +0.000 A 
ATOM     19  C   UNL     1       2.955   2.854  17.075  0.00  0.00    +0.000 A 
ATOM     20  C   UNL     1       2.930   2.002  18.153  0.00  0.00    +0.000 A 
ATOM     21  S   UNL     1       4.023   2.484  19.376  0.00  0.00    +0.000 S 
ENDBRANCH  16  17
ENDBRANCH   2  15
TORSDOF 4
ENDMDL
MODEL 9
REMARK VINA RESULT:      -6.8      1.518      1.767
REMARK  Name = 
REMARK  4 active torsions:
REMARK  status: ('A' for Active; 'I' for Inactive)
REMARK    1  A    between atoms: C_2  and  C_3
REMARK    2  A    between atoms: C_4  and  C_5
REMARK    3  A    between atoms: N_10  and  N_11
REMARK    4  A    between atoms: C_12  and  C_14
REMARK                            x       y       z     vdW  Elec       q    Type
REMARK                         _______ _______ _______ _____ _____    ______ ____
ROOT
ATOM      1  O   UNL     1       7.756   6.834  16.619  0.00  0.00    +0.000 OA
ATOM      2  C   UNL     1       7.263   7.699  17.336  0.00  0.00    +0.000 C 
ATOM      3  N   UNL     1       6.004   7.618  17.890  0.00  0.00    +0.000 N 
ATOM      4  H   UNL     1       5.608   8.314  18.521  0.00  0.00    +0.000 HD
ENDROOT
BRANCH   3   5
ATOM      5  N   UNL     1       5.239   6.466  17.702  0.00  0.00    +0.000 N 
ATOM      6  C   UNL     1       5.336   5.462  18.648  0.00  0.00    +0.000 C 
ATOM      7  O   UNL     1       6.064   5.549  19.635  0.00  0.00    +0.000 OA
ATOM      8  H   UNL     1       4.522   6.505  16.980  0.00  0.00    +0.000 HD
BRANCH   6   9
ATOM      9  C   UNL     1       4.488   4.263  18.423  0.00  0.00    +0.000 A 
ATOM     10  C   UNL     1       3.624   4.180  17.324  0.00  0.00    +0.000 A 
ATOM     11  C   UNL     1       2.837   3.040  17.139  0.00  0.00    +0.000 A 
ATOM     12  C   UNL     1       2.917   1.981  18.043  0.00  0.00    +0.000 A 
ATOM     13  C   UNL     1       3.792   2.050  19.126  0.00  0.00    +0.000 A 
ATOM     14  C   UNL     1       4.585   3.186  19.313  0.00  0.00    +0.000 A 
ENDBRANCH   6   9
ENDBRANCH   3   5
BRANCH   2  15
ATOM     15  C   UNL     1       7.967   8.949  17.719  0.00  0.00    +0.000 C 
ATOM     16  C   UNL     1       8.700   9.025  18.840  0.00  0.00    +0.000 C 
BRANCH  16  17
ATOM     17  C   UNL     1       9.340  10.248  19.207  0.00  0.00    +0.000 A 
ATOM     18  C   UNL     1       9.533  10.811  20.460  0.00  0.00    +0.000 A 
ATOM     19  C   UNL     1      10.217  12.061  20.418  0.00  0.00    +0.000 A 
ATOM     20  C   UNL     1      10.537  12.424  19.132  0.00  0.00    +0.000 A 
ATOM     21  S   UNL     1      10.037  11.253  17.992  0.00  0.00    +0.000 S 
ENDBRANCH  16  17
ENDBRANCH   2  15
TORSDOF 4
ENDMDL
