MODEL 1
REMARK VINA RESULT:      -7.9      0.000      0.000
REMARK  Name = 
REMARK  9 active torsions:
REMARK  status: ('A' for Active; 'I' for Inactive)
REMARK    1  A    between atoms: C_2  and  C_3
REMARK    2  A    between atoms: C_6  and  C_7
REMARK    3  A    between atoms: C_7  and  C_8
REMARK    4  A    between atoms: C_8  and  O_9
REMARK    5  A    between atoms: O_9  and  C_10
REMARK    6  A    between atoms: N_15  and  C_16
REMARK    7  A    between atoms: C_16  and  C_17
REMARK    8  A    between atoms: C_17  and  C_18
REMARK    9  A    between atoms: C_18  and  C_19
REMARK                            x       y       z     vdW  Elec       q    Type
REMARK                         _______ _______ _______ _____ _____    ______ ____
ROOT
ATOM      1  C   UNL     1       5.005   3.678  18.457  0.00  0.00    +0.000 C 
ATOM      2  O   UNL     1       5.016   3.157  19.564  0.00  0.00    +0.000 OA
ATOM      3  N   UNL     1       5.753   4.770  18.094  0.00  0.00    +0.000 N 
ATOM      4  C   UNL     1       6.638   5.401  19.063  0.00  0.00    +0.000 C 
ATOM      5  C   UNL     1       8.010   5.665  18.423  0.00  0.00    +0.000 C 
ATOM      6  N   UNL     1       7.945   6.451  17.165  0.00  0.00    +0.000 NA
ATOM      7  C   UNL     1       7.031   5.760  16.223  0.00  0.00    +0.000 C 
ATOM      8  C   UNL     1       5.638   5.454  16.802  0.00  0.00    +0.000 C 
ENDROOT
BRANCH   1   9
ATOM      9  O   UNL     1       4.187   3.285  17.454  0.00  0.00    +0.000 OA
BRANCH   9  10
ATOM     10  C   UNL     1       3.306   2.212  17.796  0.00  0.00    +0.000 C 
BRANCH  10  11
ATOM     11  C   UNL     1       1.912   2.831  17.804  0.00  0.00    +0.000 C 
BRANCH  11  15
ATOM     12  C   UNL     1       1.710   6.519  20.022  0.00  0.00    +0.000 A 
ATOM     13  C   UNL     1       1.515   5.295  20.672  0.00  0.00    +0.000 A 
ATOM     14  C   UNL     1       1.577   4.100  19.951  0.00  0.00    +0.000 A 
ATOM     15  C   UNL     1       1.841   4.119  18.574  0.00  0.00    +0.000 A 
ATOM     16  C   UNL     1       2.025   5.346  17.925  0.00  0.00    +0.000 A 
ATOM     17  C   UNL     1       1.965   6.541  18.648  0.00  0.00    +0.000 A 
BRANCH  12  19
ATOM     18  N   UNL     1       1.609   8.734  21.361  0.00  0.00    +0.000 NA
ATOM     19  C   UNL     1       1.653   7.744  20.763  0.00  0.00    +0.000 C 
ENDBRANCH  12  19
ENDBRANCH  11  15
ENDBRANCH  10  11
ENDBRANCH   9  10
ENDBRANCH   1   9
BRANCH   6  20
ATOM     20  C   UNL     1       7.541   7.850  17.380  0.00  0.00    +0.000 C 
BRANCH  20  21
ATOM     21  C   UNL     1       8.458   8.614  18.344  0.00  0.00    +0.000 C 
BRANCH  21  22
ATOM     22  C   UNL     1       8.272  10.129  18.250  0.00  0.00    +0.000 C 
BRANCH  22  23
ATOM     23  C   UNL     1       9.409  10.860  18.920  0.00  0.00    +0.000 A 
ATOM     24  C   UNL     1       9.288  11.302  20.244  0.00  0.00    +0.000 A 
ATOM     25  C   UNL     1      10.330  12.006  20.850  0.00  0.00    +0.000 A 
ATOM     26  C   UNL     1      11.497  12.276  20.136  0.00  0.00    +0.000 A 
ATOM     27  C   UNL     1      11.623  11.842  18.818  0.00  0.00    +0.000 A 
ATOM     28  C   UNL     1      10.583  11.138  18.211  0.00  0.00    +0.000 A 
ENDBRANCH  22  23
ENDBRANCH  21  22
ENDBRANCH  20  21
ENDBRANCH   6  20
TORSDOF 9
ENDMDL
MODEL 2
REMARK VINA RESULT:      -7.6      0.758      1.481
REMARK  Name = 
REMARK  9 active torsions:
REMARK  status: ('A' for Active; 'I' for Inactive)
REMARK    1  A    between atoms: C_2  and  C_3
REMARK    2  A    between atoms: C_6  and  C_7
REMARK    3  A    between atoms: C_7  and  C_8
REMARK    4  A    between atoms: C_8  and  O_9
REMARK    5  A    between atoms: O_9  and  C_10
REMARK    6  A    between atoms: N_15  and  C_16
REMARK    7  A    between atoms: C_16  and  C_17
REMARK    8  A    between atoms: C_17  and  C_18
REMARK    9  A    between atoms: C_18  and  C_19
REMARK                            x       y       z     vdW  Elec       q    Type
REMARK                         _______ _______ _______ _____ _____    ______ ____
ROOT
ATOM      1  C   UNL     1       5.025   3.526  18.613  0.00  0.00    +0.000 C 
ATOM      2  O   UNL     1       4.929   3.072  19.745  0.00  0.00    +0.000 OA
ATOM      3  N   UNL     1       5.678   4.688  18.285  0.00  0.00    +0.000 N 
ATOM      4  C   UNL     1       6.315   5.484  19.325  0.00  0.00    +0.000 C 
ATOM      5  C   UNL     1       7.725   5.896  18.877  0.00  0.00    +0.000 C 
ATOM      6  N   UNL     1       7.759   6.597  17.568  0.00  0.00    +0.000 NA
ATOM      7  C   UNL     1       7.098   5.738  16.555  0.00  0.00    +0.000 C 
ATOM      8  C   UNL     1       5.681   5.279  16.943  0.00  0.00    +0.000 C 
ENDROOT
BRANCH   1   9
ATOM      9  O   UNL     1       4.430   2.972  17.532  0.00  0.00    +0.000 OA
BRANCH   9  10
ATOM     10  C   UNL     1       3.429   3.792  16.924  0.00  0.00    +0.000 C 
BRANCH  10  11
ATOM     11  C   UNL     1       2.213   3.675  17.838  0.00  0.00    +0.000 C 
BRANCH  11  15
ATOM     12  C   UNL     1       1.711   7.077  20.433  0.00  0.00    +0.000 A 
ATOM     13  C   UNL     1       2.207   7.249  19.136  0.00  0.00    +0.000 A 
ATOM     14  C   UNL     1       2.373   6.144  18.296  0.00  0.00    +0.000 A 
ATOM     15  C   UNL     1       2.039   4.859  18.746  0.00  0.00    +0.000 A 
ATOM     16  C   UNL     1       1.551   4.690  20.048  0.00  0.00    +0.000 A 
ATOM     17  C   UNL     1       1.384   5.796  20.886  0.00  0.00    +0.000 A 
BRANCH  12  19
ATOM     18  N   UNL     1       1.390   9.128  21.983  0.00  0.00    +0.000 NA
ATOM     19  C   UNL     1       1.534   8.211  21.291  0.00  0.00    +0.000 C 
ENDBRANCH  12  19
ENDBRANCH  11  15
ENDBRANCH  10  11
ENDBRANCH   9  10
ENDBRANCH   1   9
BRANCH   6  20
ATOM     20  C   UNL     1       7.154   7.938  17.617  0.00  0.00    +0.000 C 
BRANCH  20  21
ATOM     21  C   UNL     1       8.182   9.076  17.647  0.00  0.00    +0.000 C 
BRANCH  21  22
ATOM     22  C   UNL     1       8.923   9.159  18.983  0.00  0.00    +0.000 C 
BRANCH  22  23
ATOM     23  C   UNL     1       9.509  10.533  19.196  0.00  0.00    +0.000 A 
ATOM     24  C   UNL     1      10.056  11.248  18.123  0.00  0.00    +0.000 A 
ATOM     25  C   UNL     1      10.626  12.505  18.331  0.00  0.00    +0.000 A 
ATOM     26  C   UNL     1      10.656  13.054  19.613  0.00  0.00    +0.000 A 
ATOM     27  C   UNL     1      10.116  12.347  20.685  0.00  0.00    +0.000 A 
ATOM     28  C   UNL     1       9.546  11.091  20.480  0.00  0.00    +0.000 A 
ENDBRANCH  22  23
ENDBRANCH  21  22
ENDBRANCH  20  21
ENDBRANCH   6  20
TORSDOF 9
ENDMDL
MODEL 3
REMARK VINA RESULT:      -7.4      3.137      9.475
REMARK  Name = 
REMARK  9 active torsions:
REMARK  status: ('A' for Active; 'I' for Inactive)
REMARK    1  A    between atoms: C_2  and  C_3
REMARK    2  A    between atoms: C_6  and  C_7
REMARK    3  A    between atoms: C_7  and  C_8
REMARK    4  A    between atoms: C_8  and  O_9
REMARK    5  A    between atoms: O_9  and  C_10
REMARK    6  A    between atoms: N_15  and  C_16
REMARK    7  A    between atoms: C_16  and  C_17
REMARK    8  A    between atoms: C_17  and  C_18
REMARK    9  A    between atoms: C_18  and  C_19
REMARK                            x       y       z     vdW  Elec       q    Type
REMARK                         _______ _______ _______ _____ _____    ______ ____
ROOT
ATOM      1  C   UNL     1       7.896   7.542  18.102  0.00  0.00    +0.000 C 
ATOM      2  O   UNL     1       8.673   7.351  19.027  0.00  0.00    +0.000 OA
ATOM      3  N   UNL     1       6.895   6.683  17.724  0.00  0.00    +0.000 N 
ATOM      4  C   UNL     1       6.703   5.429  18.441  0.00  0.00    +0.000 C 
ATOM      5  C   UNL     1       5.212   5.229  18.754  0.00  0.00    +0.000 C 
ATOM      6  N   UNL     1       4.332   5.305  17.561  0.00  0.00    +0.000 NA
ATOM      7  C   UNL     1       4.574   6.599  16.877  0.00  0.00    +0.000 C 
ATOM      8  C   UNL     1       6.051   6.871  16.540  0.00  0.00    +0.000 C 
ENDROOT
BRANCH   1   9
ATOM      9  O   UNL     1       7.970   8.608  17.271  0.00  0.00    +0.000 OA
BRANCH   9  10
ATOM     10  C   UNL     1       7.944   9.875  17.933  0.00  0.00    +0.000 C 
BRANCH  10  11
ATOM     11  C   UNL     1       9.401  10.177  18.266  0.00  0.00    +0.000 C 
BRANCH  11  15
ATOM     12  C   UNL     1      10.510  14.270  17.502  0.00  0.00    +0.000 A 
ATOM     13  C   UNL     1      11.472  13.257  17.439  0.00  0.00    +0.000 A 
ATOM     14  C   UNL     1      11.113  11.930  17.690  0.00  0.00    +0.000 A 
ATOM     15  C   UNL     1       9.785  11.606  18.002  0.00  0.00    +0.000 A 
ATOM     16  C   UNL     1       8.826  12.624  18.075  0.00  0.00    +0.000 A 
ATOM     17  C   UNL     1       9.187  13.950  17.821  0.00  0.00    +0.000 A 
BRANCH  12  19
ATOM     18  N   UNL     1      11.173  16.728  17.025  0.00  0.00    +0.000 NA
ATOM     19  C   UNL     1      10.878  15.629  17.238  0.00  0.00    +0.000 C 
ENDBRANCH  12  19
ENDBRANCH  11  15
ENDBRANCH  10  11
ENDBRANCH   9  10
ENDBRANCH   1   9
BRANCH   6  20
ATOM     20  C   UNL     1       4.508   4.168  16.642  0.00  0.00    +0.000 C 
BRANCH  20  21
ATOM     21  C   UNL     1       3.647   2.950  16.999  0.00  0.00    +0.000 C 
BRANCH  21  22
ATOM     22  C   UNL     1       2.272   3.345  17.542  0.00  0.00    +0.000 C 
BRANCH  22  23
ATOM     23  C   UNL     1       2.176   3.084  19.024  0.00  0.00    +0.000 A 
ATOM     24  C   UNL     1       1.011   3.408  19.730  0.00  0.00    +0.000 A 
ATOM     25  C   UNL     1       0.938   3.195  21.108  0.00  0.00    +0.000 A 
ATOM     26  C   UNL     1       2.031   2.659  21.789  0.00  0.00    +0.000 A 
ATOM     27  C   UNL     1       3.194   2.337  21.094  0.00  0.00    +0.000 A 
ATOM     28  C   UNL     1       3.269   2.549  19.717  0.00  0.00    +0.000 A 
ENDBRANCH  22  23
ENDBRANCH  21  22
ENDBRANCH  20  21
ENDBRANCH   6  20
TORSDOF 9
ENDMDL
MODEL 4
REMARK VINA RESULT:      -7.4      4.592      8.367
REMARK  Name = 
REMARK  9 active torsions:
REMARK  status: ('A' for Active; 'I' for Inactive)
REMARK    1  A    between atoms: C_2  and  C_3
REMARK    2  A    between atoms: C_6  and  C_7
REMARK    3  A    between atoms: C_7  and  C_8
REMARK    4  A    between atoms: C_8  and  O_9
REMARK    5  A    between atoms: O_9  and  C_10
REMARK    6  A    between atoms: N_15  and  C_16
REMARK    7  A    between atoms: C_16  and  C_17
REMARK    8  A    between atoms: C_17  and  C_18
REMARK    9  A    between atoms: C_18  and  C_19
REMARK                            x       y       z     vdW  Elec       q    Type
REMARK                         _______ _______ _______ _____ _____    ______ ____
ROOT
ATOM      1  C   UNL     1       2.233   9.004  18.351  0.00  0.00    +0.000 C 
ATOM      2  O   UNL     1       2.376   9.978  17.624  0.00  0.00    +0.000 OA
ATOM      3  N   UNL     1       2.769   7.762  18.118  0.00  0.00    +0.000 N 
ATOM      4  C   UNL     1       3.572   7.529  16.925  0.00  0.00    +0.000 C 
ATOM      5  C   UNL     1       4.852   6.766  17.298  0.00  0.00    +0.000 C 
ATOM      6  N   UNL     1       4.605   5.501  18.035  0.00  0.00    +0.000 NA
ATOM      7  C   UNL     1       3.786   5.805  19.234  0.00  0.00    +0.000 C 
ATOM      8  C   UNL     1       2.489   6.578  18.935  0.00  0.00    +0.000 C 
ENDROOT
BRANCH   1   9
ATOM      9  O   UNL     1       1.455   9.005  19.458  0.00  0.00    +0.000 OA
BRANCH   9  10
ATOM     10  C   UNL     1       0.250   9.764  19.332  0.00  0.00    +0.000 C 
BRANCH  10  11
ATOM     11  C   UNL     1       0.528  11.074  20.061  0.00  0.00    +0.000 C 
BRANCH  11  15
ATOM     12  C   UNL     1      -2.460  12.041  23.011  0.00  0.00    +0.000 A 
ATOM     13  C   UNL     1      -2.414  12.740  21.800  0.00  0.00    +0.000 A 
ATOM     14  C   UNL     1      -1.442  12.429  20.846  0.00  0.00    +0.000 A 
ATOM     15  C   UNL     1      -0.512  11.410  21.093  0.00  0.00    +0.000 A 
ATOM     16  C   UNL     1      -0.554  10.718  22.310  0.00  0.00    +0.000 A 
ATOM     17  C   UNL     1      -1.529  11.030  23.263  0.00  0.00    +0.000 A 
BRANCH  12  19
ATOM     18  N   UNL     1      -4.269  12.614  24.774  0.00  0.00    +0.000 NA
ATOM     19  C   UNL     1      -3.461  12.356  23.987  0.00  0.00    +0.000 C 
ENDBRANCH  12  19
ENDBRANCH  11  15
ENDBRANCH  10  11
ENDBRANCH   9  10
ENDBRANCH   1   9
BRANCH   6  20
ATOM     20  C   UNL     1       3.978   4.462  17.202  0.00  0.00    +0.000 C 
BRANCH  20  21
ATOM     21  C   UNL     1       4.455   3.041  17.527  0.00  0.00    +0.000 C 
BRANCH  21  22
ATOM     22  C   UNL     1       3.295   2.084  17.805  0.00  0.00    +0.000 C 
BRANCH  22  23
ATOM     23  C   UNL     1       2.599   2.431  19.098  0.00  0.00    +0.000 A 
ATOM     24  C   UNL     1       1.258   2.836  19.098  0.00  0.00    +0.000 A 
ATOM     25  C   UNL     1       0.628   3.187  20.293  0.00  0.00    +0.000 A 
ATOM     26  C   UNL     1       1.335   3.140  21.494  0.00  0.00    +0.000 A 
ATOM     27  C   UNL     1       2.670   2.741  21.501  0.00  0.00    +0.000 A 
ATOM     28  C   UNL     1       3.301   2.389  20.308  0.00  0.00    +0.000 A 
ENDBRANCH  22  23
ENDBRANCH  21  22
ENDBRANCH  20  21
ENDBRANCH   6  20
TORSDOF 9
ENDMDL
MODEL 5
REMARK VINA RESULT:      -7.3      3.995      7.025
REMARK  Name = 
REMARK  9 active torsions:
REMARK  status: ('A' for Active; 'I' for Inactive)
REMARK    1  A    between atoms: C_2  and  C_3
REMARK    2  A    between atoms: C_6  and  C_7
REMARK    3  A    between atoms: C_7  and  C_8
REMARK    4  A    between atoms: C_8  and  O_9
REMARK    5  A    between atoms: O_9  and  C_10
REMARK    6  A    between atoms: N_15  and  C_16
REMARK    7  A    between atoms: C_16  and  C_17
REMARK    8  A    between atoms: C_17  and  C_18
REMARK    9  A    between atoms: C_18  and  C_19
REMARK                            x       y       z     vdW  Elec       q    Type
REMARK                         _______ _______ _______ _____ _____    ______ ____
ROOT
ATOM      1  C   UNL     1       1.539   8.098  20.518  0.00  0.00    +0.000 C 
ATOM      2  O   UNL     1       1.145   8.180  21.673  0.00  0.00    +0.000 OA
ATOM      3  N   UNL     1       2.062   6.967  19.943  0.00  0.00    +0.000 N 
ATOM      4  C   UNL     1       2.186   5.744  20.725  0.00  0.00    +0.000 C 
ATOM      5  C   UNL     1       1.664   4.550  19.912  0.00  0.00    +0.000 C 
ATOM      6  N   UNL     1       2.305   4.403  18.581  0.00  0.00    +0.000 NA
ATOM      7  C   UNL     1       2.146   5.676  17.836  0.00  0.00    +0.000 C 
ATOM      8  C   UNL     1       2.640   6.919  18.597  0.00  0.00    +0.000 C 
ENDROOT
BRANCH   1   9
ATOM      9  O   UNL     1       1.581   9.148  19.666  0.00  0.00    +0.000 OA
BRANCH   9  10
ATOM     10  C   UNL     1       0.312   9.760  19.420  0.00  0.00    +0.000 C 
BRANCH  10  11
ATOM     11  C   UNL     1       0.436  11.170  19.985  0.00  0.00    +0.000 C 
BRANCH  11  15
ATOM     12  C   UNL     1      -2.582  12.090  22.919  0.00  0.00    +0.000 A 
ATOM     13  C   UNL     1      -2.666  12.630  21.631  0.00  0.00    +0.000 A 
ATOM     14  C   UNL     1      -1.685  12.333  20.681  0.00  0.00    +0.000 A 
ATOM     15  C   UNL     1      -0.614  11.491  21.011  0.00  0.00    +0.000 A 
ATOM     16  C   UNL     1      -0.528  10.961  22.305  0.00  0.00    +0.000 A 
ATOM     17  C   UNL     1      -1.511  11.256  23.253  0.00  0.00    +0.000 A 
BRANCH  12  19
ATOM     18  N   UNL     1      -4.406  12.628  24.678  0.00  0.00    +0.000 NA
ATOM     19  C   UNL     1      -3.592  12.389  23.892  0.00  0.00    +0.000 C 
ENDBRANCH  12  19
ENDBRANCH  11  15
ENDBRANCH  10  11
ENDBRANCH   9  10
ENDBRANCH   1   9
BRANCH   6  20
ATOM     20  C   UNL     1       3.718   3.999  18.663  0.00  0.00    +0.000 C 
BRANCH  20  21
ATOM     21  C   UNL     1       4.214   3.240  17.425  0.00  0.00    +0.000 C 
BRANCH  21  22
ATOM     22  C   UNL     1       4.860   4.166  16.393  0.00  0.00    +0.000 C 
BRANCH  22  23
ATOM     23  C   UNL     1       5.855   5.097  17.042  0.00  0.00    +0.000 A 
ATOM     24  C   UNL     1       5.830   6.470  16.765  0.00  0.00    +0.000 A 
ATOM     25  C   UNL     1       6.772   7.322  17.342  0.00  0.00    +0.000 A 
ATOM     26  C   UNL     1       7.746   6.809  18.197  0.00  0.00    +0.000 A 
ATOM     27  C   UNL     1       7.779   5.444  18.475  0.00  0.00    +0.000 A 
ATOM     28  C   UNL     1       6.838   4.590  17.899  0.00  0.00    +0.000 A 
ENDBRANCH  22  23
ENDBRANCH  21  22
ENDBRANCH  20  21
ENDBRANCH   6  20
TORSDOF 9
ENDMDL
MODEL 6
REMARK VINA RESULT:      -7.2      2.698      8.044
REMARK  Name = 
REMARK  9 active torsions:
REMARK  status: ('A' for Active; 'I' for Inactive)
REMARK    1  A    between atoms: C_2  and  C_3
REMARK    2  A    between atoms: C_6  and  C_7
REMARK    3  A    between atoms: C_7  and  C_8
REMARK    4  A    between atoms: C_8  and  O_9
REMARK    5  A    between atoms: O_9  and  C_10
REMARK    6  A    between atoms: N_15  and  C_16
REMARK    7  A    between atoms: C_16  and  C_17
REMARK    8  A    between atoms: C_17  and  C_18
REMARK    9  A    between atoms: C_18  and  C_19
REMARK                            x       y       z     vdW  Elec       q    Type
REMARK                         _______ _______ _______ _____ _____    ______ ____
ROOT
ATOM      1  C   UNL     1       7.204   6.284  16.972  0.00  0.00    +0.000 C 
ATOM      2  O   UNL     1       7.703   6.227  15.857  0.00  0.00    +0.000 OA
ATOM      3  N   UNL     1       5.980   5.766  17.315  0.00  0.00    +0.000 N 
ATOM      4  C   UNL     1       5.168   5.094  16.310  0.00  0.00    +0.000 C 
ATOM      5  C   UNL     1       4.621   3.775  16.877  0.00  0.00    +0.000 C 
ATOM      6  N   UNL     1       3.876   3.932  18.152  0.00  0.00    +0.000 NA
ATOM      7  C   UNL     1       4.753   4.621  19.130  0.00  0.00    +0.000 C 
ATOM      8  C   UNL     1       5.346   5.948  18.624  0.00  0.00    +0.000 C 
ENDROOT
BRANCH   1   9
ATOM      9  O   UNL     1       7.770   6.939  18.012  0.00  0.00    +0.000 OA
BRANCH   9  10
ATOM     10  C   UNL     1       7.960   8.340  17.794  0.00  0.00    +0.000 C 
BRANCH  10  11
ATOM     11  C   UNL     1       8.897   8.790  18.910  0.00  0.00    +0.000 C 
BRANCH  11  15
ATOM     12  C   UNL     1       9.406  13.066  19.062  0.00  0.00    +0.000 A 
ATOM     13  C   UNL     1       8.986  12.449  17.879  0.00  0.00    +0.000 A 
ATOM     14  C   UNL     1       8.824  11.062  17.830  0.00  0.00    +0.000 A 
ATOM     15  C   UNL     1       9.078  10.281  18.966  0.00  0.00    +0.000 A 
ATOM     16  C   UNL     1       9.508  10.900  20.146  0.00  0.00    +0.000 A 
ATOM     17  C   UNL     1       9.667  12.289  20.194  0.00  0.00    +0.000 A 
BRANCH  12  19
ATOM     18  N   UNL     1       9.692  15.639  19.157  0.00  0.00    +0.000 NA
ATOM     19  C   UNL     1       9.566  14.489  19.114  0.00  0.00    +0.000 C 
ENDBRANCH  12  19
ENDBRANCH  11  15
ENDBRANCH  10  11
ENDBRANCH   9  10
ENDBRANCH   1   9
BRANCH   6  20
ATOM     20  C   UNL     1       2.594   4.637  17.987  0.00  0.00    +0.000 C 
BRANCH  20  21
ATOM     21  C   UNL     1       2.377   5.766  19.002  0.00  0.00    +0.000 C 
BRANCH  21  22
ATOM     22  C   UNL     1       2.284   7.140  18.337  0.00  0.00    +0.000 C 
BRANCH  22  23
ATOM     23  C   UNL     1       1.718   8.168  19.286  0.00  0.00    +0.000 A 
ATOM     24  C   UNL     1       1.583   7.879  20.650  0.00  0.00    +0.000 A 
ATOM     25  C   UNL     1       1.030   8.820  21.519  0.00  0.00    +0.000 A 
ATOM     26  C   UNL     1       0.606  10.055  21.031  0.00  0.00    +0.000 A 
ATOM     27  C   UNL     1       0.734  10.349  19.675  0.00  0.00    +0.000 A 
ATOM     28  C   UNL     1       1.287   9.409  18.804  0.00  0.00    +0.000 A 
ENDBRANCH  22  23
ENDBRANCH  21  22
ENDBRANCH  20  21
ENDBRANCH   6  20
TORSDOF 9
ENDMDL
MODEL 7
REMARK VINA RESULT:      -7.2      1.420      2.421
REMARK  Name = 
REMARK  9 active torsions:
REMARK  status: ('A' for Active; 'I' for Inactive)
REMARK    1  A    between atoms: C_2  and  C_3
REMARK    2  A    between atoms: C_6  and  C_7
REMARK    3  A    between atoms: C_7  and  C_8
REMARK    4  A    between atoms: C_8  and  O_9
REMARK    5  A    between atoms: O_9  and  C_10
REMARK    6  A    between atoms: N_15  and  C_16
REMARK    7  A    between atoms: C_16  and  C_17
REMARK    8  A    between atoms: C_17  and  C_18
REMARK    9  A    between atoms: C_18  and  C_19
REMARK                            x       y       z     vdW  Elec       q    Type
REMARK                         _______ _______ _______ _____ _____    ______ ____
ROOT
ATOM      1  C   UNL     1       4.300   3.734  18.423  0.00  0.00    +0.000 C 
ATOM      2  O   UNL     1       4.130   2.692  17.806  0.00  0.00    +0.000 OA
ATOM      3  N   UNL     1       5.194   4.716  18.077  0.00  0.00    +0.000 N 
ATOM      4  C   UNL     1       6.034   4.554  16.898  0.00  0.00    +0.000 C 
ATOM      5  C   UNL     1       6.022   5.845  16.066  0.00  0.00    +0.000 C 
ATOM      6  N   UNL     1       6.403   7.058  16.833  0.00  0.00    +0.000 NA
ATOM      7  C   UNL     1       5.515   7.167  18.016  0.00  0.00    +0.000 C 
ATOM      8  C   UNL     1       5.470   5.903  18.893  0.00  0.00    +0.000 C 
ENDROOT
BRANCH   1   9
ATOM      9  O   UNL     1       3.673   4.026  19.585  0.00  0.00    +0.000 OA
BRANCH   9  10
ATOM     10  C   UNL     1       2.256   4.180  19.470  0.00  0.00    +0.000 C 
BRANCH  10  11
ATOM     11  C   UNL     1       1.863   5.107  20.615  0.00  0.00    +0.000 C 
BRANCH  11  15
ATOM     12  C   UNL     1       1.430   9.220  19.407  0.00  0.00    +0.000 A 
ATOM     13  C   UNL     1       1.080   8.827  20.703  0.00  0.00    +0.000 A 
ATOM     14  C   UNL     1       1.218   7.492  21.093  0.00  0.00    +0.000 A 
ATOM     15  C   UNL     1       1.711   6.540  20.190  0.00  0.00    +0.000 A 
ATOM     16  C   UNL     1       2.051   6.935  18.890  0.00  0.00    +0.000 A 
ATOM     17  C   UNL     1       1.914   8.272  18.502  0.00  0.00    +0.000 A 
BRANCH  12  19
ATOM     18  N   UNL     1       1.188  11.697  18.688  0.00  0.00    +0.000 NA
ATOM     19  C   UNL     1       1.294  10.590  19.009  0.00  0.00    +0.000 C 
ENDBRANCH  12  19
ENDBRANCH  11  15
ENDBRANCH  10  11
ENDBRANCH   9  10
ENDBRANCH   1   9
BRANCH   6  20
ATOM     20  C   UNL     1       7.823   7.071  17.221  0.00  0.00    +0.000 C 
BRANCH  20  21
ATOM     21  C   UNL     1       8.159   8.118  18.291  0.00  0.00    +0.000 C 
BRANCH  21  22
ATOM     22  C   UNL     1       8.245   9.533  17.718  0.00  0.00    +0.000 C 
BRANCH  22  23
ATOM     23  C   UNL     1       9.230  10.375  18.490  0.00  0.00    +0.000 A 
ATOM     24  C   UNL     1      10.306  10.990  17.838  0.00  0.00    +0.000 A 
ATOM     25  C   UNL     1      11.233  11.742  18.562  0.00  0.00    +0.000 A 
ATOM     26  C   UNL     1      11.092  11.881  19.942  0.00  0.00    +0.000 A 
ATOM     27  C   UNL     1      10.026  11.270  20.598  0.00  0.00    +0.000 A 
ATOM     28  C   UNL     1       9.098  10.519  19.877  0.00  0.00    +0.000 A 
ENDBRANCH  22  23
ENDBRANCH  21  22
ENDBRANCH  20  21
ENDBRANCH   6  20
TORSDOF 9
ENDMDL
MODEL 8
REMARK VINA RESULT:      -7.1      3.249      9.398
REMARK  Name = 
REMARK  9 active torsions:
REMARK  status: ('A' for Active; 'I' for Inactive)
REMARK    1  A    between atoms: C_2  and  C_3
REMARK    2  A    between atoms: C_6  and  C_7
REMARK    3  A    between atoms: C_7  and  C_8
REMARK    4  A    between atoms: C_8  and  O_9
REMARK    5  A    between atoms: O_9  and  C_10
REMARK    6  A    between atoms: N_15  and  C_16
REMARK    7  A    between atoms: C_16  and  C_17
REMARK    8  A    between atoms: C_17  and  C_18
REMARK    9  A    between atoms: C_18  and  C_19
REMARK                            x       y       z     vdW  Elec       q    Type
REMARK                         _______ _______ _______ _____ _____    ______ ____
ROOT
ATOM      1  C   UNL     1       7.883   8.549  17.889  0.00  0.00    +0.000 C 
ATOM      2  O   UNL     1       7.590   9.459  17.126  0.00  0.00    +0.000 OA
ATOM      3  N   UNL     1       7.318   7.298  17.875  0.00  0.00    +0.000 N 
ATOM      4  C   UNL     1       6.282   6.978  16.903  0.00  0.00    +0.000 C 
ATOM      5  C   UNL     1       6.576   5.616  16.255  0.00  0.00    +0.000 C 
ATOM      6  N   UNL     1       6.755   4.512  17.231  0.00  0.00    +0.000 NA
ATOM      7  C   UNL     1       7.820   4.897  18.190  0.00  0.00    +0.000 C 
ATOM      8  C   UNL     1       7.595   6.259  18.872  0.00  0.00    +0.000 C 
ENDROOT
BRANCH   1   9
ATOM      9  O   UNL     1       8.762   8.681  18.909  0.00  0.00    +0.000 OA
BRANCH   9  10
ATOM     10  C   UNL     1       9.601   9.835  18.818  0.00  0.00    +0.000 C 
BRANCH  10  11
ATOM     11  C   UNL     1       9.252  10.676  20.042  0.00  0.00    +0.000 C 
BRANCH  11  15
ATOM     12  C   UNL     1      10.187  14.853  19.551  0.00  0.00    +0.000 A 
ATOM     13  C   UNL     1      10.916  14.070  20.453  0.00  0.00    +0.000 A 
ATOM     14  C   UNL     1      10.610  12.716  20.614  0.00  0.00    +0.000 A 
ATOM     15  C   UNL     1       9.575  12.134  19.870  0.00  0.00    +0.000 A 
ATOM     16  C   UNL     1       8.841  12.922  18.976  0.00  0.00    +0.000 A 
ATOM     17  C   UNL     1       9.150  14.276  18.814  0.00  0.00    +0.000 A 
BRANCH  12  19
ATOM     18  N   UNL     1      10.765  17.359  19.244  0.00  0.00    +0.000 NA
ATOM     19  C   UNL     1      10.506  16.240  19.382  0.00  0.00    +0.000 C 
ENDBRANCH  12  19
ENDBRANCH  11  15
ENDBRANCH  10  11
ENDBRANCH   9  10
ENDBRANCH   1   9
BRANCH   6  20
ATOM     20  C   UNL     1       5.509   4.149  17.925  0.00  0.00    +0.000 C 
BRANCH  20  21
ATOM     21  C   UNL     1       4.270   4.179  17.021  0.00  0.00    +0.000 C 
BRANCH  21  22
ATOM     22  C   UNL     1       3.173   5.098  17.563  0.00  0.00    +0.000 C 
BRANCH  22  23
ATOM     23  C   UNL     1       2.399   4.429  18.671  0.00  0.00    +0.000 A 
ATOM     24  C   UNL     1       2.486   4.902  19.987  0.00  0.00    +0.000 A 
ATOM     25  C   UNL     1       1.794   4.260  21.014  0.00  0.00    +0.000 A 
ATOM     26  C   UNL     1       1.013   3.139  20.735  0.00  0.00    +0.000 A 
ATOM     27  C   UNL     1       0.924   2.661  19.429  0.00  0.00    +0.000 A 
ATOM     28  C   UNL     1       1.615   3.302  18.401  0.00  0.00    +0.000 A 
ENDBRANCH  22  23
ENDBRANCH  21  22
ENDBRANCH  20  21
ENDBRANCH   6  20
TORSDOF 9
ENDMDL
MODEL 9
REMARK VINA RESULT:      -7.1      3.181      9.538
REMARK  Name = 
REMARK  9 active torsions:
REMARK  status: ('A' for Active; 'I' for Inactive)
REMARK    1  A    between atoms: C_2  and  C_3
REMARK    2  A    between atoms: C_6  and  C_7
REMARK    3  A    between atoms: C_7  and  C_8
REMARK    4  A    between atoms: C_8  and  O_9
REMARK    5  A    between atoms: O_9  and  C_10
REMARK    6  A    between atoms: N_15  and  C_16
REMARK    7  A    between atoms: C_16  and  C_17
REMARK    8  A    between atoms: C_17  and  C_18
REMARK    9  A    between atoms: C_18  and  C_19
REMARK                            x       y       z     vdW  Elec       q    Type
REMARK                         _______ _______ _______ _____ _____    ______ ____
ROOT
ATOM      1  C   UNL     1       8.117   7.494  18.492  0.00  0.00    +0.000 C 
ATOM      2  O   UNL     1       8.869   7.206  19.412  0.00  0.00    +0.000 OA
ATOM      3  N   UNL     1       7.088   6.707  18.040  0.00  0.00    +0.000 N 
ATOM      4  C   UNL     1       6.832   5.416  18.665  0.00  0.00    +0.000 C 
ATOM      5  C   UNL     1       5.329   5.259  18.941  0.00  0.00    +0.000 C 
ATOM      6  N   UNL     1       4.474   5.455  17.743  0.00  0.00    +0.000 NA
ATOM      7  C   UNL     1       4.781   6.781  17.155  0.00  0.00    +0.000 C 
ATOM      8  C   UNL     1       6.274   7.012  16.860  0.00  0.00    +0.000 C 
ENDROOT
BRANCH   1   9
ATOM      9  O   UNL     1       8.250   8.611  17.739  0.00  0.00    +0.000 OA
BRANCH   9  10
ATOM     10  C   UNL     1       8.805   9.730  18.435  0.00  0.00    +0.000 C 
BRANCH  10  11
ATOM     11  C   UNL     1       8.234  10.957  17.732  0.00  0.00    +0.000 C 
BRANCH  11  15
ATOM     12  C   UNL     1      10.792  14.413  17.996  0.00  0.00    +0.000 A 
ATOM     13  C   UNL     1       9.424  14.528  18.266  0.00  0.00    +0.000 A 
ATOM     14  C   UNL     1       8.594  13.407  18.177  0.00  0.00    +0.000 A 
ATOM     15  C   UNL     1       9.128  12.161  17.821  0.00  0.00    +0.000 A 
ATOM     16  C   UNL     1      10.496  12.051  17.543  0.00  0.00    +0.000 A 
ATOM     17  C   UNL     1      11.325  13.173  17.635  0.00  0.00    +0.000 A 
BRANCH  12  19
ATOM     18  N   UNL     1      12.332  16.488  18.172  0.00  0.00    +0.000 NA
ATOM     19  C   UNL     1      11.644  15.562  18.095  0.00  0.00    +0.000 C 
ENDBRANCH  12  19
ENDBRANCH  11  15
ENDBRANCH  10  11
ENDBRANCH   9  10
ENDBRANCH   1   9
BRANCH   6  20
ATOM     20  C   UNL     1       4.618   4.377  16.750  0.00  0.00    +0.000 C 
BRANCH  20  21
ATOM     21  C   UNL     1       4.234   2.992  17.285  0.00  0.00    +0.000 C 
BRANCH  21  22
ATOM     22  C   UNL     1       2.726   2.843  17.494  0.00  0.00    +0.000 C 
BRANCH  22  23
ATOM     23  C   UNL     1       2.368   2.926  18.957  0.00  0.00    +0.000 A 
ATOM     24  C   UNL     1       3.276   2.507  19.937  0.00  0.00    +0.000 A 
ATOM     25  C   UNL     1       2.928   2.555  21.288  0.00  0.00    +0.000 A 
ATOM     26  C   UNL     1       1.669   3.019  21.667  0.00  0.00    +0.000 A 
ATOM     27  C   UNL     1       0.759   3.434  20.698  0.00  0.00    +0.000 A 
ATOM     28  C   UNL     1       1.105   3.388  19.347  0.00  0.00    +0.000 A 
ENDBRANCH  22  23
ENDBRANCH  21  22
ENDBRANCH  20  21
ENDBRANCH   6  20
TORSDOF 9
ENDMDL
