MODEL 1
REMARK VINA RESULT:      -7.6      0.000      0.000
REMARK  Name = 
REMARK  2 active torsions:
REMARK  status: ('A' for Active; 'I' for Inactive)
REMARK    1  A    between atoms: C_1  and  N_2
REMARK    2  A    between atoms: C_16  and  N_17
REMARK                            x       y       z     vdW  Elec       q    Type
REMARK                         _______ _______ _______ _____ _____    ______ ____
ROOT
ATOM      1  C   UNL     1       0.659  12.399  18.900  0.00  0.00    +0.000 C 
ATOM      2  N   UNL     1       0.835  11.043  19.466  0.00  0.00    +0.000 N 
ATOM      3  C   UNL     1       1.481  10.148  18.702  0.00  0.00    +0.000 A 
ATOM      4  C   UNL     1       1.708   8.849  19.117  0.00  0.00    +0.000 A 
ATOM      5  C   UNL     1       1.264   8.439  20.379  0.00  0.00    +0.000 A 
ATOM      6  C   UNL     1       0.554   9.378  21.186  0.00  0.00    +0.000 A 
ATOM      7  C   UNL     1       0.028   9.074  22.468  0.00  0.00    +0.000 A 
ATOM      8  C   UNL     1      -0.665  10.019  23.233  0.00  0.00    +0.000 A 
ATOM      9  C   UNL     1      -0.857  11.298  22.742  0.00  0.00    +0.000 A 
ATOM     10  C   UNL     1      -0.356  11.638  21.488  0.00  0.00    +0.000 A 
ATOM     11  C   UNL     1       0.348  10.708  20.696  0.00  0.00    +0.000 A 
ATOM     12  N   UNL     1       1.472   7.100  20.797  0.00  0.00    +0.000 N 
ATOM     13  C   UNL     1       2.215   6.104  20.126  0.00  0.00    +0.000 A 
ATOM     14  C   UNL     1       2.410   4.854  20.731  0.00  0.00    +0.000 A 
ATOM     15  C   UNL     1       3.138   3.845  20.082  0.00  0.00    +0.000 A 
ATOM     16  C   UNL     1       3.640   4.039  18.797  0.00  0.00    +0.000 A 
ATOM     17  C   UNL     1       3.477   5.288  18.208  0.00  0.00    +0.000 A 
ATOM     18  C   UNL     1       2.749   6.303  18.846  0.00  0.00    +0.000 A 
ATOM     19  S   UNL     1       2.570   7.824  17.954  0.00  0.00    +0.000 S 
ATOM     20  H   UNL     1       1.271   6.881  21.763  0.00  0.00    +0.000 HD
ENDROOT
BRANCH  16  21
ATOM     21  N   UNL     1       4.488   3.100  18.204  0.00  0.00    +0.000 N 
ATOM     22  H   UNL     1       5.021   2.539  18.863  0.00  0.00    +0.000 HD
ATOM     23  H   UNL     1       4.046   2.532  17.487  0.00  0.00    +0.000 HD
ENDBRANCH  16  21
TORSDOF 1
ENDMDL
MODEL 2
REMARK VINA RESULT:      -7.4      1.125      6.516
REMARK  Name = 
REMARK  2 active torsions:
REMARK  status: ('A' for Active; 'I' for Inactive)
REMARK    1  A    between atoms: C_1  and  N_2
REMARK    2  A    between atoms: C_16  and  N_17
REMARK                            x       y       z     vdW  Elec       q    Type
REMARK                         _______ _______ _______ _____ _____    ______ ____
ROOT
ATOM      1  C   UNL     1       4.378   4.048  16.934  0.00  0.00    +0.000 C 
ATOM      2  N   UNL     1       3.637   4.772  17.991  0.00  0.00    +0.000 N 
ATOM      3  C   UNL     1       3.341   6.059  17.750  0.00  0.00    +0.000 A 
ATOM      4  C   UNL     1       2.655   6.841  18.658  0.00  0.00    +0.000 A 
ATOM      5  C   UNL     1       2.238   6.287  19.873  0.00  0.00    +0.000 A 
ATOM      6  C   UNL     1       2.571   4.926  20.148  0.00  0.00    +0.000 A 
ATOM      7  C   UNL     1       2.232   4.261  21.354  0.00  0.00    +0.000 A 
ATOM      8  C   UNL     1       2.576   2.925  21.591  0.00  0.00    +0.000 A 
ATOM      9  C   UNL     1       3.272   2.211  20.632  0.00  0.00    +0.000 A 
ATOM     10  C   UNL     1       3.623   2.827  19.433  0.00  0.00    +0.000 A 
ATOM     11  C   UNL     1       3.289   4.170  19.165  0.00  0.00    +0.000 A 
ATOM     12  N   UNL     1       1.556   7.094  20.819  0.00  0.00    +0.000 N 
ATOM     13  C   UNL     1       1.109   8.423  20.639  0.00  0.00    +0.000 A 
ATOM     14  C   UNL     1       0.355   9.046  21.644  0.00  0.00    +0.000 A 
ATOM     15  C   UNL     1      -0.095  10.366  21.493  0.00  0.00    +0.000 A 
ATOM     16  C   UNL     1       0.243  11.112  20.365  0.00  0.00    +0.000 A 
ATOM     17  C   UNL     1       0.962  10.487  19.354  0.00  0.00    +0.000 A 
ATOM     18  C   UNL     1       1.419   9.168  19.494  0.00  0.00    +0.000 A 
ATOM     19  S   UNL     1       2.375   8.518  18.150  0.00  0.00    +0.000 S 
ATOM     20  H   UNL     1       1.144   6.628  21.615  0.00  0.00    +0.000 HD
ENDROOT
BRANCH  16  21
ATOM     21  N   UNL     1      -0.320  12.372  20.138  0.00  0.00    +0.000 N 
ATOM     22  H   UNL     1       0.318  13.149  20.284  0.00  0.00    +0.000 HD
ATOM     23  H   UNL     1      -0.827  12.451  19.263  0.00  0.00    +0.000 HD
ENDBRANCH  16  21
TORSDOF 1
ENDMDL
MODEL 3
REMARK VINA RESULT:      -7.1      1.962      7.378
REMARK  Name = 
REMARK  2 active torsions:
REMARK  status: ('A' for Active; 'I' for Inactive)
REMARK    1  A    between atoms: C_1  and  N_2
REMARK    2  A    between atoms: C_16  and  N_17
REMARK                            x       y       z     vdW  Elec       q    Type
REMARK                         _______ _______ _______ _____ _____    ______ ____
ROOT
ATOM      1  C   UNL     1       4.451   2.804  19.454  0.00  0.00    +0.000 C 
ATOM      2  N   UNL     1       4.101   4.153  18.958  0.00  0.00    +0.000 N 
ATOM      3  C   UNL     1       3.251   4.872  19.708  0.00  0.00    +0.000 A 
ATOM      4  C   UNL     1       2.846   6.144  19.352  0.00  0.00    +0.000 A 
ATOM      5  C   UNL     1       3.338   6.723  18.177  0.00  0.00    +0.000 A 
ATOM      6  C   UNL     1       4.222   5.955  17.361  0.00  0.00    +0.000 A 
ATOM      7  C   UNL     1       4.763   6.418  16.134  0.00  0.00    +0.000 A 
ATOM      8  C   UNL     1       5.627   5.638  15.359  0.00  0.00    +0.000 A 
ATOM      9  C   UNL     1       5.979   4.368  15.782  0.00  0.00    +0.000 A 
ATOM     10  C   UNL     1       5.471   3.876  16.981  0.00  0.00    +0.000 A 
ATOM     11  C   UNL     1       4.600   4.639  17.785  0.00  0.00    +0.000 A 
ATOM     12  N   UNL     1       2.904   8.018  17.795  0.00  0.00    +0.000 N 
ATOM     13  C   UNL     1       2.094   8.900  18.545  0.00  0.00    +0.000 A 
ATOM     14  C   UNL     1       1.842  10.193  18.064  0.00  0.00    +0.000 A 
ATOM     15  C   UNL     1       1.035  11.085  18.785  0.00  0.00    +0.000 A 
ATOM     16  C   UNL     1       0.417  10.693  19.971  0.00  0.00    +0.000 A 
ATOM     17  C   UNL     1       0.691   9.423  20.466  0.00  0.00    +0.000 A 
ATOM     18  C   UNL     1       1.494   8.521  19.753  0.00  0.00    +0.000 A 
ATOM     19  S   UNL     1       1.711   6.917  20.475  0.00  0.00    +0.000 S 
ATOM     20  H   UNL     1       3.388   8.460  17.026  0.00  0.00    +0.000 HD
ENDROOT
BRANCH  16  21
ATOM     21  N   UNL     1      -0.266  11.615  20.769  0.00  0.00    +0.000 N 
ATOM     22  H   UNL     1       0.325  12.133  21.413  0.00  0.00    +0.000 HD
ATOM     23  H   UNL     1      -0.898  12.222  20.256  0.00  0.00    +0.000 HD
ENDBRANCH  16  21
TORSDOF 1
ENDMDL
MODEL 4
REMARK VINA RESULT:      -7.0      3.258      6.164
REMARK  Name = 
REMARK  2 active torsions:
REMARK  status: ('A' for Active; 'I' for Inactive)
REMARK    1  A    between atoms: C_1  and  N_2
REMARK    2  A    between atoms: C_16  and  N_17
REMARK                            x       y       z     vdW  Elec       q    Type
REMARK                         _______ _______ _______ _____ _____    ______ ____
ROOT
ATOM      1  C   UNL     1       1.778   7.048  20.776  0.00  0.00    +0.000 C 
ATOM      2  N   UNL     1       2.351   6.173  19.730  0.00  0.00    +0.000 N 
ATOM      3  C   UNL     1       3.264   6.722  18.914  0.00  0.00    +0.000 A 
ATOM      4  C   UNL     1       3.871   6.009  17.898  0.00  0.00    +0.000 A 
ATOM      5  C   UNL     1       3.540   4.663  17.704  0.00  0.00    +0.000 A 
ATOM      6  C   UNL     1       2.551   4.079  18.551  0.00  0.00    +0.000 A 
ATOM      7  C   UNL     1       2.108   2.736  18.435  0.00  0.00    +0.000 A 
ATOM      8  C   UNL     1       1.135   2.196  19.282  0.00  0.00    +0.000 A 
ATOM      9  C   UNL     1       0.569   2.979  20.272  0.00  0.00    +0.000 A 
ATOM     10  C   UNL     1       0.976   4.303  20.420  0.00  0.00    +0.000 A 
ATOM     11  C   UNL     1       1.955   4.874  19.584  0.00  0.00    +0.000 A 
ATOM     12  N   UNL     1       4.142   3.936  16.646  0.00  0.00    +0.000 N 
ATOM     13  C   UNL     1       5.177   4.376  15.791  0.00  0.00    +0.000 A 
ATOM     14  C   UNL     1       5.733   3.490  14.857  0.00  0.00    +0.000 A 
ATOM     15  C   UNL     1       6.757   3.904  13.992  0.00  0.00    +0.000 A 
ATOM     16  C   UNL     1       7.211   5.222  14.000  0.00  0.00    +0.000 A 
ATOM     17  C   UNL     1       6.684   6.093  14.946  0.00  0.00    +0.000 A 
ATOM     18  C   UNL     1       5.659   5.692  15.814  0.00  0.00    +0.000 A 
ATOM     19  S   UNL     1       5.042   6.924  16.929  0.00  0.00    +0.000 S 
ATOM     20  H   UNL     1       3.992   2.937  16.627  0.00  0.00    +0.000 HD
ENDROOT
BRANCH  16  21
ATOM     21  N   UNL     1       8.325   5.605  13.248  0.00  0.00    +0.000 N 
ATOM     22  H   UNL     1       9.044   4.892  13.168  0.00  0.00    +0.000 HD
ATOM     23  H   UNL     1       8.100   6.025  12.352  0.00  0.00    +0.000 HD
ENDBRANCH  16  21
TORSDOF 1
ENDMDL
MODEL 5
REMARK VINA RESULT:      -6.9      1.719      3.393
REMARK  Name = 
REMARK  2 active torsions:
REMARK  status: ('A' for Active; 'I' for Inactive)
REMARK    1  A    between atoms: C_1  and  N_2
REMARK    2  A    between atoms: C_16  and  N_17
REMARK                            x       y       z     vdW  Elec       q    Type
REMARK                         _______ _______ _______ _____ _____    ______ ____
ROOT
ATOM      1  C   UNL     1      -0.036   9.231  22.322  0.00  0.00    +0.000 C 
ATOM      2  N   UNL     1       0.713   8.566  21.233  0.00  0.00    +0.000 N 
ATOM      3  C   UNL     1       1.005   7.267  21.405  0.00  0.00    +0.000 A 
ATOM      4  C   UNL     1       1.701   6.536  20.461  0.00  0.00    +0.000 A 
ATOM      5  C   UNL     1       2.115   7.153  19.275  0.00  0.00    +0.000 A 
ATOM      6  C   UNL     1       1.830   8.540  19.097  0.00  0.00    +0.000 A 
ATOM      7  C   UNL     1       2.223   9.284  17.955  0.00  0.00    +0.000 A 
ATOM      8  C   UNL     1       1.928  10.644  17.813  0.00  0.00    +0.000 A 
ATOM      9  C   UNL     1       1.233  11.307  18.808  0.00  0.00    +0.000 A 
ATOM     10  C   UNL     1       0.828  10.614  19.946  0.00  0.00    +0.000 A 
ATOM     11  C   UNL     1       1.109   9.243  20.116  0.00  0.00    +0.000 A 
ATOM     12  N   UNL     1       2.852   6.412  18.316  0.00  0.00    +0.000 N 
ATOM     13  C   UNL     1       3.134   5.028  18.343  0.00  0.00    +0.000 A 
ATOM     14  C   UNL     1       3.790   4.430  17.258  0.00  0.00    +0.000 A 
ATOM     15  C   UNL     1       4.088   3.058  17.263  0.00  0.00    +0.000 A 
ATOM     16  C   UNL     1       3.790   2.266  18.369  0.00  0.00    +0.000 A 
ATOM     17  C   UNL     1       3.111   2.849  19.433  0.00  0.00    +0.000 A 
ATOM     18  C   UNL     1       2.809   4.218  19.440  0.00  0.00    +0.000 A 
ATOM     19  S   UNL     1       1.993   4.839  20.886  0.00  0.00    +0.000 S 
ATOM     20  H   UNL     1       3.005   6.844  17.416  0.00  0.00    +0.000 HD
ENDROOT
BRANCH  16  21
ATOM     21  N   UNL     1       3.948   0.877  18.326  0.00  0.00    +0.000 N 
ATOM     22  H   UNL     1       3.635   0.393  19.162  0.00  0.00    +0.000 HD
ATOM     23  H   UNL     1       3.598   0.444  17.478  0.00  0.00    +0.000 HD
ENDBRANCH  16  21
TORSDOF 1
ENDMDL
MODEL 6
REMARK VINA RESULT:      -6.6      1.857      7.138
REMARK  Name = 
REMARK  2 active torsions:
REMARK  status: ('A' for Active; 'I' for Inactive)
REMARK    1  A    between atoms: C_1  and  N_2
REMARK    2  A    between atoms: C_16  and  N_17
REMARK                            x       y       z     vdW  Elec       q    Type
REMARK                         _______ _______ _______ _____ _____    ______ ____
ROOT
ATOM      1  C   UNL     1       2.552   2.762  21.316  0.00  0.00    +0.000 C 
ATOM      2  N   UNL     1       2.573   3.979  20.475  0.00  0.00    +0.000 N 
ATOM      3  C   UNL     1       1.972   5.070  20.974  0.00  0.00    +0.000 A 
ATOM      4  C   UNL     1       1.924   6.267  20.286  0.00  0.00    +0.000 A 
ATOM      5  C   UNL     1       2.525   6.366  19.026  0.00  0.00    +0.000 A 
ATOM      6  C   UNL     1       3.143   5.202  18.477  0.00  0.00    +0.000 A 
ATOM      7  C   UNL     1       3.758   5.166  17.199  0.00  0.00    +0.000 A 
ATOM      8  C   UNL     1       4.355   4.007  16.691  0.00  0.00    +0.000 A 
ATOM      9  C   UNL     1       4.355   2.845  17.441  0.00  0.00    +0.000 A 
ATOM     10  C   UNL     1       3.762   2.837  18.701  0.00  0.00    +0.000 A 
ATOM     11  C   UNL     1       3.156   3.989  19.241  0.00  0.00    +0.000 A 
ATOM     12  N   UNL     1       2.454   7.585  18.305  0.00  0.00    +0.000 N 
ATOM     13  C   UNL     1       1.936   8.816  18.765  0.00  0.00    +0.000 A 
ATOM     14  C   UNL     1       2.037   9.958  17.957  0.00  0.00    +0.000 A 
ATOM     15  C   UNL     1       1.525  11.192  18.387  0.00  0.00    +0.000 A 
ATOM     16  C   UNL     1       0.854  11.303  19.603  0.00  0.00    +0.000 A 
ATOM     17  C   UNL     1       0.781  10.180  20.420  0.00  0.00    +0.000 A 
ATOM     18  C   UNL     1       1.287   8.942  20.000  0.00  0.00    +0.000 A 
ATOM     19  S   UNL     1       1.073   7.583  21.118  0.00  0.00    +0.000 S 
ATOM     20  H   UNL     1       3.020   7.663  17.472  0.00  0.00    +0.000 HD
ENDROOT
BRANCH  16  21
ATOM     21  N   UNL     1       0.471  12.551  20.105  0.00  0.00    +0.000 N 
ATOM     22  H   UNL     1       1.216  13.240  20.130  0.00  0.00    +0.000 HD
ATOM     23  H   UNL     1      -0.381  12.921  19.696  0.00  0.00    +0.000 HD
ENDBRANCH  16  21
TORSDOF 1
ENDMDL
MODEL 7
REMARK VINA RESULT:      -6.5      1.791      3.368
REMARK  Name = 
REMARK  2 active torsions:
REMARK  status: ('A' for Active; 'I' for Inactive)
REMARK    1  A    between atoms: C_1  and  N_2
REMARK    2  A    between atoms: C_16  and  N_17
REMARK                            x       y       z     vdW  Elec       q    Type
REMARK                         _______ _______ _______ _____ _____    ______ ____
ROOT
ATOM      1  C   UNL     1      -0.411   8.516  22.266  0.00  0.00    +0.000 C 
ATOM      2  N   UNL     1       0.484   8.468  21.089  0.00  0.00    +0.000 N 
ATOM      3  C   UNL     1       1.174   7.332  20.899  0.00  0.00    +0.000 A 
ATOM      4  C   UNL     1       2.042   7.164  19.837  0.00  0.00    +0.000 A 
ATOM      5  C   UNL     1       2.214   8.201  18.913  0.00  0.00    +0.000 A 
ATOM      6  C   UNL     1       1.504   9.421  19.123  0.00  0.00    +0.000 A 
ATOM      7  C   UNL     1       1.617  10.553  18.276  0.00  0.00    +0.000 A 
ATOM      8  C   UNL     1       0.906  11.735  18.512  0.00  0.00    +0.000 A 
ATOM      9  C   UNL     1       0.061  11.826  19.603  0.00  0.00    +0.000 A 
ATOM     10  C   UNL     1      -0.080  10.737  20.460  0.00  0.00    +0.000 A 
ATOM     11  C   UNL     1       0.621   9.533  20.247  0.00  0.00    +0.000 A 
ATOM     12  N   UNL     1       3.125   8.042  17.838  0.00  0.00    +0.000 N 
ATOM     13  C   UNL     1       3.828   6.868  17.484  0.00  0.00    +0.000 A 
ATOM     14  C   UNL     1       4.614   6.851  16.323  0.00  0.00    +0.000 A 
ATOM     15  C   UNL     1       5.328   5.701  15.954  0.00  0.00    +0.000 A 
ATOM     16  C   UNL     1       5.319   4.564  16.759  0.00  0.00    +0.000 A 
ATOM     17  C   UNL     1       4.516   4.567  17.894  0.00  0.00    +0.000 A 
ATOM     18  C   UNL     1       3.799   5.711  18.274  0.00  0.00    +0.000 A 
ATOM     19  S   UNL     1       2.862   5.592  19.774  0.00  0.00    +0.000 S 
ATOM     20  H   UNL     1       3.114   8.747  17.114  0.00  0.00    +0.000 HD
ENDROOT
BRANCH  16  21
ATOM     21  N   UNL     1       5.905   3.370  16.329  0.00  0.00    +0.000 N 
ATOM     22  H   UNL     1       5.553   3.026  15.440  0.00  0.00    +0.000 HD
ATOM     23  H   UNL     1       6.919   3.365  16.367  0.00  0.00    +0.000 HD
ENDBRANCH  16  21
TORSDOF 1
ENDMDL
MODEL 8
REMARK VINA RESULT:      -6.3      1.623      6.374
REMARK  Name = 
REMARK  2 active torsions:
REMARK  status: ('A' for Active; 'I' for Inactive)
REMARK    1  A    between atoms: C_1  and  N_2
REMARK    2  A    between atoms: C_16  and  N_17
REMARK                            x       y       z     vdW  Elec       q    Type
REMARK                         _______ _______ _______ _____ _____    ______ ____
ROOT
ATOM      1  C   UNL     1       4.215   6.555  16.609  0.00  0.00    +0.000 C 
ATOM      2  N   UNL     1       3.419   6.789  17.835  0.00  0.00    +0.000 N 
ATOM      3  C   UNL     1       2.924   8.024  18.009  0.00  0.00    +0.000 A 
ATOM      4  C   UNL     1       2.167   8.367  19.113  0.00  0.00    +0.000 A 
ATOM      5  C   UNL     1       1.888   7.403  20.088  0.00  0.00    +0.000 A 
ATOM      6  C   UNL     1       2.432   6.094  19.922  0.00  0.00    +0.000 A 
ATOM      7  C   UNL     1       2.247   5.041  20.854  0.00  0.00    +0.000 A 
ATOM      8  C   UNL     1       2.796   3.768  20.660  0.00  0.00    +0.000 A 
ATOM      9  C   UNL     1       3.550   3.507  19.530  0.00  0.00    +0.000 A 
ATOM     10  C   UNL     1       3.756   4.513  18.590  0.00  0.00    +0.000 A 
ATOM     11  C   UNL     1       3.214   5.803  18.756  0.00  0.00    +0.000 A 
ATOM     12  N   UNL     1       1.134   7.759  21.234  0.00  0.00    +0.000 N 
ATOM     13  C   UNL     1       0.486   8.991  21.479  0.00  0.00    +0.000 A 
ATOM     14  C   UNL     1      -0.311   9.143  22.623  0.00  0.00    +0.000 A 
ATOM     15  C   UNL     1      -0.958  10.359  22.892  0.00  0.00    +0.000 A 
ATOM     16  C   UNL     1      -0.784  11.462  22.060  0.00  0.00    +0.000 A 
ATOM     17  C   UNL     1      -0.021  11.304  20.908  0.00  0.00    +0.000 A 
ATOM     18  C   UNL     1       0.633  10.095  20.629  0.00  0.00    +0.000 A 
ATOM     19  S   UNL     1       1.619  10.054  19.157  0.00  0.00    +0.000 S 
ATOM     20  H   UNL     1       0.829   7.009  21.839  0.00  0.00    +0.000 HD
ENDROOT
BRANCH  16  21
ATOM     21  N   UNL     1      -1.537  12.627  22.237  0.00  0.00    +0.000 N 
ATOM     22  H   UNL     1      -1.061  13.361  22.753  0.00  0.00    +0.000 HD
ATOM     23  H   UNL     1      -1.974  12.974  21.390  0.00  0.00    +0.000 HD
ENDBRANCH  16  21
TORSDOF 1
ENDMDL
MODEL 9
REMARK VINA RESULT:      -6.3      8.658      9.349
REMARK  Name = 
REMARK  2 active torsions:
REMARK  status: ('A' for Active; 'I' for Inactive)
REMARK    1  A    between atoms: C_1  and  N_2
REMARK    2  A    between atoms: C_16  and  N_17
REMARK                            x       y       z     vdW  Elec       q    Type
REMARK                         _______ _______ _______ _____ _____    ______ ____
ROOT
ATOM      1  C   UNL     1       5.351  15.945  22.883  0.00  0.00    +0.000 C 
ATOM      2  N   UNL     1       6.348  14.963  22.403  0.00  0.00    +0.000 N 
ATOM      3  C   UNL     1       6.929  15.219  21.220  0.00  0.00    +0.000 A 
ATOM      4  C   UNL     1       7.875  14.379  20.665  0.00  0.00    +0.000 A 
ATOM      5  C   UNL     1       8.259  13.221  21.349  0.00  0.00    +0.000 A 
ATOM      6  C   UNL     1       7.627  12.928  22.595  0.00  0.00    +0.000 A 
ATOM      7  C   UNL     1       7.908  11.772  23.368  0.00  0.00    +0.000 A 
ATOM      8  C   UNL     1       7.268  11.515  24.586  0.00  0.00    +0.000 A 
ATOM      9  C   UNL     1       6.326  12.404  25.071  0.00  0.00    +0.000 A 
ATOM     10  C   UNL     1       6.021  13.552  24.344  0.00  0.00    +0.000 A 
ATOM     11  C   UNL     1       6.650  13.838  23.115  0.00  0.00    +0.000 A 
ATOM     12  N   UNL     1       9.210  12.343  20.769  0.00  0.00    +0.000 N 
ATOM     13  C   UNL     1       9.953  12.554  19.586  0.00  0.00    +0.000 A 
ATOM     14  C   UNL     1      10.934  11.627  19.205  0.00  0.00    +0.000 A 
ATOM     15  C   UNL     1      11.680  11.809  18.031  0.00  0.00    +0.000 A 
ATOM     16  C   UNL     1      11.429  12.886  17.184  0.00  0.00    +0.000 A 
ATOM     17  C   UNL     1      10.480  13.824  17.575  0.00  0.00    +0.000 A 
ATOM     18  C   UNL     1       9.726  13.652  18.746  0.00  0.00    +0.000 A 
ATOM     19  S   UNL     1       8.511  14.894  19.091  0.00  0.00    +0.000 S 
ATOM     20  H   UNL     1       9.570  11.600  21.352  0.00  0.00    +0.000 HD
ENDROOT
BRANCH  16  21
ATOM     21  N   UNL     1      12.261  13.157  16.094  0.00  0.00    +0.000 N 
ATOM     22  H   UNL     1      12.605  14.112  16.054  0.00  0.00    +0.000 HD
ATOM     23  H   UNL     1      13.002  12.477  15.956  0.00  0.00    +0.000 HD
ENDBRANCH  16  21
TORSDOF 1
ENDMDL
