MODEL 1
REMARK VINA RESULT:      -8.1      0.000      0.000
REMARK  Name = 
REMARK  8 active torsions:
REMARK  status: ('A' for Active; 'I' for Inactive)
REMARK    1  A    between atoms: C_1  and  C_2
REMARK    2  A    between atoms: C_2  and  C_3
REMARK    3  A    between atoms: C_3  and  S_4
REMARK    4  A    between atoms: S_4  and  N_7
REMARK    5  A    between atoms: C_10  and  C_11
REMARK    6  A    between atoms: C_10  and  C_23
REMARK    7  A    between atoms: C_11  and  N_12
REMARK    8  A    between atoms: C_13  and  C_15
REMARK                            x       y       z     vdW  Elec       q    Type
REMARK                         _______ _______ _______ _____ _____    ______ ____
ROOT
ATOM      1  N   UNL     1       5.508   6.278  17.687  0.00  0.00    +0.000 NA
ATOM      2  C   UNL     1       4.300   6.746  16.954  0.00  0.00    +0.000 C 
ATOM      3  C   UNL     1       3.321   7.405  17.926  0.00  0.00    +0.000 C 
ATOM      4  C   UNL     1       2.865   6.462  19.080  0.00  0.00    +0.000 C 
ATOM      5  C   UNL     1       4.181   5.994  19.756  0.00  0.00    +0.000 C 
ATOM      6  C   UNL     1       5.158   5.338  18.779  0.00  0.00    +0.000 C 
ENDROOT
BRANCH   4   7
ATOM      7  C   UNL     1       2.044   5.263  18.539  0.00  0.00    +0.000 C 
ATOM      8  O   UNL     1       1.815   5.179  17.333  0.00  0.00    +0.000 OA
ATOM      9  N   UNL     1       1.565   4.292  19.413  0.00  0.00    +0.000 N 
ATOM     10  C   UNL     1       1.644   4.226  20.880  0.00  0.00    +0.000 C 
ATOM     11  C   UNL     1       2.440   2.988  21.292  0.00  0.00    +0.000 C 
ATOM     12  O   UNL     1       1.800   1.804  20.800  0.00  0.00    +0.000 OA
ATOM     13  C   UNL     1       1.688   1.834  19.365  0.00  0.00    +0.000 C 
ATOM     14  C   UNL     1       0.937   3.081  18.869  0.00  0.00    +0.000 C 
ENDBRANCH   4   7
BRANCH   1  15
ATOM     15  S   UNL     1       6.739   5.694  16.633  0.00  0.00    +0.000 S 
ATOM     16  O   UNL     1       7.184   4.413  17.134  0.00  0.00    +0.000 OA
ATOM     17  O   UNL     1       7.669   6.776  16.393  0.00  0.00    +0.000 OA
BRANCH  15  18
ATOM     18  C   UNL     1       5.810   5.385  15.126  0.00  0.00    +0.000 C 
BRANCH  18  20
ATOM     19  C   UNL     1       6.012   3.671  13.264  0.00  0.00    +0.000 C 
ATOM     20  C   UNL     1       6.722   4.726  14.092  0.00  0.00    +0.000 C 
ENDBRANCH  18  20
ENDBRANCH  15  18
ENDBRANCH   1  15
BRANCH   4  21
ATOM     21  C   UNL     1       1.968   7.275  20.056  0.00  0.00    +0.000 C 
BRANCH  21  22
ATOM     22  N   UNL     1       1.601   8.598  19.575  0.00  0.00    +0.000 N 
ATOM     23  C   UNL     1       0.663   9.380  20.210  0.00  0.00    +0.000 C 
ATOM     24  O   UNL     1      -0.017   8.978  21.149  0.00  0.00    +0.000 OA
ATOM     25  H   UNL     1       2.212   9.044  18.900  0.00  0.00    +0.000 HD
BRANCH  23  26
ATOM     26  C   UNL     1       0.452  10.758  19.673  0.00  0.00    +0.000 A 
ATOM     27  C   UNL     1       1.177  11.787  20.303  0.00  0.00    +0.000 A 
ATOM     28  C   UNL     1       1.041  13.106  19.872  0.00  0.00    +0.000 A 
ATOM     29  C   UNL     1       0.190  13.397  18.814  0.00  0.00    +0.000 A 
ATOM     30  F   UNL     1       0.066  14.662  18.394  0.00  0.00    +0.000 F 
ATOM     31  C   UNL     1      -0.528  12.396  18.176  0.00  0.00    +0.000 A 
ATOM     32  C   UNL     1      -0.403  11.073  18.602  0.00  0.00    +0.000 A 
ATOM     33 CL   UNL     1      -1.325   9.905  17.715  0.00  0.00    +0.000 Cl
ENDBRANCH  23  26
ENDBRANCH  21  22
ENDBRANCH   4  21
TORSDOF 7
ENDMDL
MODEL 2
REMARK VINA RESULT:      -7.8      1.485      1.741
REMARK  Name = 
REMARK  8 active torsions:
REMARK  status: ('A' for Active; 'I' for Inactive)
REMARK    1  A    between atoms: C_1  and  C_2
REMARK    2  A    between atoms: C_2  and  C_3
REMARK    3  A    between atoms: C_3  and  S_4
REMARK    4  A    between atoms: S_4  and  N_7
REMARK    5  A    between atoms: C_10  and  C_11
REMARK    6  A    between atoms: C_10  and  C_23
REMARK    7  A    between atoms: C_11  and  N_12
REMARK    8  A    between atoms: C_13  and  C_15
REMARK                            x       y       z     vdW  Elec       q    Type
REMARK                         _______ _______ _______ _____ _____    ______ ____
ROOT
ATOM      1  N   UNL     1       6.002   5.711  17.202  0.00  0.00    +0.000 NA
ATOM      2  C   UNL     1       4.765   6.277  16.598  0.00  0.00    +0.000 C 
ATOM      3  C   UNL     1       3.972   7.047  17.655  0.00  0.00    +0.000 C 
ATOM      4  C   UNL     1       3.569   6.177  18.882  0.00  0.00    +0.000 C 
ATOM      5  C   UNL     1       4.905   5.598  19.418  0.00  0.00    +0.000 C 
ATOM      6  C   UNL     1       5.696   4.831  18.357  0.00  0.00    +0.000 C 
ENDROOT
BRANCH   4   7
ATOM      7  C   UNL     1       2.582   5.050  18.478  0.00  0.00    +0.000 C 
ATOM      8  O   UNL     1       2.459   4.749  17.291  0.00  0.00    +0.000 OA
ATOM      9  N   UNL     1       1.837   4.390  19.450  0.00  0.00    +0.000 N 
ATOM     10  C   UNL     1       1.758   4.629  20.898  0.00  0.00    +0.000 C 
ATOM     11  C   UNL     1       2.249   3.390  21.646  0.00  0.00    +0.000 C 
ATOM     12  O   UNL     1       1.437   2.259  21.311  0.00  0.00    +0.000 OA
ATOM     13  C   UNL     1       1.473   1.996  19.896  0.00  0.00    +0.000 C 
ATOM     14  C   UNL     1       1.037   3.219  19.070  0.00  0.00    +0.000 C 
ENDBRANCH   4   7
BRANCH   1  15
ATOM     15  S   UNL     1       7.041   4.989  16.033  0.00  0.00    +0.000 S 
ATOM     16  O   UNL     1       7.889   4.038  16.717  0.00  0.00    +0.000 OA
ATOM     17  O   UNL     1       7.597   6.048  15.219  0.00  0.00    +0.000 OA
BRANCH  15  18
ATOM     18  C   UNL     1       5.875   4.048  15.042  0.00  0.00    +0.000 C 
BRANCH  18  20
ATOM     19  C   UNL     1       5.312   3.429  12.645  0.00  0.00    +0.000 C 
ATOM     20  C   UNL     1       6.333   4.043  13.584  0.00  0.00    +0.000 C 
ENDBRANCH  18  20
ENDBRANCH  15  18
ENDBRANCH   1  15
BRANCH   4  21
ATOM     21  C   UNL     1       2.872   7.091  19.928  0.00  0.00    +0.000 C 
BRANCH  21  22
ATOM     22  N   UNL     1       1.845   7.962  19.377  0.00  0.00    +0.000 N 
ATOM     23  C   UNL     1       1.090   8.803  20.163  0.00  0.00    +0.000 C 
ATOM     24  O   UNL     1       1.139   8.794  21.389  0.00  0.00    +0.000 OA
ATOM     25  H   UNL     1       1.846   8.123  18.376  0.00  0.00    +0.000 HD
BRANCH  23  26
ATOM     26  C   UNL     1       0.140   9.717  19.462  0.00  0.00    +0.000 A 
ATOM     27  C   UNL     1      -0.233   9.342  18.157  0.00  0.00    +0.000 A 
ATOM     28  C   UNL     1      -1.114  10.137  17.423  0.00  0.00    +0.000 A 
ATOM     29  C   UNL     1      -1.624  11.297  17.991  0.00  0.00    +0.000 A 
ATOM     30  F   UNL     1      -2.476  12.055  17.291  0.00  0.00    +0.000 F 
ATOM     31  C   UNL     1      -1.275  11.680  19.278  0.00  0.00    +0.000 A 
ATOM     32  C   UNL     1      -0.390  10.894  20.019  0.00  0.00    +0.000 A 
ATOM     33 CL   UNL     1      -0.047  11.454  21.622  0.00  0.00    +0.000 Cl
ENDBRANCH  23  26
ENDBRANCH  21  22
ENDBRANCH   4  21
TORSDOF 7
ENDMDL
MODEL 3
REMARK VINA RESULT:      -7.7      1.210      1.363
REMARK  Name = 
REMARK  8 active torsions:
REMARK  status: ('A' for Active; 'I' for Inactive)
REMARK    1  A    between atoms: C_1  and  C_2
REMARK    2  A    between atoms: C_2  and  C_3
REMARK    3  A    between atoms: C_3  and  S_4
REMARK    4  A    between atoms: S_4  and  N_7
REMARK    5  A    between atoms: C_10  and  C_11
REMARK    6  A    between atoms: C_10  and  C_23
REMARK    7  A    between atoms: C_11  and  N_12
REMARK    8  A    between atoms: C_13  and  C_15
REMARK                            x       y       z     vdW  Elec       q    Type
REMARK                         _______ _______ _______ _____ _____    ______ ____
ROOT
ATOM      1  N   UNL     1       5.606   6.009  17.895  0.00  0.00    +0.000 NA
ATOM      2  C   UNL     1       4.482   6.374  16.990  0.00  0.00    +0.000 C 
ATOM      3  C   UNL     1       3.413   7.143  17.767  0.00  0.00    +0.000 C 
ATOM      4  C   UNL     1       2.835   6.348  18.977  0.00  0.00    +0.000 C 
ATOM      5  C   UNL     1       4.072   5.975  19.837  0.00  0.00    +0.000 C 
ATOM      6  C   UNL     1       5.140   5.210  19.055  0.00  0.00    +0.000 C 
ENDROOT
BRANCH   4   7
ATOM      7  C   UNL     1       2.066   5.085  18.509  0.00  0.00    +0.000 C 
ATOM      8  O   UNL     1       1.911   4.881  17.305  0.00  0.00    +0.000 OA
ATOM      9  N   UNL     1       1.551   4.192  19.444  0.00  0.00    +0.000 N 
ATOM     10  C   UNL     1       1.545   4.268  20.912  0.00  0.00    +0.000 C 
ATOM     11  C   UNL     1       2.334   3.092  21.486  0.00  0.00    +0.000 C 
ATOM     12  O   UNL     1       1.743   1.854  21.075  0.00  0.00    +0.000 OA
ATOM     13  C   UNL     1       1.715   1.743  19.640  0.00  0.00    +0.000 C 
ATOM     14  C   UNL     1       0.976   2.922  18.983  0.00  0.00    +0.000 C 
ENDBRANCH   4   7
BRANCH   1  15
ATOM     15  S   UNL     1       6.934   5.306  17.054  0.00  0.00    +0.000 S 
ATOM     16  O   UNL     1       7.698   4.523  18.000  0.00  0.00    +0.000 OA
ATOM     17  O   UNL     1       7.554   6.342  16.256  0.00  0.00    +0.000 OA
BRANCH  15  18
ATOM     18  C   UNL     1       6.101   4.153  15.957  0.00  0.00    +0.000 C 
BRANCH  18  20
ATOM     19  C   UNL     1       5.708   3.889  13.463  0.00  0.00    +0.000 C 
ATOM     20  C   UNL     1       6.694   4.264  14.554  0.00  0.00    +0.000 C 
ENDBRANCH  18  20
ENDBRANCH  15  18
ENDBRANCH   1  15
BRANCH   4  21
ATOM     21  C   UNL     1       1.849   7.269  19.747  0.00  0.00    +0.000 C 
BRANCH  21  22
ATOM     22  N   UNL     1       1.952   8.680  19.406  0.00  0.00    +0.000 N 
ATOM     23  C   UNL     1       1.008   9.604  19.792  0.00  0.00    +0.000 C 
ATOM     24  O   UNL     1      -0.044   9.294  20.342  0.00  0.00    +0.000 OA
ATOM     25  H   UNL     1       2.848   9.025  19.081  0.00  0.00    +0.000 HD
BRANCH  23  26
ATOM     26  C   UNL     1       1.284  11.035  19.464  0.00  0.00    +0.000 A 
ATOM     27  C   UNL     1       2.037  11.270  18.298  0.00  0.00    +0.000 A 
ATOM     28  C   UNL     1       2.347  12.574  17.914  0.00  0.00    +0.000 A 
ATOM     29  C   UNL     1       1.903  13.640  18.686  0.00  0.00    +0.000 A 
ATOM     30  F   UNL     1       2.192  14.892  18.313  0.00  0.00    +0.000 F 
ATOM     31  C   UNL     1       1.154  13.429  19.835  0.00  0.00    +0.000 A 
ATOM     32  C   UNL     1       0.842  12.127  20.231  0.00  0.00    +0.000 A 
ATOM     33 CL   UNL     1      -0.120  11.985  21.664  0.00  0.00    +0.000 Cl
ENDBRANCH  23  26
ENDBRANCH  21  22
ENDBRANCH   4  21
TORSDOF 7
ENDMDL
MODEL 4
REMARK VINA RESULT:      -7.6      1.462      1.609
REMARK  Name = 
REMARK  8 active torsions:
REMARK  status: ('A' for Active; 'I' for Inactive)
REMARK    1  A    between atoms: C_1  and  C_2
REMARK    2  A    between atoms: C_2  and  C_3
REMARK    3  A    between atoms: C_3  and  S_4
REMARK    4  A    between atoms: S_4  and  N_7
REMARK    5  A    between atoms: C_10  and  C_11
REMARK    6  A    between atoms: C_10  and  C_23
REMARK    7  A    between atoms: C_11  and  N_12
REMARK    8  A    between atoms: C_13  and  C_15
REMARK                            x       y       z     vdW  Elec       q    Type
REMARK                         _______ _______ _______ _____ _____    ______ ____
ROOT
ATOM      1  N   UNL     1       5.661   6.246  17.771  0.00  0.00    +0.000 NA
ATOM      2  C   UNL     1       4.392   6.651  17.107  0.00  0.00    +0.000 C 
ATOM      3  C   UNL     1       3.365   7.076  18.159  0.00  0.00    +0.000 C 
ATOM      4  C   UNL     1       3.046   5.960  19.198  0.00  0.00    +0.000 C 
ATOM      5  C   UNL     1       4.421   5.573  19.803  0.00  0.00    +0.000 C 
ATOM      6  C   UNL     1       5.445   5.152  18.748  0.00  0.00    +0.000 C 
ENDROOT
BRANCH   4   7
ATOM      7  C   UNL     1       2.355   4.744  18.528  0.00  0.00    +0.000 C 
ATOM      8  O   UNL     1       1.658   4.917  17.529  0.00  0.00    +0.000 OA
ATOM      9  N   UNL     1       2.519   3.467  19.057  0.00  0.00    +0.000 N 
ATOM     10  C   UNL     1       3.228   3.036  20.270  0.00  0.00    +0.000 C 
ATOM     11  C   UNL     1       4.372   2.099  19.885  0.00  0.00    +0.000 C 
ATOM     12  O   UNL     1       3.858   0.947  19.205  0.00  0.00    +0.000 OA
ATOM     13  C   UNL     1       3.140   1.325  18.015  0.00  0.00    +0.000 C 
ATOM     14  C   UNL     1       1.999   2.311  18.317  0.00  0.00    +0.000 C 
ENDBRANCH   4   7
BRANCH   1  15
ATOM     15  S   UNL     1       6.927   5.933  16.645  0.00  0.00    +0.000 S 
ATOM     16  O   UNL     1       7.543   4.675  17.004  0.00  0.00    +0.000 OA
ATOM     17  O   UNL     1       7.708   7.144  16.507  0.00  0.00    +0.000 OA
BRANCH  15  18
ATOM     18  C   UNL     1       6.005   5.663  15.127  0.00  0.00    +0.000 C 
BRANCH  18  20
ATOM     19  C   UNL     1       6.274   3.808  13.415  0.00  0.00    +0.000 C 
ATOM     20  C   UNL     1       5.915   4.164  14.845  0.00  0.00    +0.000 C 
ENDBRANCH  18  20
ENDBRANCH  15  18
ENDBRANCH   1  15
BRANCH   4  21
ATOM     21  C   UNL     1       2.084   6.546  20.270  0.00  0.00    +0.000 C 
BRANCH  21  22
ATOM     22  N   UNL     1       1.525   7.845  19.931  0.00  0.00    +0.000 N 
ATOM     23  C   UNL     1       1.210   8.785  20.886  0.00  0.00    +0.000 C 
ATOM     24  O   UNL     1       1.262   8.556  22.090  0.00  0.00    +0.000 OA
ATOM     25  H   UNL     1       1.585   8.151  18.967  0.00  0.00    +0.000 HD
BRANCH  23  26
ATOM     26  C   UNL     1       0.737  10.116  20.399  0.00  0.00    +0.000 A 
ATOM     27  C   UNL     1       1.176  10.499  19.118  0.00  0.00    +0.000 A 
ATOM     28  C   UNL     1       0.788  11.727  18.582  0.00  0.00    +0.000 A 
ATOM     29  C   UNL     1      -0.038  12.566  19.319  0.00  0.00    +0.000 A 
ATOM     30  F   UNL     1      -0.418  13.740  18.801  0.00  0.00    +0.000 F 
ATOM     31  C   UNL     1      -0.487  12.203  20.580  0.00  0.00    +0.000 A 
ATOM     32  C   UNL     1      -0.101  10.978  21.128  0.00  0.00    +0.000 A 
ATOM     33 CL   UNL     1      -0.743  10.618  22.696  0.00  0.00    +0.000 Cl
ENDBRANCH  23  26
ENDBRANCH  21  22
ENDBRANCH   4  21
TORSDOF 7
ENDMDL
MODEL 5
REMARK VINA RESULT:      -7.5      1.718      2.017
REMARK  Name = 
REMARK  8 active torsions:
REMARK  status: ('A' for Active; 'I' for Inactive)
REMARK    1  A    between atoms: C_1  and  C_2
REMARK    2  A    between atoms: C_2  and  C_3
REMARK    3  A    between atoms: C_3  and  S_4
REMARK    4  A    between atoms: S_4  and  N_7
REMARK    5  A    between atoms: C_10  and  C_11
REMARK    6  A    between atoms: C_10  and  C_23
REMARK    7  A    between atoms: C_11  and  N_12
REMARK    8  A    between atoms: C_13  and  C_15
REMARK                            x       y       z     vdW  Elec       q    Type
REMARK                         _______ _______ _______ _____ _____    ______ ____
ROOT
ATOM      1  N   UNL     1       4.964   6.761  17.665  0.00  0.00    +0.000 NA
ATOM      2  C   UNL     1       3.571   7.070  17.239  0.00  0.00    +0.000 C 
ATOM      3  C   UNL     1       2.683   7.278  18.468  0.00  0.00    +0.000 C 
ATOM      4  C   UNL     1       2.648   6.046  19.421  0.00  0.00    +0.000 C 
ATOM      5  C   UNL     1       4.134   5.772  19.775  0.00  0.00    +0.000 C 
ATOM      6  C   UNL     1       5.018   5.569  18.544  0.00  0.00    +0.000 C 
ENDROOT
BRANCH   4   7
ATOM      7  C   UNL     1       1.991   4.819  18.736  0.00  0.00    +0.000 C 
ATOM      8  O   UNL     1       1.217   4.992  17.795  0.00  0.00    +0.000 OA
ATOM      9  N   UNL     1       2.270   3.533  19.186  0.00  0.00    +0.000 N 
ATOM     10  C   UNL     1       3.088   3.092  20.326  0.00  0.00    +0.000 C 
ATOM     11  C   UNL     1       4.259   2.252  19.818  0.00  0.00    +0.000 C 
ATOM     12  O   UNL     1       3.773   1.103  19.115  0.00  0.00    +0.000 OA
ATOM     13  C   UNL     1       2.952   1.488  17.996  0.00  0.00    +0.000 C 
ATOM     14  C   UNL     1       1.775   2.380  18.423  0.00  0.00    +0.000 C 
ENDBRANCH   4   7
BRANCH   1  15
ATOM     15  S   UNL     1       6.063   6.700  16.340  0.00  0.00    +0.000 S 
ATOM     16  O   UNL     1       7.241   7.456  16.703  0.00  0.00    +0.000 OA
ATOM     17  O   UNL     1       5.322   6.990  15.132  0.00  0.00    +0.000 OA
BRANCH  15  18
ATOM     18  C   UNL     1       6.525   4.964  16.332  0.00  0.00    +0.000 C 
BRANCH  18  20
ATOM     19  C   UNL     1       6.036   3.882  14.088  0.00  0.00    +0.000 C 
ATOM     20  C   UNL     1       7.064   4.587  14.953  0.00  0.00    +0.000 C 
ENDBRANCH  18  20
ENDBRANCH  15  18
ENDBRANCH   1  15
BRANCH   4  21
ATOM     21  C   UNL     1       1.810   6.417  20.676  0.00  0.00    +0.000 C 
BRANCH  21  22
ATOM     22  N   UNL     1       1.487   7.831  20.787  0.00  0.00    +0.000 N 
ATOM     23  C   UNL     1       0.250   8.277  21.193  0.00  0.00    +0.000 C 
ATOM     24  O   UNL     1      -0.704   7.525  21.373  0.00  0.00    +0.000 OA
ATOM     25  H   UNL     1       2.253   8.495  20.790  0.00  0.00    +0.000 HD
BRANCH  23  26
ATOM     26  C   UNL     1       0.079   9.751  21.361  0.00  0.00    +0.000 A 
ATOM     27  C   UNL     1      -0.529  10.172  22.559  0.00  0.00    +0.000 A 
ATOM     28  C   UNL     1      -0.732  11.530  22.802  0.00  0.00    +0.000 A 
ATOM     29  C   UNL     1      -0.326  12.464  21.858  0.00  0.00    +0.000 A 
ATOM     30  F   UNL     1      -0.513  13.767  22.095  0.00  0.00    +0.000 F 
ATOM     31  C   UNL     1       0.281  12.069  20.675  0.00  0.00    +0.000 A 
ATOM     32  C   UNL     1       0.485  10.712  20.419  0.00  0.00    +0.000 A 
ATOM     33 CL   UNL     1       1.276  10.338  18.924  0.00  0.00    +0.000 Cl
ENDBRANCH  23  26
ENDBRANCH  21  22
ENDBRANCH   4  21
TORSDOF 7
ENDMDL
MODEL 6
REMARK VINA RESULT:      -7.4      1.956      2.542
REMARK  Name = 
REMARK  8 active torsions:
REMARK  status: ('A' for Active; 'I' for Inactive)
REMARK    1  A    between atoms: C_1  and  C_2
REMARK    2  A    between atoms: C_2  and  C_3
REMARK    3  A    between atoms: C_3  and  S_4
REMARK    4  A    between atoms: S_4  and  N_7
REMARK    5  A    between atoms: C_10  and  C_11
REMARK    6  A    between atoms: C_10  and  C_23
REMARK    7  A    between atoms: C_11  and  N_12
REMARK    8  A    between atoms: C_13  and  C_15
REMARK                            x       y       z     vdW  Elec       q    Type
REMARK                         _______ _______ _______ _____ _____    ______ ____
ROOT
ATOM      1  N   UNL     1       5.653   6.351  18.053  0.00  0.00    +0.000 NA
ATOM      2  C   UNL     1       4.727   6.369  16.887  0.00  0.00    +0.000 C 
ATOM      3  C   UNL     1       3.419   7.063  17.269  0.00  0.00    +0.000 C 
ATOM      4  C   UNL     1       2.689   6.391  18.470  0.00  0.00    +0.000 C 
ATOM      5  C   UNL     1       3.735   6.378  19.616  0.00  0.00    +0.000 C 
ATOM      6  C   UNL     1       5.042   5.685  19.229  0.00  0.00    +0.000 C 
ENDROOT
BRANCH   4   7
ATOM      7  C   UNL     1       2.216   4.958  18.114  0.00  0.00    +0.000 C 
ATOM      8  O   UNL     1       2.396   4.525  16.977  0.00  0.00    +0.000 OA
ATOM      9  N   UNL     1       1.588   4.170  19.074  0.00  0.00    +0.000 N 
ATOM     10  C   UNL     1       1.200   4.498  20.453  0.00  0.00    +0.000 C 
ATOM     11  C   UNL     1       1.949   3.585  21.424  0.00  0.00    +0.000 C 
ATOM     12  O   UNL     1       1.629   2.214  21.157  0.00  0.00    +0.000 OA
ATOM     13  C   UNL     1       1.979   1.853  19.809  0.00  0.00    +0.000 C 
ATOM     14  C   UNL     1       1.299   2.762  18.771  0.00  0.00    +0.000 C 
ENDBRANCH   4   7
BRANCH   1  15
ATOM     15  S   UNL     1       7.217   5.754  17.649  0.00  0.00    +0.000 S 
ATOM     16  O   UNL     1       7.370   5.839  16.214  0.00  0.00    +0.000 OA
ATOM     17  O   UNL     1       7.414   4.507  18.357  0.00  0.00    +0.000 OA
BRANCH  15  18
ATOM     18  C   UNL     1       8.282   7.005  18.375  0.00  0.00    +0.000 C 
BRANCH  18  20
ATOM     19  C   UNL     1       8.678   9.512  18.459  0.00  0.00    +0.000 C 
ATOM     20  C   UNL     1       7.942   8.371  17.781  0.00  0.00    +0.000 C 
ENDBRANCH  18  20
ENDBRANCH  15  18
ENDBRANCH   1  15
BRANCH   4  21
ATOM     21  C   UNL     1       1.443   7.247  18.831  0.00  0.00    +0.000 C 
BRANCH  21  22
ATOM     22  N   UNL     1       1.737   8.638  19.142  0.00  0.00    +0.000 N 
ATOM     23  C   UNL     1       1.043   9.683  18.577  0.00  0.00    +0.000 C 
ATOM     24  O   UNL     1       0.214   9.530  17.686  0.00  0.00    +0.000 OA
ATOM     25  H   UNL     1       2.304   8.832  19.960  0.00  0.00    +0.000 HD
BRANCH  23  26
ATOM     26  C   UNL     1       1.377  11.058  19.057  0.00  0.00    +0.000 A 
ATOM     27  C   UNL     1       2.159  11.844  18.190  0.00  0.00    +0.000 A 
ATOM     28  C   UNL     1       2.523  13.140  18.555  0.00  0.00    +0.000 A 
ATOM     29  C   UNL     1       2.103  13.652  19.776  0.00  0.00    +0.000 A 
ATOM     30  F   UNL     1       2.444  14.898  20.123  0.00  0.00    +0.000 F 
ATOM     31  C   UNL     1       1.326  12.895  20.641  0.00  0.00    +0.000 A 
ATOM     32  C   UNL     1       0.960  11.595  20.288  0.00  0.00    +0.000 A 
ATOM     33 CL   UNL     1      -0.033  10.754  21.431  0.00  0.00    +0.000 Cl
ENDBRANCH  23  26
ENDBRANCH  21  22
ENDBRANCH   4  21
TORSDOF 7
ENDMDL
MODEL 7
REMARK VINA RESULT:      -7.4      2.434      4.994
REMARK  Name = 
REMARK  8 active torsions:
REMARK  status: ('A' for Active; 'I' for Inactive)
REMARK    1  A    between atoms: C_1  and  C_2
REMARK    2  A    between atoms: C_2  and  C_3
REMARK    3  A    between atoms: C_3  and  S_4
REMARK    4  A    between atoms: S_4  and  N_7
REMARK    5  A    between atoms: C_10  and  C_11
REMARK    6  A    between atoms: C_10  and  C_23
REMARK    7  A    between atoms: C_11  and  N_12
REMARK    8  A    between atoms: C_13  and  C_15
REMARK                            x       y       z     vdW  Elec       q    Type
REMARK                         _______ _______ _______ _____ _____    ______ ____
ROOT
ATOM      1  N   UNL     1       1.603   4.105  19.039  0.00  0.00    +0.000 NA
ATOM      2  C   UNL     1       2.255   4.883  20.128  0.00  0.00    +0.000 C 
ATOM      3  C   UNL     1       2.323   6.362  19.745  0.00  0.00    +0.000 C 
ATOM      4  C   UNL     1       3.098   6.623  18.419  0.00  0.00    +0.000 C 
ATOM      5  C   UNL     1       2.380   5.746  17.358  0.00  0.00    +0.000 C 
ATOM      6  C   UNL     1       2.312   4.269  17.746  0.00  0.00    +0.000 C 
ENDROOT
BRANCH   4   7
ATOM      7  C   UNL     1       4.595   6.243  18.553  0.00  0.00    +0.000 C 
ATOM      8  O   UNL     1       5.049   5.949  19.659  0.00  0.00    +0.000 OA
ATOM      9  N   UNL     1       5.420   6.240  17.433  0.00  0.00    +0.000 N 
ATOM     10  C   UNL     1       5.124   6.627  16.046  0.00  0.00    +0.000 C 
ATOM     11  C   UNL     1       5.306   5.418  15.130  0.00  0.00    +0.000 C 
ATOM     12  O   UNL     1       6.653   4.939  15.208  0.00  0.00    +0.000 OA
ATOM     13  C   UNL     1       6.992   4.561  16.555  0.00  0.00    +0.000 C 
ATOM     14  C   UNL     1       6.787   5.717  17.549  0.00  0.00    +0.000 C 
ENDBRANCH   4   7
BRANCH   1  15
ATOM     15  S   UNL     1       1.320   2.463  19.475  0.00  0.00    +0.000 S 
ATOM     16  O   UNL     1       0.122   2.021  18.796  0.00  0.00    +0.000 OA
ATOM     17  O   UNL     1       1.459   2.353  20.911  0.00  0.00    +0.000 OA
BRANCH  15  18
ATOM     18  C   UNL     1       2.711   1.635  18.695  0.00  0.00    +0.000 C 
BRANCH  18  20
ATOM     19  C   UNL     1       4.835   2.656  19.641  0.00  0.00    +0.000 C 
ATOM     20  C   UNL     1       3.853   1.500  19.701  0.00  0.00    +0.000 C 
ENDBRANCH  18  20
ENDBRANCH  15  18
ENDBRANCH   1  15
BRANCH   4  21
ATOM     21  C   UNL     1       3.001   8.138  18.081  0.00  0.00    +0.000 C 
BRANCH  21  22
ATOM     22  N   UNL     1       1.721   8.747  18.408  0.00  0.00    +0.000 N 
ATOM     23  C   UNL     1       1.490  10.097  18.273  0.00  0.00    +0.000 C 
ATOM     24  O   UNL     1       2.372  10.899  17.985  0.00  0.00    +0.000 OA
ATOM     25  H   UNL     1       0.919   8.137  18.516  0.00  0.00    +0.000 HD
BRANCH  23  26
ATOM     26  C   UNL     1       0.103  10.579  18.547  0.00  0.00    +0.000 A 
ATOM     27  C   UNL     1      -0.902  10.100  17.685  0.00  0.00    +0.000 A 
ATOM     28  C   UNL     1      -2.227  10.499  17.862  0.00  0.00    +0.000 A 
ATOM     29  C   UNL     1      -2.548  11.367  18.897  0.00  0.00    +0.000 A 
ATOM     30  F   UNL     1      -3.820  11.743  19.073  0.00  0.00    +0.000 F 
ATOM     31  C   UNL     1      -1.574  11.844  19.761  0.00  0.00    +0.000 A 
ATOM     32  C   UNL     1      -0.244  11.455  19.591  0.00  0.00    +0.000 A 
ATOM     33 CL   UNL     1       0.882  12.091  20.744  0.00  0.00    +0.000 Cl
ENDBRANCH  23  26
ENDBRANCH  21  22
ENDBRANCH   4  21
TORSDOF 7
ENDMDL
MODEL 8
REMARK VINA RESULT:      -7.3      1.274      1.781
REMARK  Name = 
REMARK  8 active torsions:
REMARK  status: ('A' for Active; 'I' for Inactive)
REMARK    1  A    between atoms: C_1  and  C_2
REMARK    2  A    between atoms: C_2  and  C_3
REMARK    3  A    between atoms: C_3  and  S_4
REMARK    4  A    between atoms: S_4  and  N_7
REMARK    5  A    between atoms: C_10  and  C_11
REMARK    6  A    between atoms: C_10  and  C_23
REMARK    7  A    between atoms: C_11  and  N_12
REMARK    8  A    between atoms: C_13  and  C_15
REMARK                            x       y       z     vdW  Elec       q    Type
REMARK                         _______ _______ _______ _____ _____    ______ ____
ROOT
ATOM      1  N   UNL     1       5.273   6.256  17.531  0.00  0.00    +0.000 NA
ATOM      2  C   UNL     1       4.022   6.740  16.885  0.00  0.00    +0.000 C 
ATOM      3  C   UNL     1       3.137   7.440  17.918  0.00  0.00    +0.000 C 
ATOM      4  C   UNL     1       2.751   6.529  19.121  0.00  0.00    +0.000 C 
ATOM      5  C   UNL     1       4.105   6.041  19.702  0.00  0.00    +0.000 C 
ATOM      6  C   UNL     1       4.988   5.344  18.666  0.00  0.00    +0.000 C 
ENDROOT
BRANCH   4   7
ATOM      7  C   UNL     1       1.863   5.340  18.670  0.00  0.00    +0.000 C 
ATOM      8  O   UNL     1       1.485   5.275  17.501  0.00  0.00    +0.000 OA
ATOM      9  N   UNL     1       1.493   4.357  19.582  0.00  0.00    +0.000 N 
ATOM     10  C   UNL     1       1.755   4.267  21.026  0.00  0.00    +0.000 C 
ATOM     11  C   UNL     1       2.591   3.021  21.316  0.00  0.00    +0.000 C 
ATOM     12  O   UNL     1       1.889   1.847  20.890  0.00  0.00    +0.000 OA
ATOM     13  C   UNL     1       1.598   1.899  19.482  0.00  0.00    +0.000 C 
ATOM     14  C   UNL     1       0.797   3.156  19.102  0.00  0.00    +0.000 C 
ENDBRANCH   4   7
BRANCH   1  15
ATOM     15  S   UNL     1       6.404   5.624  16.396  0.00  0.00    +0.000 S 
ATOM     16  O   UNL     1       5.886   5.865  15.068  0.00  0.00    +0.000 OA
ATOM     17  O   UNL     1       6.776   4.296  16.832  0.00  0.00    +0.000 OA
BRANCH  15  18
ATOM     18  C   UNL     1       7.805   6.723  16.630  0.00  0.00    +0.000 C 
BRANCH  18  20
ATOM     19  C   UNL     1       7.987   8.964  17.810  0.00  0.00    +0.000 C 
ATOM     20  C   UNL     1       7.637   7.493  17.939  0.00  0.00    +0.000 C 
ENDBRANCH  18  20
ENDBRANCH  15  18
ENDBRANCH   1  15
BRANCH   4  21
ATOM     21  C   UNL     1       1.952   7.380  20.148  0.00  0.00    +0.000 C 
BRANCH  21  22
ATOM     22  N   UNL     1       1.508   8.670  19.644  0.00  0.00    +0.000 N 
ATOM     23  C   UNL     1       0.508   9.395  20.250  0.00  0.00    +0.000 C 
ATOM     24  O   UNL     1      -0.163   8.959  21.180  0.00  0.00    +0.000 OA
ATOM     25  H   UNL     1       2.101   9.148  18.975  0.00  0.00    +0.000 HD
BRANCH  23  26
ATOM     26  C   UNL     1       0.217  10.749  19.692  0.00  0.00    +0.000 A 
ATOM     27  C   UNL     1       1.054  11.794  20.129  0.00  0.00    +0.000 A 
ATOM     28  C   UNL     1       0.855  13.093  19.663  0.00  0.00    +0.000 A 
ATOM     29  C   UNL     1      -0.170  13.349  18.763  0.00  0.00    +0.000 A 
ATOM     30  F   UNL     1      -0.355  14.595  18.309  0.00  0.00    +0.000 F 
ATOM     31  C   UNL     1      -1.001  12.333  18.315  0.00  0.00    +0.000 A 
ATOM     32  C   UNL     1      -0.815  11.029  18.777  0.00  0.00    +0.000 A 
ATOM     33 CL   UNL     1      -1.893   9.838  18.131  0.00  0.00    +0.000 Cl
ENDBRANCH  23  26
ENDBRANCH  21  22
ENDBRANCH   4  21
TORSDOF 7
ENDMDL
MODEL 9
REMARK VINA RESULT:      -7.3      1.211      1.345
REMARK  Name = 
REMARK  8 active torsions:
REMARK  status: ('A' for Active; 'I' for Inactive)
REMARK    1  A    between atoms: C_1  and  C_2
REMARK    2  A    between atoms: C_2  and  C_3
REMARK    3  A    between atoms: C_3  and  S_4
REMARK    4  A    between atoms: S_4  and  N_7
REMARK    5  A    between atoms: C_10  and  C_11
REMARK    6  A    between atoms: C_10  and  C_23
REMARK    7  A    between atoms: C_11  and  N_12
REMARK    8  A    between atoms: C_13  and  C_15
REMARK                            x       y       z     vdW  Elec       q    Type
REMARK                         _______ _______ _______ _____ _____    ______ ____
ROOT
ATOM      1  N   UNL     1       5.654   6.176  17.688  0.00  0.00    +0.000 NA
ATOM      2  C   UNL     1       4.394   6.581  17.006  0.00  0.00    +0.000 C 
ATOM      3  C   UNL     1       3.374   7.063  18.038  0.00  0.00    +0.000 C 
ATOM      4  C   UNL     1       3.030   5.993  19.117  0.00  0.00    +0.000 C 
ATOM      5  C   UNL     1       4.397   5.602  19.740  0.00  0.00    +0.000 C 
ATOM      6  C   UNL     1       5.415   5.123  18.705  0.00  0.00    +0.000 C 
ENDROOT
BRANCH   4   7
ATOM      7  C   UNL     1       2.319   4.765  18.490  0.00  0.00    +0.000 C 
ATOM      8  O   UNL     1       1.605   4.919  17.499  0.00  0.00    +0.000 OA
ATOM      9  N   UNL     1       2.483   3.501  19.047  0.00  0.00    +0.000 N 
ATOM     10  C   UNL     1       3.211   3.094  20.258  0.00  0.00    +0.000 C 
ATOM     11  C   UNL     1       4.341   2.139  19.875  0.00  0.00    +0.000 C 
ATOM     12  O   UNL     1       3.806   0.975  19.233  0.00  0.00    +0.000 OA
ATOM     13  C   UNL     1       3.070   1.329  18.048  0.00  0.00    +0.000 C 
ATOM     14  C   UNL     1       1.941   2.331  18.345  0.00  0.00    +0.000 C 
ENDBRANCH   4   7
BRANCH   1  15
ATOM     15  S   UNL     1       6.917   5.799  16.579  0.00  0.00    +0.000 S 
ATOM     16  O   UNL     1       7.491   4.531  16.971  0.00  0.00    +0.000 OA
ATOM     17  O   UNL     1       7.736   6.981  16.418  0.00  0.00    +0.000 OA
BRANCH  15  18
ATOM     18  C   UNL     1       5.997   5.522  15.061  0.00  0.00    +0.000 C 
BRANCH  18  20
ATOM     19  C   UNL     1       7.631   5.063  13.173  0.00  0.00    +0.000 C 
ATOM     20  C   UNL     1       6.709   4.465  14.219  0.00  0.00    +0.000 C 
ENDBRANCH  18  20
ENDBRANCH  15  18
ENDBRANCH   1  15
BRANCH   4  21
ATOM     21  C   UNL     1       2.077   6.635  20.163  0.00  0.00    +0.000 C 
BRANCH  21  22
ATOM     22  N   UNL     1       1.791   8.043  19.933  0.00  0.00    +0.000 N 
ATOM     23  C   UNL     1       0.828   8.726  20.639  0.00  0.00    +0.000 C 
ATOM     24  O   UNL     1       0.060   8.177  21.424  0.00  0.00    +0.000 OA
ATOM     25  H   UNL     1       2.469   8.585  19.409  0.00  0.00    +0.000 HD
BRANCH  23  26
ATOM     26  C   UNL     1       0.703  10.191  20.376  0.00  0.00    +0.000 A 
ATOM     27  C   UNL     1       0.290  10.983  21.464  0.00  0.00    +0.000 A 
ATOM     28  C   UNL     1       0.142  12.361  21.312  0.00  0.00    +0.000 A 
ATOM     29  C   UNL     1       0.412  12.948  20.083  0.00  0.00    +0.000 A 
ATOM     30  F   UNL     1       0.280  14.272  19.939  0.00  0.00    +0.000 F 
ATOM     31  C   UNL     1       0.828  12.186  19.001  0.00  0.00    +0.000 A 
ATOM     32  C   UNL     1       0.974  10.804  19.140  0.00  0.00    +0.000 A 
ATOM     33 CL   UNL     1       1.524   9.958  17.733  0.00  0.00    +0.000 Cl
ENDBRANCH  23  26
ENDBRANCH  21  22
ENDBRANCH   4  21
TORSDOF 7
ENDMDL
