MODEL 1
REMARK VINA RESULT:      -7.7      0.000      0.000
REMARK  Name = 
REMARK  5 active torsions:
REMARK  status: ('A' for Active; 'I' for Inactive)
REMARK    1  A    between atoms: C_1  and  C_2
REMARK    2  A    between atoms: C_7  and  O_8
REMARK    3  A    between atoms: C_9  and  O_10
REMARK    4  A    between atoms: C_18  and  C_19
REMARK    5  A    between atoms: C_18  and  O_20
REMARK                            x       y       z     vdW  Elec       q    Type
REMARK                         _______ _______ _______ _____ _____    ______ ____
ROOT
ATOM      1  C   UNL     1       1.466   7.714  21.257  0.00  0.00    +0.000 C 
ATOM      2  C   UNL     1       1.483   7.559  19.728  0.00  0.00    +0.000 C 
ATOM      3  C   UNL     1       1.674   8.983  19.174  0.00  0.00    +0.000 C 
ATOM      4  C   UNL     1       1.934   8.972  17.686  0.00  0.00    +0.000 C 
ATOM      5  C   UNL     1       3.242   8.251  17.420  0.00  0.00    +0.000 C 
ATOM      6  C   UNL     1       3.331   6.893  18.082  0.00  0.00    +0.000 A 
ATOM      7  C   UNL     1       4.275   5.965  17.618  0.00  0.00    +0.000 A 
ATOM      8  C   UNL     1       4.357   4.686  18.163  0.00  0.00    +0.000 A 
ATOM      9  C   UNL     1       3.509   4.271  19.188  0.00  0.00    +0.000 A 
ATOM     10  C   UNL     1       2.557   5.193  19.683  0.00  0.00    +0.000 A 
ATOM     11  C   UNL     1       2.493   6.534  19.176  0.00  0.00    +0.000 A 
ATOM     12  C   UNL     1       1.624   4.718  20.780  0.00  0.00    +0.000 C 
ATOM     13  O   UNL     1       1.532   3.309  20.972  0.00  0.00    +0.000 OA
ATOM     14  C   UNL     1       2.755   2.723  21.042  0.00  0.00    +0.000 C 
ATOM     15  O   UNL     1       3.122   2.121  22.043  0.00  0.00    +0.000 OA
ATOM     16  C   UNL     1       3.527   2.839  19.713  0.00  0.00    +0.000 C 
ATOM     17  C   UNL     1       2.832   1.908  18.714  0.00  0.00    +0.000 C 
ENDROOT
BRANCH   7  18
ATOM     18  O   UNL     1       5.167   6.224  16.606  0.00  0.00    +0.000 OA
ATOM     19  H   UNL     1       5.810   5.500  16.540  0.00  0.00    +0.000 HD
ENDBRANCH   7  18
BRANCH   8  20
ATOM     20  O   UNL     1       5.288   3.830  17.638  0.00  0.00    +0.000 OA
ATOM     21  H   UNL     1       4.767   3.147  17.170  0.00  0.00    +0.000 HD
ENDBRANCH   8  20
BRANCH  16  22
ATOM     22  O   UNL     1       4.857   2.362  19.928  0.00  0.00    +0.000 OA
ATOM     23  H   UNL     1       5.422   2.764  19.252  0.00  0.00    +0.000 HD
ENDBRANCH  16  22
TORSDOF 3
ENDMDL
MODEL 2
REMARK VINA RESULT:      -7.7      1.454      4.367
REMARK  Name = 
REMARK  5 active torsions:
REMARK  status: ('A' for Active; 'I' for Inactive)
REMARK    1  A    between atoms: C_1  and  C_2
REMARK    2  A    between atoms: C_7  and  O_8
REMARK    3  A    between atoms: C_9  and  O_10
REMARK    4  A    between atoms: C_18  and  C_19
REMARK    5  A    between atoms: C_18  and  O_20
REMARK                            x       y       z     vdW  Elec       q    Type
REMARK                         _______ _______ _______ _____ _____    ______ ____
ROOT
ATOM      1  C   UNL     1       2.161   8.465  17.509  0.00  0.00    +0.000 C 
ATOM      2  C   UNL     1       2.585   7.864  18.859  0.00  0.00    +0.000 C 
ATOM      3  C   UNL     1       1.338   7.956  19.758  0.00  0.00    +0.000 C 
ATOM      4  C   UNL     1       1.527   7.202  21.053  0.00  0.00    +0.000 C 
ATOM      5  C   UNL     1       1.702   5.727  20.743  0.00  0.00    +0.000 C 
ATOM      6  C   UNL     1       2.757   5.448  19.695  0.00  0.00    +0.000 A 
ATOM      7  C   UNL     1       3.299   4.159  19.596  0.00  0.00    +0.000 A 
ATOM      8  C   UNL     1       4.308   3.870  18.680  0.00  0.00    +0.000 A 
ATOM      9  C   UNL     1       4.825   4.843  17.827  0.00  0.00    +0.000 A 
ATOM     10  C   UNL     1       4.285   6.149  17.898  0.00  0.00    +0.000 A 
ATOM     11  C   UNL     1       3.204   6.455  18.793  0.00  0.00    +0.000 A 
ATOM     12  C   UNL     1       4.874   7.204  16.982  0.00  0.00    +0.000 C 
ATOM     13  O   UNL     1       6.137   6.904  16.396  0.00  0.00    +0.000 OA
ATOM     14  C   UNL     1       6.160   5.664  15.841  0.00  0.00    +0.000 C 
ATOM     15  O   UNL     1       6.362   5.499  14.645  0.00  0.00    +0.000 OA
ATOM     16  C   UNL     1       6.001   4.556  16.899  0.00  0.00    +0.000 C 
ATOM     17  C   UNL     1       7.304   4.521  17.704  0.00  0.00    +0.000 C 
ENDROOT
BRANCH   7  18
ATOM     18  O   UNL     1       2.903   3.100  20.377  0.00  0.00    +0.000 OA
ATOM     19  H   UNL     1       2.014   3.264  20.728  0.00  0.00    +0.000 HD
ENDBRANCH   7  18
BRANCH   8  20
ATOM     20  O   UNL     1       4.804   2.593  18.661  0.00  0.00    +0.000 OA
ATOM     21  H   UNL     1       4.695   2.292  17.737  0.00  0.00    +0.000 HD
ENDBRANCH   8  20
BRANCH  16  22
ATOM     22  O   UNL     1       5.855   3.308  16.218  0.00  0.00    +0.000 OA
ATOM     23  H   UNL     1       5.267   2.753  16.752  0.00  0.00    +0.000 HD
ENDBRANCH  16  22
TORSDOF 3
ENDMDL
MODEL 3
REMARK VINA RESULT:      -7.2      2.563      5.357
REMARK  Name = 
REMARK  5 active torsions:
REMARK  status: ('A' for Active; 'I' for Inactive)
REMARK    1  A    between atoms: C_1  and  C_2
REMARK    2  A    between atoms: C_7  and  O_8
REMARK    3  A    between atoms: C_9  and  O_10
REMARK    4  A    between atoms: C_18  and  C_19
REMARK    5  A    between atoms: C_18  and  O_20
REMARK                            x       y       z     vdW  Elec       q    Type
REMARK                         _______ _______ _______ _____ _____    ______ ____
ROOT
ATOM      1  C   UNL     1       3.973   1.343  18.537  0.00  0.00    +0.000 C 
ATOM      2  C   UNL     1       2.793   2.294  18.279  0.00  0.00    +0.000 C 
ATOM      3  C   UNL     1       1.762   1.976  19.379  0.00  0.00    +0.000 C 
ATOM      4  C   UNL     1       0.637   2.983  19.397  0.00  0.00    +0.000 C 
ATOM      5  C   UNL     1       1.202   4.347  19.746  0.00  0.00    +0.000 C 
ATOM      6  C   UNL     1       2.388   4.748  18.897  0.00  0.00    +0.000 A 
ATOM      7  C   UNL     1       2.756   6.100  18.829  0.00  0.00    +0.000 A 
ATOM      8  C   UNL     1       3.810   6.520  18.020  0.00  0.00    +0.000 A 
ATOM      9  C   UNL     1       4.541   5.623  17.244  0.00  0.00    +0.000 A 
ATOM     10  C   UNL     1       4.199   4.251  17.306  0.00  0.00    +0.000 A 
ATOM     11  C   UNL     1       3.155   3.788  18.177  0.00  0.00    +0.000 A 
ATOM     12  C   UNL     1       4.987   3.291  16.437  0.00  0.00    +0.000 C 
ATOM     13  O   UNL     1       5.746   3.867  15.379  0.00  0.00    +0.000 OA
ATOM     14  C   UNL     1       6.496   4.916  15.803  0.00  0.00    +0.000 C 
ATOM     15  O   UNL     1       7.718   4.906  15.724  0.00  0.00    +0.000 OA
ATOM     16  C   UNL     1       5.624   6.094  16.279  0.00  0.00    +0.000 C 
ATOM     17  C   UNL     1       4.980   6.702  15.029  0.00  0.00    +0.000 C 
ENDROOT
BRANCH   7  18
ATOM     18  O   UNL     1       2.121   7.101  19.523  0.00  0.00    +0.000 OA
ATOM     19  H   UNL     1       1.812   7.784  18.908  0.00  0.00    +0.000 HD
ENDBRANCH   7  18
BRANCH   8  20
ATOM     20  O   UNL     1       4.091   7.860  17.987  0.00  0.00    +0.000 OA
ATOM     21  H   UNL     1       4.888   7.965  18.544  0.00  0.00    +0.000 HD
ENDBRANCH   8  20
BRANCH  16  22
ATOM     22  O   UNL     1       6.481   7.073  16.870  0.00  0.00    +0.000 OA
ATOM     23  H   UNL     1       7.202   6.599  17.312  0.00  0.00    +0.000 HD
ENDBRANCH  16  22
TORSDOF 3
ENDMDL
MODEL 4
REMARK VINA RESULT:      -7.0      1.300      4.089
REMARK  Name = 
REMARK  5 active torsions:
REMARK  status: ('A' for Active; 'I' for Inactive)
REMARK    1  A    between atoms: C_1  and  C_2
REMARK    2  A    between atoms: C_7  and  O_8
REMARK    3  A    between atoms: C_9  and  O_10
REMARK    4  A    between atoms: C_18  and  C_19
REMARK    5  A    between atoms: C_18  and  O_20
REMARK                            x       y       z     vdW  Elec       q    Type
REMARK                         _______ _______ _______ _____ _____    ______ ____
ROOT
ATOM      1  C   UNL     1       1.636   8.899  17.518  0.00  0.00    +0.000 C 
ATOM      2  C   UNL     1       2.103   8.527  18.934  0.00  0.00    +0.000 C 
ATOM      3  C   UNL     1       0.939   8.915  19.865  0.00  0.00    +0.000 C 
ATOM      4  C   UNL     1       1.155   8.406  21.270  0.00  0.00    +0.000 C 
ATOM      5  C   UNL     1       1.174   6.889  21.248  0.00  0.00    +0.000 C 
ATOM      6  C   UNL     1       2.120   6.310  20.219  0.00  0.00    +0.000 A 
ATOM      7  C   UNL     1       2.536   4.977  20.345  0.00  0.00    +0.000 A 
ATOM      8  C   UNL     1       3.445   4.417  19.450  0.00  0.00    +0.000 A 
ATOM      9  C   UNL     1       3.983   5.153  18.396  0.00  0.00    +0.000 A 
ATOM     10  C   UNL     1       3.568   6.497  18.238  0.00  0.00    +0.000 A 
ATOM     11  C   UNL     1       2.588   7.075  19.113  0.00  0.00    +0.000 A 
ATOM     12  C   UNL     1       4.180   7.292  17.102  0.00  0.00    +0.000 C 
ATOM     13  O   UNL     1       5.365   6.758  16.517  0.00  0.00    +0.000 OA
ATOM     14  C   UNL     1       5.236   5.440  16.217  0.00  0.00    +0.000 C 
ATOM     15  O   UNL     1       5.333   5.031  15.067  0.00  0.00    +0.000 OA
ATOM     16  C   UNL     1       5.056   4.575  17.479  0.00  0.00    +0.000 C 
ATOM     17  C   UNL     1       6.407   4.563  18.203  0.00  0.00    +0.000 C 
ENDROOT
BRANCH   7  18
ATOM     18  O   UNL     1       2.106   4.133  21.340  0.00  0.00    +0.000 OA
ATOM     19  H   UNL     1       1.175   3.901  21.196  0.00  0.00    +0.000 HD
ENDBRANCH   7  18
BRANCH   8  20
ATOM     20  O   UNL     1       3.822   3.117  19.656  0.00  0.00    +0.000 OA
ATOM     21  H   UNL     1       3.774   2.990  20.625  0.00  0.00    +0.000 HD
ENDBRANCH   8  20
BRANCH  16  22
ATOM     22  O   UNL     1       4.750   3.242  17.066  0.00  0.00    +0.000 OA
ATOM     23  H   UNL     1       4.323   2.798  17.813  0.00  0.00    +0.000 HD
ENDBRANCH  16  22
TORSDOF 3
ENDMDL
MODEL 5
REMARK VINA RESULT:      -6.9      1.231      2.003
REMARK  Name = 
REMARK  5 active torsions:
REMARK  status: ('A' for Active; 'I' for Inactive)
REMARK    1  A    between atoms: C_1  and  C_2
REMARK    2  A    between atoms: C_7  and  O_8
REMARK    3  A    between atoms: C_9  and  O_10
REMARK    4  A    between atoms: C_18  and  C_19
REMARK    5  A    between atoms: C_18  and  O_20
REMARK                            x       y       z     vdW  Elec       q    Type
REMARK                         _______ _______ _______ _____ _____    ______ ____
ROOT
ATOM      1  C   UNL     1       1.973   7.864  19.365  0.00  0.00    +0.000 C 
ATOM      2  C   UNL     1       2.633   7.089  18.214  0.00  0.00    +0.000 C 
ATOM      3  C   UNL     1       3.540   8.108  17.500  0.00  0.00    +0.000 C 
ATOM      4  C   UNL     1       4.431   7.443  16.477  0.00  0.00    +0.000 C 
ATOM      5  C   UNL     1       5.369   6.487  17.189  0.00  0.00    +0.000 C 
ATOM      6  C   UNL     1       4.664   5.529  18.125  0.00  0.00    +0.000 A 
ATOM      7  C   UNL     1       5.324   4.361  18.535  0.00  0.00    +0.000 A 
ATOM      8  C   UNL     1       4.695   3.427  19.354  0.00  0.00    +0.000 A 
ATOM      9  C   UNL     1       3.387   3.607  19.800  0.00  0.00    +0.000 A 
ATOM     10  C   UNL     1       2.704   4.784  19.412  0.00  0.00    +0.000 A 
ATOM     11  C   UNL     1       3.353   5.788  18.617  0.00  0.00    +0.000 A 
ATOM     12  C   UNL     1       1.273   4.954  19.885  0.00  0.00    +0.000 C 
ATOM     13  O   UNL     1       0.618   3.783  20.364  0.00  0.00    +0.000 OA
ATOM     14  C   UNL     1       1.381   3.101  21.256  0.00  0.00    +0.000 C 
ATOM     15  O   UNL     1       1.012   2.920  22.410  0.00  0.00    +0.000 OA
ATOM     16  C   UNL     1       2.661   2.538  20.610  0.00  0.00    +0.000 C 
ATOM     17  C   UNL     1       2.224   1.393  19.688  0.00  0.00    +0.000 C 
ENDROOT
BRANCH   7  18
ATOM     18  O   UNL     1       6.607   4.039  18.165  0.00  0.00    +0.000 OA
ATOM     19  H   UNL     1       6.826   4.467  17.323  0.00  0.00    +0.000 HD
ENDBRANCH   7  18
BRANCH   8  20
ATOM     20  O   UNL     1       5.397   2.300  19.689  0.00  0.00    +0.000 OA
ATOM     21  H   UNL     1       5.715   1.938  18.838  0.00  0.00    +0.000 HD
ENDBRANCH   8  20
BRANCH  16  22
ATOM     22  O   UNL     1       3.482   1.997  21.646  0.00  0.00    +0.000 OA
ATOM     23  H   UNL     1       3.478   1.033  21.548  0.00  0.00    +0.000 HD
ENDBRANCH  16  22
TORSDOF 3
ENDMDL
MODEL 6
REMARK VINA RESULT:      -6.6      1.921      4.888
REMARK  Name = 
REMARK  5 active torsions:
REMARK  status: ('A' for Active; 'I' for Inactive)
REMARK    1  A    between atoms: C_1  and  C_2
REMARK    2  A    between atoms: C_7  and  O_8
REMARK    3  A    between atoms: C_9  and  O_10
REMARK    4  A    between atoms: C_18  and  C_19
REMARK    5  A    between atoms: C_18  and  O_20
REMARK                            x       y       z     vdW  Elec       q    Type
REMARK                         _______ _______ _______ _____ _____    ______ ____
ROOT
ATOM      1  C   UNL     1       1.755   6.672  19.613  0.00  0.00    +0.000 C 
ATOM      2  C   UNL     1       2.585   5.508  20.179  0.00  0.00    +0.000 C 
ATOM      3  C   UNL     1       1.640   4.757  21.136  0.00  0.00    +0.000 C 
ATOM      4  C   UNL     1       2.241   3.453  21.603  0.00  0.00    +0.000 C 
ATOM      5  C   UNL     1       2.424   2.538  20.407  0.00  0.00    +0.000 C 
ATOM      6  C   UNL     1       3.156   3.187  19.253  0.00  0.00    +0.000 A 
ATOM      7  C   UNL     1       3.738   2.377  18.268  0.00  0.00    +0.000 A 
ATOM      8  C   UNL     1       4.464   2.930  17.215  0.00  0.00    +0.000 A 
ATOM      9  C   UNL     1       4.648   4.306  17.096  0.00  0.00    +0.000 A 
ATOM     10  C   UNL     1       4.060   5.147  18.070  0.00  0.00    +0.000 A 
ATOM     11  C   UNL     1       3.258   4.602  19.129  0.00  0.00    +0.000 A 
ATOM     12  C   UNL     1       4.290   6.640  17.940  0.00  0.00    +0.000 C 
ATOM     13  O   UNL     1       5.353   7.048  17.084  0.00  0.00    +0.000 OA
ATOM     14  C   UNL     1       5.305   6.424  15.879  0.00  0.00    +0.000 C 
ATOM     15  O   UNL     1       5.171   7.052  14.836  0.00  0.00    +0.000 OA
ATOM     16  C   UNL     1       5.530   4.905  16.005  0.00  0.00    +0.000 C 
ATOM     17  C   UNL     1       7.008   4.705  16.361  0.00  0.00    +0.000 C 
ENDROOT
BRANCH   7  18
ATOM     18  O   UNL     1       3.655   1.006  18.259  0.00  0.00    +0.000 OA
ATOM     19  H   UNL     1       4.027   0.658  17.433  0.00  0.00    +0.000 HD
ENDBRANCH   7  18
BRANCH   8  20
ATOM     20  O   UNL     1       5.023   2.070  16.307  0.00  0.00    +0.000 OA
ATOM     21  H   UNL     1       5.603   2.630  15.753  0.00  0.00    +0.000 HD
ENDBRANCH   8  20
BRANCH  16  22
ATOM     22  O   UNL     1       5.286   4.311  14.729  0.00  0.00    +0.000 OA
ATOM     23  H   UNL     1       4.328   4.310  14.588  0.00  0.00    +0.000 HD
ENDBRANCH  16  22
TORSDOF 3
ENDMDL
MODEL 7
REMARK VINA RESULT:      -6.2      5.961      8.492
REMARK  Name = 
REMARK  5 active torsions:
REMARK  status: ('A' for Active; 'I' for Inactive)
REMARK    1  A    between atoms: C_1  and  C_2
REMARK    2  A    between atoms: C_7  and  O_8
REMARK    3  A    between atoms: C_9  and  O_10
REMARK    4  A    between atoms: C_18  and  C_19
REMARK    5  A    between atoms: C_18  and  O_20
REMARK                            x       y       z     vdW  Elec       q    Type
REMARK                         _______ _______ _______ _____ _____    ______ ____
ROOT
ATOM      1  C   UNL     1       0.687   8.143  21.776  0.00  0.00    +0.000 C 
ATOM      2  C   UNL     1       1.109   9.120  20.667  0.00  0.00    +0.000 C 
ATOM      3  C   UNL     1       1.731   8.243  19.563  0.00  0.00    +0.000 C 
ATOM      4  C   UNL     1       1.995   9.034  18.304  0.00  0.00    +0.000 C 
ATOM      5  C   UNL     1       0.672   9.523  17.743  0.00  0.00    +0.000 C 
ATOM      6  C   UNL     1      -0.192  10.234  18.761  0.00  0.00    +0.000 A 
ATOM      7  C   UNL     1      -1.229  11.067  18.316  0.00  0.00    +0.000 A 
ATOM      8  C   UNL     1      -2.017  11.781  19.216  0.00  0.00    +0.000 A 
ATOM      9  C   UNL     1      -1.811  11.703  20.592  0.00  0.00    +0.000 A 
ATOM     10  C   UNL     1      -0.780  10.857  21.067  0.00  0.00    +0.000 A 
ATOM     11  C   UNL     1       0.005  10.068  20.161  0.00  0.00    +0.000 A 
ATOM     12  C   UNL     1      -0.552  10.802  22.565  0.00  0.00    +0.000 C 
ATOM     13  O   UNL     1      -1.131  11.851  23.337  0.00  0.00    +0.000 OA
ATOM     14  C   UNL     1      -2.434  12.058  23.018  0.00  0.00    +0.000 C 
ATOM     15  O   UNL     1      -3.328  11.917  23.844  0.00  0.00    +0.000 OA
ATOM     16  C   UNL     1      -2.602  12.563  21.572  0.00  0.00    +0.000 C 
ATOM     17  C   UNL     1      -2.079  14.003  21.542  0.00  0.00    +0.000 C 
ENDROOT
BRANCH   7  18
ATOM     18  O   UNL     1      -1.542  11.258  16.992  0.00  0.00    +0.000 OA
ATOM     19  H   UNL     1      -0.902  11.862  16.586  0.00  0.00    +0.000 HD
ENDBRANCH   7  18
BRANCH   8  20
ATOM     20  O   UNL     1      -2.992  12.594  18.702  0.00  0.00    +0.000 OA
ATOM     21  H   UNL     1      -2.510  13.275  18.192  0.00  0.00    +0.000 HD
ENDBRANCH   8  20
BRANCH  16  22
ATOM     22  O   UNL     1      -3.998  12.581  21.266  0.00  0.00    +0.000 OA
ATOM     23  H   UNL     1      -4.172  13.384  20.752  0.00  0.00    +0.000 HD
ENDBRANCH  16  22
TORSDOF 3
ENDMDL
MODEL 8
REMARK VINA RESULT:      -6.1     11.103     13.231
REMARK  Name = 
REMARK  5 active torsions:
REMARK  status: ('A' for Active; 'I' for Inactive)
REMARK    1  A    between atoms: C_1  and  C_2
REMARK    2  A    between atoms: C_7  and  O_8
REMARK    3  A    between atoms: C_9  and  O_10
REMARK    4  A    between atoms: C_18  and  C_19
REMARK    5  A    between atoms: C_18  and  O_20
REMARK                            x       y       z     vdW  Elec       q    Type
REMARK                         _______ _______ _______ _____ _____    ______ ____
ROOT
ATOM      1  C   UNL     1       9.170  12.947  21.618  0.00  0.00    +0.000 C 
ATOM      2  C   UNL     1      10.460  13.038  20.787  0.00  0.00    +0.000 C 
ATOM      3  C   UNL     1      10.783  11.590  20.372  0.00  0.00    +0.000 C 
ATOM      4  C   UNL     1      11.904  11.536  19.361  0.00  0.00    +0.000 C 
ATOM      5  C   UNL     1      11.456  12.236  18.092  0.00  0.00    +0.000 C 
ATOM      6  C   UNL     1      10.892  13.620  18.329  0.00  0.00    +0.000 A 
ATOM      7  C   UNL     1      10.812  14.520  17.257  0.00  0.00    +0.000 A 
ATOM      8  C   UNL     1      10.346  15.820  17.440  0.00  0.00    +0.000 A 
ATOM      9  C   UNL     1       9.944  16.285  18.691  0.00  0.00    +0.000 A 
ATOM     10  C   UNL     1      10.002  15.392  19.787  0.00  0.00    +0.000 A 
ATOM     11  C   UNL     1      10.422  14.030  19.609  0.00  0.00    +0.000 A 
ATOM     12  C   UNL     1       9.585  15.919  21.145  0.00  0.00    +0.000 C 
ATOM     13  O   UNL     1       9.516  17.335  21.285  0.00  0.00    +0.000 OA
ATOM     14  C   UNL     1       8.825  17.915  20.270  0.00  0.00    +0.000 C 
ATOM     15  O   UNL     1       7.802  18.556  20.473  0.00  0.00    +0.000 OA
ATOM     16  C   UNL     1       9.535  17.737  18.913  0.00  0.00    +0.000 C 
ATOM     17  C   UNL     1      10.780  18.631  18.945  0.00  0.00    +0.000 C 
ENDROOT
BRANCH   7  18
ATOM     18  O   UNL     1      11.185  14.213  15.971  0.00  0.00    +0.000 OA
ATOM     19  H   UNL     1      11.066  13.263  15.811  0.00  0.00    +0.000 HD
ENDBRANCH   7  18
BRANCH   8  20
ATOM     20  O   UNL     1      10.323  16.647  16.348  0.00  0.00    +0.000 OA
ATOM     21  H   UNL     1      10.724  17.485  16.657  0.00  0.00    +0.000 HD
ENDBRANCH   8  20
BRANCH  16  22
ATOM     22  O   UNL     1       8.661  18.213  17.888  0.00  0.00    +0.000 OA
ATOM     23  H   UNL     1       9.214  18.539  17.163  0.00  0.00    +0.000 HD
ENDBRANCH  16  22
TORSDOF 3
ENDMDL
MODEL 9
REMARK VINA RESULT:      -6.1      8.113     10.549
REMARK  Name = 
REMARK  5 active torsions:
REMARK  status: ('A' for Active; 'I' for Inactive)
REMARK    1  A    between atoms: C_1  and  C_2
REMARK    2  A    between atoms: C_7  and  O_8
REMARK    3  A    between atoms: C_9  and  O_10
REMARK    4  A    between atoms: C_18  and  C_19
REMARK    5  A    between atoms: C_18  and  O_20
REMARK                            x       y       z     vdW  Elec       q    Type
REMARK                         _______ _______ _______ _____ _____    ______ ____
ROOT
ATOM      1  C   UNL     1      -4.130  14.226  22.132  0.00  0.00    +0.000 C 
ATOM      2  C   UNL     1      -4.949  12.971  21.792  0.00  0.00    +0.000 C 
ATOM      3  C   UNL     1      -6.398  13.304  22.195  0.00  0.00    +0.000 C 
ATOM      4  C   UNL     1      -7.367  12.250  21.717  0.00  0.00    +0.000 C 
ATOM      5  C   UNL     1      -7.360  12.226  20.200  0.00  0.00    +0.000 C 
ATOM      6  C   UNL     1      -5.975  12.121  19.602  0.00  0.00    +0.000 A 
ATOM      7  C   UNL     1      -5.832  11.696  18.273  0.00  0.00    +0.000 A 
ATOM      8  C   UNL     1      -4.574  11.537  17.697  0.00  0.00    +0.000 A 
ATOM      9  C   UNL     1      -3.404  11.787  18.412  0.00  0.00    +0.000 A 
ATOM     10  C   UNL     1      -3.521  12.230  19.751  0.00  0.00    +0.000 A 
ATOM     11  C   UNL     1      -4.808  12.458  20.345  0.00  0.00    +0.000 A 
ATOM     12  C   UNL     1      -2.239  12.475  20.524  0.00  0.00    +0.000 C 
ATOM     13  O   UNL     1      -1.051  11.907  19.982  0.00  0.00    +0.000 OA
ATOM     14  C   UNL     1      -0.916  12.174  18.657  0.00  0.00    +0.000 C 
ATOM     15  O   UNL     1       0.037  12.810  18.224  0.00  0.00    +0.000 OA
ATOM     16  C   UNL     1      -2.027  11.512  17.819  0.00  0.00    +0.000 C 
ATOM     17  C   UNL     1      -1.747  10.005  17.825  0.00  0.00    +0.000 C 
ENDROOT
BRANCH   7  18
ATOM     18  O   UNL     1      -6.890  11.397  17.449  0.00  0.00    +0.000 OA
ATOM     19  H   UNL     1      -7.485  12.161  17.386  0.00  0.00    +0.000 HD
ENDBRANCH   7  18
BRANCH   8  20
ATOM     20  O   UNL     1      -4.518  11.093  16.403  0.00  0.00    +0.000 OA
ATOM     21  H   UNL     1      -3.947  11.739  15.939  0.00  0.00    +0.000 HD
ENDBRANCH   8  20
BRANCH  16  22
ATOM     22  O   UNL     1      -1.915  11.989  16.476  0.00  0.00    +0.000 OA
ATOM     23  H   UNL     1      -1.027  12.363  16.374  0.00  0.00    +0.000 HD
ENDBRANCH  16  22
TORSDOF 3
ENDMDL
