MODEL 1
REMARK VINA RESULT:      -7.8      0.000      0.000
REMARK  Name = 
REMARK  16 active torsions:
REMARK  status: ('A' for Active; 'I' for Inactive)
REMARK    1  A    between atoms: C_1  and  O_2
REMARK    2  A    between atoms: O_2  and  C_3
REMARK    3  A    between atoms: N_8  and  C_9
REMARK    4  A    between atoms: N_8  and  C_10
REMARK    5  A    between atoms: C_10  and  C_11
REMARK    6  A    between atoms: C_11  and  C_12
REMARK    7  A    between atoms: C_12  and  C_13
REMARK    8  A    between atoms: C_13  and  C_14
REMARK    9  A    between atoms: C_14  and  C_15
REMARK   10  A    between atoms: C_15  and  N_16
REMARK   11  A    between atoms: N_16  and  C_17
REMARK   12  A    between atoms: C_18  and  C_20
REMARK   13  A    between atoms: C_24  and  C_25
REMARK   14  A    between atoms: C_25  and  N_26
REMARK   15  A    between atoms: C_33  and  O_34
REMARK   16  A    between atoms: O_34  and  C_35
REMARK                            x       y       z     vdW  Elec       q    Type
REMARK                         _______ _______ _______ _____ _____    ______ ____
ROOT
ATOM      1  C   UNL     1       2.413   7.499  19.926  0.00  0.00    +0.000 C 
ENDROOT
BRANCH   1   7
ATOM      2  C   UNL     1      -2.276  12.798  21.125  0.00  0.00    +0.000 A 
ATOM      3  C   UNL     1      -1.438  12.044  20.296  0.00  0.00    +0.000 A 
ATOM      4  C   UNL     1      -0.658  11.011  20.786  0.00  0.00    +0.000 A 
ATOM      5  N   UNL     1       0.093  10.331  19.922  0.00  0.00    +0.000 NA
ATOM      6  C   UNL     1       0.828   9.308  20.370  0.00  0.00    +0.000 A 
ATOM      7  N   UNL     1       1.624   8.630  19.474  0.00  0.00    +0.000 N 
ATOM      8  C   UNL     1       1.621   8.972  18.067  0.00  0.00    +0.000 C 
ATOM      9  N   UNL     1       0.835   8.938  21.662  0.00  0.00    +0.000 NA
ATOM     10  C   UNL     1       0.093   9.641  22.526  0.00  0.00    +0.000 A 
ATOM     11  N   UNL     1       0.135   9.194  23.854  0.00  0.00    +0.000 N 
ATOM     12  C   UNL     1      -0.699  10.724  22.145  0.00  0.00    +0.000 A 
ATOM     13  C   UNL     1      -1.508  11.506  23.007  0.00  0.00    +0.000 A 
ATOM     14  C   UNL     1      -2.286  12.554  22.504  0.00  0.00    +0.000 A 
ATOM     15  H   UNL     1       0.791   8.418  23.881  0.00  0.00    +0.000 HD
ATOM     16  H   UNL     1       0.410   9.936  24.486  0.00  0.00    +0.000 HD
BRANCH   2  18
ATOM     17  C   UNL     1      -2.458  15.097  20.628  0.00  0.00    +0.000 C 
ATOM     18  O   UNL     1      -3.073  13.808  20.639  0.00  0.00    +0.000 OA
ENDBRANCH   2  18
BRANCH  14  19
ATOM     19  O   UNL     1      -3.084  13.361  23.275  0.00  0.00    +0.000 OA
ATOM     20  C   UNL     1      -2.436  14.278  24.146  0.00  0.00    +0.000 C 
ENDBRANCH  14  19
ENDBRANCH   1   7
BRANCH   1  21
ATOM     21  C   UNL     1       1.794   6.171  19.476  0.00  0.00    +0.000 C 
BRANCH  21  22
ATOM     22  C   UNL     1       1.651   5.165  20.621  0.00  0.00    +0.000 C 
BRANCH  22  23
ATOM     23  C   UNL     1       0.816   3.938  20.244  0.00  0.00    +0.000 C 
BRANCH  23  24
ATOM     24  C   UNL     1       1.579   2.639  20.499  0.00  0.00    +0.000 C 
BRANCH  24  25
ATOM     25  C   UNL     1       2.047   2.009  19.183  0.00  0.00    +0.000 C 
BRANCH  25  26
ATOM     26  N   UNL     1       3.338   2.546  18.758  0.00  0.00    +0.000 N 
ATOM     27  C   UNL     1       4.467   2.290  19.646  0.00  0.00    +0.000 C 
ATOM     28  C   UNL     1       3.357   3.375  17.628  0.00  0.00    +0.000 C 
ATOM     29  O   UNL     1       2.319   3.691  17.040  0.00  0.00    +0.000 OA
BRANCH  28  30
ATOM     30  C   UNL     1       4.632   3.939  17.098  0.00  0.00    +0.000 A 
ATOM     31  C   UNL     1       5.100   3.464  15.864  0.00  0.00    +0.000 A 
ATOM     32  C   UNL     1       6.283   3.965  15.316  0.00  0.00    +0.000 A 
ATOM     33  C   UNL     1       6.995   4.962  15.982  0.00  0.00    +0.000 A 
ATOM     34  C   UNL     1       6.558   5.427  17.228  0.00  0.00    +0.000 A 
ATOM     35  C   UNL     1       5.401   4.872  17.795  0.00  0.00    +0.000 A 
BRANCH  34  36
ATOM     36  C   UNL     1       7.286   6.532  17.951  0.00  0.00    +0.000 C 
BRANCH  36  37
ATOM     37  N   UNL     1       7.372   7.734  17.123  0.00  0.00    +0.000 NA
ATOM     38  H   UNL     1       8.037   8.377  17.553  0.00  0.00    +0.000 HD
ATOM     39  H   UNL     1       6.472   8.209  17.133  0.00  0.00    +0.000 HD
ENDBRANCH  36  37
ENDBRANCH  34  36
ENDBRANCH  28  30
ENDBRANCH  25  26
ENDBRANCH  24  25
ENDBRANCH  23  24
ENDBRANCH  22  23
ENDBRANCH  21  22
ENDBRANCH   1  21
TORSDOF 12
ENDMDL
MODEL 2
REMARK VINA RESULT:      -7.7      1.785      1.966
REMARK  Name = 
REMARK  16 active torsions:
REMARK  status: ('A' for Active; 'I' for Inactive)
REMARK    1  A    between atoms: C_1  and  O_2
REMARK    2  A    between atoms: O_2  and  C_3
REMARK    3  A    between atoms: N_8  and  C_9
REMARK    4  A    between atoms: N_8  and  C_10
REMARK    5  A    between atoms: C_10  and  C_11
REMARK    6  A    between atoms: C_11  and  C_12
REMARK    7  A    between atoms: C_12  and  C_13
REMARK    8  A    between atoms: C_13  and  C_14
REMARK    9  A    between atoms: C_14  and  C_15
REMARK   10  A    between atoms: C_15  and  N_16
REMARK   11  A    between atoms: N_16  and  C_17
REMARK   12  A    between atoms: C_18  and  C_20
REMARK   13  A    between atoms: C_24  and  C_25
REMARK   14  A    between atoms: C_25  and  N_26
REMARK   15  A    between atoms: C_33  and  O_34
REMARK   16  A    between atoms: O_34  and  C_35
REMARK                            x       y       z     vdW  Elec       q    Type
REMARK                         _______ _______ _______ _____ _____    ______ ____
ROOT
ATOM      1  C   UNL     1       1.378   6.308  20.986  0.00  0.00    +0.000 C 
ENDROOT
BRANCH   1   7
ATOM      2  C   UNL     1       0.521  13.356  19.937  0.00  0.00    +0.000 A 
ATOM      3  C   UNL     1       1.040  12.102  19.594  0.00  0.00    +0.000 A 
ATOM      4  C   UNL     1       0.809  10.977  20.365  0.00  0.00    +0.000 A 
ATOM      5  N   UNL     1       1.322   9.819  19.953  0.00  0.00    +0.000 NA
ATOM      6  C   UNL     1       1.082   8.714  20.666  0.00  0.00    +0.000 A 
ATOM      7  N   UNL     1       1.642   7.529  20.246  0.00  0.00    +0.000 N 
ATOM      8  C   UNL     1       2.419   7.461  19.027  0.00  0.00    +0.000 C 
ATOM      9  N   UNL     1       0.339   8.728  21.786  0.00  0.00    +0.000 NA
ATOM     10  C   UNL     1      -0.154   9.900  22.204  0.00  0.00    +0.000 A 
ATOM     11  N   UNL     1      -0.931   9.841  23.370  0.00  0.00    +0.000 N 
ATOM     12  C   UNL     1       0.051  11.100  21.523  0.00  0.00    +0.000 A 
ATOM     13  C   UNL     1      -0.445  12.370  21.911  0.00  0.00    +0.000 A 
ATOM     14  C   UNL     1      -0.200  13.504  21.129  0.00  0.00    +0.000 A 
ATOM     15  H   UNL     1      -0.912   8.874  23.686  0.00  0.00    +0.000 HD
ATOM     16  H   UNL     1      -0.580  10.472  24.081  0.00  0.00    +0.000 HD
BRANCH   2  18
ATOM     17  C   UNL     1       2.029  14.565  18.584  0.00  0.00    +0.000 C 
ATOM     18  O   UNL     1       0.725  14.471  19.159  0.00  0.00    +0.000 OA
ENDBRANCH   2  18
BRANCH  14  19
ATOM     19  O   UNL     1      -0.635  14.766  21.442  0.00  0.00    +0.000 OA
ATOM     20  C   UNL     1       0.052  15.454  22.479  0.00  0.00    +0.000 C 
ENDBRANCH  14  19
ENDBRANCH   1   7
BRANCH   1  21
ATOM     21  C   UNL     1       2.424   5.231  20.678  0.00  0.00    +0.000 C 
BRANCH  21  22
ATOM     22  C   UNL     1       2.169   3.923  21.432  0.00  0.00    +0.000 C 
BRANCH  22  23
ATOM     23  C   UNL     1       1.020   3.102  20.842  0.00  0.00    +0.000 C 
BRANCH  23  24
ATOM     24  C   UNL     1       1.043   3.120  19.314  0.00  0.00    +0.000 C 
BRANCH  24  25
ATOM     25  C   UNL     1       1.941   2.007  18.764  0.00  0.00    +0.000 C 
BRANCH  25  26
ATOM     26  N   UNL     1       3.312   2.472  18.561  0.00  0.00    +0.000 N 
ATOM     27  C   UNL     1       4.328   1.871  19.417  0.00  0.00    +0.000 C 
ATOM     28  C   UNL     1       3.511   3.543  17.681  0.00  0.00    +0.000 C 
ATOM     29  O   UNL     1       2.564   4.118  17.135  0.00  0.00    +0.000 OA
BRANCH  28  30
ATOM     30  C   UNL     1       4.877   4.061  17.382  0.00  0.00    +0.000 A 
ATOM     31  C   UNL     1       5.419   3.799  16.116  0.00  0.00    +0.000 A 
ATOM     32  C   UNL     1       6.690   4.269  15.779  0.00  0.00    +0.000 A 
ATOM     33  C   UNL     1       7.422   5.026  16.695  0.00  0.00    +0.000 A 
ATOM     34  C   UNL     1       6.908   5.272  17.973  0.00  0.00    +0.000 A 
ATOM     35  C   UNL     1       5.656   4.743  18.319  0.00  0.00    +0.000 A 
BRANCH  34  36
ATOM     36  C   UNL     1       7.659   6.121  18.969  0.00  0.00    +0.000 C 
BRANCH  36  37
ATOM     37  N   UNL     1       7.890   5.390  20.214  0.00  0.00    +0.000 NA
ATOM     38  H   UNL     1       8.443   5.978  20.837  0.00  0.00    +0.000 HD
ATOM     39  H   UNL     1       8.459   4.570  20.018  0.00  0.00    +0.000 HD
ENDBRANCH  36  37
ENDBRANCH  34  36
ENDBRANCH  28  30
ENDBRANCH  25  26
ENDBRANCH  24  25
ENDBRANCH  23  24
ENDBRANCH  22  23
ENDBRANCH  21  22
ENDBRANCH   1  21
TORSDOF 12
ENDMDL
MODEL 3
REMARK VINA RESULT:      -7.3      1.085      1.248
REMARK  Name = 
REMARK  16 active torsions:
REMARK  status: ('A' for Active; 'I' for Inactive)
REMARK    1  A    between atoms: C_1  and  O_2
REMARK    2  A    between atoms: O_2  and  C_3
REMARK    3  A    between atoms: N_8  and  C_9
REMARK    4  A    between atoms: N_8  and  C_10
REMARK    5  A    between atoms: C_10  and  C_11
REMARK    6  A    between atoms: C_11  and  C_12
REMARK    7  A    between atoms: C_12  and  C_13
REMARK    8  A    between atoms: C_13  and  C_14
REMARK    9  A    between atoms: C_14  and  C_15
REMARK   10  A    between atoms: C_15  and  N_16
REMARK   11  A    between atoms: N_16  and  C_17
REMARK   12  A    between atoms: C_18  and  C_20
REMARK   13  A    between atoms: C_24  and  C_25
REMARK   14  A    between atoms: C_25  and  N_26
REMARK   15  A    between atoms: C_33  and  O_34
REMARK   16  A    between atoms: O_34  and  C_35
REMARK                            x       y       z     vdW  Elec       q    Type
REMARK                         _______ _______ _______ _____ _____    ______ ____
ROOT
ATOM      1  C   UNL     1       2.257   7.387  20.047  0.00  0.00    +0.000 C 
ENDROOT
BRANCH   1   7
ATOM      2  C   UNL     1      -2.018  13.050  21.129  0.00  0.00    +0.000 A 
ATOM      3  C   UNL     1      -1.217  12.233  20.323  0.00  0.00    +0.000 A 
ATOM      4  C   UNL     1      -0.542  11.137  20.830  0.00  0.00    +0.000 A 
ATOM      5  N   UNL     1       0.180  10.402  19.987  0.00  0.00    +0.000 NA
ATOM      6  C   UNL     1       0.812   9.319  20.452  0.00  0.00    +0.000 A 
ATOM      7  N   UNL     1       1.579   8.583  19.577  0.00  0.00    +0.000 N 
ATOM      8  C   UNL     1       1.652   8.930  18.173  0.00  0.00    +0.000 C 
ATOM      9  N   UNL     1       0.745   8.944  21.740  0.00  0.00    +0.000 NA
ATOM     10  C   UNL     1       0.034   9.702  22.584  0.00  0.00    +0.000 A 
ATOM     11  N   UNL     1      -0.006   9.246  23.909  0.00  0.00    +0.000 N 
ATOM     12  C   UNL     1      -0.653  10.848  22.185  0.00  0.00    +0.000 A 
ATOM     13  C   UNL     1      -1.422  11.690  23.026  0.00  0.00    +0.000 A 
ATOM     14  C   UNL     1      -2.095  12.801  22.505  0.00  0.00    +0.000 A 
ATOM     15  H   UNL     1       0.584   8.418  23.953  0.00  0.00    +0.000 HD
ATOM     16  H   UNL     1       0.308   9.960  24.556  0.00  0.00    +0.000 HD
BRANCH   2  18
ATOM     17  C   UNL     1      -1.944  15.322  20.498  0.00  0.00    +0.000 C 
ATOM     18  O   UNL     1      -2.712  14.124  20.624  0.00  0.00    +0.000 OA
ENDBRANCH   2  18
BRANCH  14  19
ATOM     19  O   UNL     1      -2.849  13.667  23.255  0.00  0.00    +0.000 OA
ATOM     20  C   UNL     1      -3.872  13.106  24.067  0.00  0.00    +0.000 C 
ENDBRANCH  14  19
ENDBRANCH   1   7
BRANCH   1  21
ATOM     21  C   UNL     1       1.275   6.412  20.704  0.00  0.00    +0.000 C 
BRANCH  21  22
ATOM     22  C   UNL     1       1.844   4.995  20.833  0.00  0.00    +0.000 C 
BRANCH  22  23
ATOM     23  C   UNL     1       0.819   3.904  20.510  0.00  0.00    +0.000 C 
BRANCH  23  24
ATOM     24  C   UNL     1       1.478   2.689  19.858  0.00  0.00    +0.000 C 
BRANCH  24  25
ATOM     25  C   UNL     1       1.495   2.826  18.332  0.00  0.00    +0.000 C 
BRANCH  25  26
ATOM     26  N   UNL     1       2.611   3.653  17.877  0.00  0.00    +0.000 N 
ATOM     27  C   UNL     1       2.269   4.988  17.399  0.00  0.00    +0.000 C 
ATOM     28  C   UNL     1       3.875   3.054  17.800  0.00  0.00    +0.000 C 
ATOM     29  O   UNL     1       4.040   1.857  18.050  0.00  0.00    +0.000 OA
BRANCH  28  30
ATOM     30  C   UNL     1       5.078   3.830  17.383  0.00  0.00    +0.000 A 
ATOM     31  C   UNL     1       5.432   3.819  16.026  0.00  0.00    +0.000 A 
ATOM     32  C   UNL     1       6.544   4.536  15.578  0.00  0.00    +0.000 A 
ATOM     33  C   UNL     1       7.297   5.292  16.478  0.00  0.00    +0.000 A 
ATOM     34  C   UNL     1       6.975   5.291  17.840  0.00  0.00    +0.000 A 
ATOM     35  C   UNL     1       5.892   4.518  18.284  0.00  0.00    +0.000 A 
BRANCH  34  36
ATOM     36  C   UNL     1       7.747   6.130  18.827  0.00  0.00    +0.000 C 
BRANCH  36  37
ATOM     37  N   UNL     1       7.872   5.446  20.114  0.00  0.00    +0.000 NA
ATOM     38  H   UNL     1       8.785   4.994  20.154  0.00  0.00    +0.000 HD
ATOM     39  H   UNL     1       7.184   4.698  20.160  0.00  0.00    +0.000 HD
ENDBRANCH  36  37
ENDBRANCH  34  36
ENDBRANCH  28  30
ENDBRANCH  25  26
ENDBRANCH  24  25
ENDBRANCH  23  24
ENDBRANCH  22  23
ENDBRANCH  21  22
ENDBRANCH   1  21
TORSDOF 12
ENDMDL
MODEL 4
REMARK VINA RESULT:      -7.3      1.702      2.051
REMARK  Name = 
REMARK  16 active torsions:
REMARK  status: ('A' for Active; 'I' for Inactive)
REMARK    1  A    between atoms: C_1  and  O_2
REMARK    2  A    between atoms: O_2  and  C_3
REMARK    3  A    between atoms: N_8  and  C_9
REMARK    4  A    between atoms: N_8  and  C_10
REMARK    5  A    between atoms: C_10  and  C_11
REMARK    6  A    between atoms: C_11  and  C_12
REMARK    7  A    between atoms: C_12  and  C_13
REMARK    8  A    between atoms: C_13  and  C_14
REMARK    9  A    between atoms: C_14  and  C_15
REMARK   10  A    between atoms: C_15  and  N_16
REMARK   11  A    between atoms: N_16  and  C_17
REMARK   12  A    between atoms: C_18  and  C_20
REMARK   13  A    between atoms: C_24  and  C_25
REMARK   14  A    between atoms: C_25  and  N_26
REMARK   15  A    between atoms: C_33  and  O_34
REMARK   16  A    between atoms: O_34  and  C_35
REMARK                            x       y       z     vdW  Elec       q    Type
REMARK                         _______ _______ _______ _____ _____    ______ ____
ROOT
ATOM      1  C   UNL     1       1.383   6.276  21.040  0.00  0.00    +0.000 C 
ENDROOT
BRANCH   1   7
ATOM      2  C   UNL     1       0.558  13.309  19.866  0.00  0.00    +0.000 A 
ATOM      3  C   UNL     1       1.074  12.048  19.547  0.00  0.00    +0.000 A 
ATOM      4  C   UNL     1       0.835  10.936  20.336  0.00  0.00    +0.000 A 
ATOM      5  N   UNL     1       1.346   9.770  19.946  0.00  0.00    +0.000 NA
ATOM      6  C   UNL     1       1.098   8.678  20.677  0.00  0.00    +0.000 A 
ATOM      7  N   UNL     1       1.656   7.484  20.280  0.00  0.00    +0.000 N 
ATOM      8  C   UNL     1       2.440   7.392  19.067  0.00  0.00    +0.000 C 
ATOM      9  N   UNL     1       0.349   8.714  21.792  0.00  0.00    +0.000 NA
ATOM     10  C   UNL     1      -0.142   9.894  22.188  0.00  0.00    +0.000 A 
ATOM     11  N   UNL     1      -0.925   9.858  23.350  0.00  0.00    +0.000 N 
ATOM     12  C   UNL     1       0.071  11.082  21.488  0.00  0.00    +0.000 A 
ATOM     13  C   UNL     1      -0.422  12.360  21.851  0.00  0.00    +0.000 A 
ATOM     14  C   UNL     1      -0.168  13.480  21.052  0.00  0.00    +0.000 A 
ATOM     15  H   UNL     1      -0.912   8.897  23.683  0.00  0.00    +0.000 HD
ATOM     16  H   UNL     1      -0.576  10.499  24.052  0.00  0.00    +0.000 HD
BRANCH   2  18
ATOM     17  C   UNL     1       2.141  14.658  18.752  0.00  0.00    +0.000 C 
ATOM     18  O   UNL     1       0.771  14.410  19.071  0.00  0.00    +0.000 OA
ENDBRANCH   2  18
BRANCH  14  19
ATOM     19  O   UNL     1      -0.601  14.749  21.341  0.00  0.00    +0.000 OA
ATOM     20  C   UNL     1      -1.939  14.892  21.797  0.00  0.00    +0.000 C 
ENDBRANCH  14  19
ENDBRANCH   1   7
BRANCH   1  21
ATOM     21  C   UNL     1       2.383   5.166  20.700  0.00  0.00    +0.000 C 
BRANCH  21  22
ATOM     22  C   UNL     1       2.320   3.991  21.680  0.00  0.00    +0.000 C 
BRANCH  22  23
ATOM     23  C   UNL     1       1.889   2.679  21.019  0.00  0.00    +0.000 C 
BRANCH  23  24
ATOM     24  C   UNL     1       0.837   2.915  19.935  0.00  0.00    +0.000 C 
BRANCH  24  25
ATOM     25  C   UNL     1       1.304   2.357  18.587  0.00  0.00    +0.000 C 
BRANCH  25  26
ATOM     26  N   UNL     1       2.239   3.263  17.923  0.00  0.00    +0.000 N 
ATOM     27  C   UNL     1       1.664   4.475  17.350  0.00  0.00    +0.000 C 
ATOM     28  C   UNL     1       3.562   2.830  17.766  0.00  0.00    +0.000 C 
ATOM     29  O   UNL     1       3.922   1.703  18.120  0.00  0.00    +0.000 OA
BRANCH  28  30
ATOM     30  C   UNL     1       4.596   3.701  17.135  0.00  0.00    +0.000 A 
ATOM     31  C   UNL     1       4.763   3.625  15.745  0.00  0.00    +0.000 A 
ATOM     32  C   UNL     1       5.709   4.426  15.101  0.00  0.00    +0.000 A 
ATOM     33  C   UNL     1       6.478   5.328  15.836  0.00  0.00    +0.000 A 
ATOM     34  C   UNL     1       6.344   5.397  17.227  0.00  0.00    +0.000 A 
ATOM     35  C   UNL     1       5.433   4.544  17.868  0.00  0.00    +0.000 A 
BRANCH  34  36
ATOM     36  C   UNL     1       7.133   6.391  18.042  0.00  0.00    +0.000 C 
BRANCH  36  37
ATOM     37  N   UNL     1       7.420   7.597  17.265  0.00  0.00    +0.000 NA
ATOM     38  H   UNL     1       7.560   8.374  17.912  0.00  0.00    +0.000 HD
ATOM     39  H   UNL     1       6.602   7.836  16.709  0.00  0.00    +0.000 HD
ENDBRANCH  36  37
ENDBRANCH  34  36
ENDBRANCH  28  30
ENDBRANCH  25  26
ENDBRANCH  24  25
ENDBRANCH  23  24
ENDBRANCH  22  23
ENDBRANCH  21  22
ENDBRANCH   1  21
TORSDOF 12
ENDMDL
MODEL 5
REMARK VINA RESULT:      -7.2      2.043      3.162
REMARK  Name = 
REMARK  16 active torsions:
REMARK  status: ('A' for Active; 'I' for Inactive)
REMARK    1  A    between atoms: C_1  and  O_2
REMARK    2  A    between atoms: O_2  and  C_3
REMARK    3  A    between atoms: N_8  and  C_9
REMARK    4  A    between atoms: N_8  and  C_10
REMARK    5  A    between atoms: C_10  and  C_11
REMARK    6  A    between atoms: C_11  and  C_12
REMARK    7  A    between atoms: C_12  and  C_13
REMARK    8  A    between atoms: C_13  and  C_14
REMARK    9  A    between atoms: C_14  and  C_15
REMARK   10  A    between atoms: C_15  and  N_16
REMARK   11  A    between atoms: N_16  and  C_17
REMARK   12  A    between atoms: C_18  and  C_20
REMARK   13  A    between atoms: C_24  and  C_25
REMARK   14  A    between atoms: C_25  and  N_26
REMARK   15  A    between atoms: C_33  and  O_34
REMARK   16  A    between atoms: O_34  and  C_35
REMARK                            x       y       z     vdW  Elec       q    Type
REMARK                         _______ _______ _______ _____ _____    ______ ____
ROOT
ATOM      1  C   UNL     1       1.512   8.533  20.190  0.00  0.00    +0.000 C 
ENDROOT
BRANCH   1   7
ATOM      2  C   UNL     1      -1.201  15.177  20.260  0.00  0.00    +0.000 A 
ATOM      3  C   UNL     1      -1.137  13.857  20.717  0.00  0.00    +0.000 A 
ATOM      4  C   UNL     1      -0.270  12.930  20.164  0.00  0.00    +0.000 A 
ATOM      5  N   UNL     1      -0.258  11.701  20.675  0.00  0.00    +0.000 NA
ATOM      6  C   UNL     1       0.596  10.801  20.177  0.00  0.00    +0.000 A 
ATOM      7  N   UNL     1       0.579   9.525  20.694  0.00  0.00    +0.000 N 
ATOM      8  C   UNL     1      -0.295   9.177  21.795  0.00  0.00    +0.000 C 
ATOM      9  N   UNL     1       1.445  11.092  19.177  0.00  0.00    +0.000 NA
ATOM     10  C   UNL     1       1.411  12.324  18.655  0.00  0.00    +0.000 A 
ATOM     11  N   UNL     1       2.332  12.564  17.626  0.00  0.00    +0.000 N 
ATOM     12  C   UNL     1       0.549  13.321  19.112  0.00  0.00    +0.000 A 
ATOM     13  C   UNL     1       0.466  14.642  18.605  0.00  0.00    +0.000 A 
ATOM     14  C   UNL     1      -0.419  15.570  19.166  0.00  0.00    +0.000 A 
ATOM     15  H   UNL     1       2.822  11.688  17.461  0.00  0.00    +0.000 HD
ATOM     16  H   UNL     1       1.872  12.897  16.787  0.00  0.00    +0.000 HD
BRANCH   2  18
ATOM     17  C   UNL     1      -3.321  15.601  21.206  0.00  0.00    +0.000 C 
ATOM     18  O   UNL     1      -2.041  16.108  20.824  0.00  0.00    +0.000 OA
ENDBRANCH   2  18
BRANCH  14  19
ATOM     19  O   UNL     1      -0.566  16.861  18.725  0.00  0.00    +0.000 OA
ATOM     20  C   UNL     1       0.550  17.729  18.871  0.00  0.00    +0.000 C 
ENDBRANCH  14  19
ENDBRANCH   1   7
BRANCH   1  21
ATOM     21  C   UNL     1       1.416   7.224  20.981  0.00  0.00    +0.000 C 
BRANCH  21  22
ATOM     22  C   UNL     1       1.970   6.023  20.210  0.00  0.00    +0.000 C 
BRANCH  22  23
ATOM     23  C   UNL     1       1.949   4.725  21.021  0.00  0.00    +0.000 C 
BRANCH  23  24
ATOM     24  C   UNL     1       1.229   3.605  20.271  0.00  0.00    +0.000 C 
BRANCH  24  25
ATOM     25  C   UNL     1       2.231   2.666  19.592  0.00  0.00    +0.000 C 
BRANCH  25  26
ATOM     26  N   UNL     1       3.020   3.362  18.577  0.00  0.00    +0.000 N 
ATOM     27  C   UNL     1       2.305   3.766  17.372  0.00  0.00    +0.000 C 
ATOM     28  C   UNL     1       4.404   3.450  18.777  0.00  0.00    +0.000 C 
ATOM     29  O   UNL     1       4.954   2.914  19.743  0.00  0.00    +0.000 OA
BRANCH  28  30
ATOM     30  C   UNL     1       5.284   4.174  17.815  0.00  0.00    +0.000 A 
ATOM     31  C   UNL     1       5.402   3.661  16.515  0.00  0.00    +0.000 A 
ATOM     32  C   UNL     1       6.204   4.305  15.570  0.00  0.00    +0.000 A 
ATOM     33  C   UNL     1       6.875   5.481  15.908  0.00  0.00    +0.000 A 
ATOM     34  C   UNL     1       6.791   5.991  17.208  0.00  0.00    +0.000 A 
ATOM     35  C   UNL     1       6.030   5.301  18.164  0.00  0.00    +0.000 A 
BRANCH  34  36
ATOM     36  C   UNL     1       7.473   7.281  17.589  0.00  0.00    +0.000 C 
BRANCH  36  37
ATOM     37  N   UNL     1       8.296   7.107  18.786  0.00  0.00    +0.000 NA
ATOM     38  H   UNL     1       9.255   7.371  18.561  0.00  0.00    +0.000 HD
ATOM     39  H   UNL     1       8.323   6.120  19.030  0.00  0.00    +0.000 HD
ENDBRANCH  36  37
ENDBRANCH  34  36
ENDBRANCH  28  30
ENDBRANCH  25  26
ENDBRANCH  24  25
ENDBRANCH  23  24
ENDBRANCH  22  23
ENDBRANCH  21  22
ENDBRANCH   1  21
TORSDOF 12
ENDMDL
MODEL 6
REMARK VINA RESULT:      -7.1      1.859      2.866
REMARK  Name = 
REMARK  16 active torsions:
REMARK  status: ('A' for Active; 'I' for Inactive)
REMARK    1  A    between atoms: C_1  and  O_2
REMARK    2  A    between atoms: O_2  and  C_3
REMARK    3  A    between atoms: N_8  and  C_9
REMARK    4  A    between atoms: N_8  and  C_10
REMARK    5  A    between atoms: C_10  and  C_11
REMARK    6  A    between atoms: C_11  and  C_12
REMARK    7  A    between atoms: C_12  and  C_13
REMARK    8  A    between atoms: C_13  and  C_14
REMARK    9  A    between atoms: C_14  and  C_15
REMARK   10  A    between atoms: C_15  and  N_16
REMARK   11  A    between atoms: N_16  and  C_17
REMARK   12  A    between atoms: C_18  and  C_20
REMARK   13  A    between atoms: C_24  and  C_25
REMARK   14  A    between atoms: C_25  and  N_26
REMARK   15  A    between atoms: C_33  and  O_34
REMARK   16  A    between atoms: O_34  and  C_35
REMARK                            x       y       z     vdW  Elec       q    Type
REMARK                         _______ _______ _______ _____ _____    ______ ____
ROOT
ATOM      1  C   UNL     1       1.879   7.967  19.954  0.00  0.00    +0.000 C 
ENDROOT
BRANCH   1   7
ATOM      2  C   UNL     1      -1.179  14.447  20.367  0.00  0.00    +0.000 A 
ATOM      3  C   UNL     1      -1.041  13.111  20.758  0.00  0.00    +0.000 A 
ATOM      4  C   UNL     1      -0.132  12.259  20.155  0.00  0.00    +0.000 A 
ATOM      5  N   UNL     1      -0.051  11.009  20.606  0.00  0.00    +0.000 NA
ATOM      6  C   UNL     1       0.844  10.181  20.058  0.00  0.00    +0.000 A 
ATOM      7  N   UNL     1       0.899   8.882  20.512  0.00  0.00    +0.000 N 
ATOM      8  C   UNL     1       0.055   8.435  21.600  0.00  0.00    +0.000 C 
ATOM      9  N   UNL     1       1.668  10.564  19.069  0.00  0.00    +0.000 NA
ATOM     10  C   UNL     1       1.565  11.817  18.607  0.00  0.00    +0.000 A 
ATOM     11  N   UNL     1       2.463  12.155  17.586  0.00  0.00    +0.000 N 
ATOM     12  C   UNL     1       0.656  12.744  19.119  0.00  0.00    +0.000 A 
ATOM     13  C   UNL     1       0.499  14.082  18.677  0.00  0.00    +0.000 A 
ATOM     14  C   UNL     1      -0.428  14.933  19.288  0.00  0.00    +0.000 A 
ATOM     15  H   UNL     1       2.997  11.316  17.375  0.00  0.00    +0.000 HD
ATOM     16  H   UNL     1       1.978  12.503  16.767  0.00  0.00    +0.000 HD
BRANCH   2  18
ATOM     17  C   UNL     1      -3.434  14.920  20.877  0.00  0.00    +0.000 C 
ATOM     18  O   UNL     1      -2.062  15.304  20.981  0.00  0.00    +0.000 OA
ENDBRANCH   2  18
BRANCH  14  19
ATOM     19  O   UNL     1      -0.646  16.234  18.912  0.00  0.00    +0.000 OA
ATOM     20  C   UNL     1       0.482  17.097  18.871  0.00  0.00    +0.000 C 
ENDBRANCH  14  19
ENDBRANCH   1   7
BRANCH   1  21
ATOM     21  C   UNL     1       1.415   6.511  20.076  0.00  0.00    +0.000 C 
BRANCH  21  22
ATOM     22  C   UNL     1       2.362   5.656  20.923  0.00  0.00    +0.000 C 
BRANCH  22  23
ATOM     23  C   UNL     1       1.847   4.232  21.149  0.00  0.00    +0.000 C 
BRANCH  23  24
ATOM     24  C   UNL     1       1.012   3.741  19.966  0.00  0.00    +0.000 C 
BRANCH  24  25
ATOM     25  C   UNL     1       1.719   2.598  19.232  0.00  0.00    +0.000 C 
BRANCH  25  26
ATOM     26  N   UNL     1       3.119   2.915  18.960  0.00  0.00    +0.000 N 
ATOM     27  C   UNL     1       4.102   2.301  19.847  0.00  0.00    +0.000 C 
ATOM     28  C   UNL     1       3.389   3.881  17.982  0.00  0.00    +0.000 C 
ATOM     29  O   UNL     1       2.483   4.489  17.405  0.00  0.00    +0.000 OA
BRANCH  28  30
ATOM     30  C   UNL     1       4.787   4.242  17.611  0.00  0.00    +0.000 A 
ATOM     31  C   UNL     1       5.248   3.875  16.338  0.00  0.00    +0.000 A 
ATOM     32  C   UNL     1       6.545   4.197  15.934  0.00  0.00    +0.000 A 
ATOM     33  C   UNL     1       7.386   4.912  16.788  0.00  0.00    +0.000 A 
ATOM     34  C   UNL     1       6.953   5.262  18.072  0.00  0.00    +0.000 A 
ATOM     35  C   UNL     1       5.669   4.879  18.486  0.00  0.00    +0.000 A 
BRANCH  34  36
ATOM     36  C   UNL     1       7.826   6.069  18.999  0.00  0.00    +0.000 C 
BRANCH  36  37
ATOM     37  N   UNL     1       8.013   5.381  20.276  0.00  0.00    +0.000 NA
ATOM     38  H   UNL     1       7.404   4.563  20.296  0.00  0.00    +0.000 HD
ATOM     39  H   UNL     1       7.698   5.987  21.030  0.00  0.00    +0.000 HD
ENDBRANCH  36  37
ENDBRANCH  34  36
ENDBRANCH  28  30
ENDBRANCH  25  26
ENDBRANCH  24  25
ENDBRANCH  23  24
ENDBRANCH  22  23
ENDBRANCH  21  22
ENDBRANCH   1  21
TORSDOF 12
ENDMDL
MODEL 7
REMARK VINA RESULT:      -7.1      1.507      1.940
REMARK  Name = 
REMARK  16 active torsions:
REMARK  status: ('A' for Active; 'I' for Inactive)
REMARK    1  A    between atoms: C_1  and  O_2
REMARK    2  A    between atoms: O_2  and  C_3
REMARK    3  A    between atoms: N_8  and  C_9
REMARK    4  A    between atoms: N_8  and  C_10
REMARK    5  A    between atoms: C_10  and  C_11
REMARK    6  A    between atoms: C_11  and  C_12
REMARK    7  A    between atoms: C_12  and  C_13
REMARK    8  A    between atoms: C_13  and  C_14
REMARK    9  A    between atoms: C_14  and  C_15
REMARK   10  A    between atoms: C_15  and  N_16
REMARK   11  A    between atoms: N_16  and  C_17
REMARK   12  A    between atoms: C_18  and  C_20
REMARK   13  A    between atoms: C_24  and  C_25
REMARK   14  A    between atoms: C_25  and  N_26
REMARK   15  A    between atoms: C_33  and  O_34
REMARK   16  A    between atoms: O_34  and  C_35
REMARK                            x       y       z     vdW  Elec       q    Type
REMARK                         _______ _______ _______ _____ _____    ______ ____
ROOT
ATOM      1  C   UNL     1       2.074   6.925  20.560  0.00  0.00    +0.000 C 
ENDROOT
BRANCH   1   7
ATOM      2  C   UNL     1      -1.027  13.397  20.681  0.00  0.00    +0.000 A 
ATOM      3  C   UNL     1      -0.300  12.379  20.054  0.00  0.00    +0.000 A 
ATOM      4  C   UNL     1       0.041  11.209  20.711  0.00  0.00    +0.000 A 
ATOM      5  N   UNL     1       0.715  10.283  20.032  0.00  0.00    +0.000 NA
ATOM      6  C   UNL     1       1.024   9.133  20.639  0.00  0.00    +0.000 A 
ATOM      7  N   UNL     1       1.746   8.195  19.936  0.00  0.00    +0.000 N 
ATOM      8  C   UNL     1       2.110   8.416  18.552  0.00  0.00    +0.000 C 
ATOM      9  N   UNL     1       0.677   8.875  21.911  0.00  0.00    +0.000 NA
ATOM     10  C   UNL     1       0.019   9.820  22.592  0.00  0.00    +0.000 A 
ATOM     11  N   UNL     1      -0.324   9.480  23.908  0.00  0.00    +0.000 N 
ATOM     12  C   UNL     1      -0.340  11.049  22.038  0.00  0.00    +0.000 A 
ATOM     13  C   UNL     1      -1.037  12.088  22.703  0.00  0.00    +0.000 A 
ATOM     14  C   UNL     1      -1.370  13.270  22.033  0.00  0.00    +0.000 A 
ATOM     15  H   UNL     1       0.063   8.556  24.083  0.00  0.00    +0.000 HD
ATOM     16  H   UNL     1       0.027  10.162  24.570  0.00  0.00    +0.000 HD
BRANCH   2  18
ATOM     17  C   UNL     1      -0.348  15.149  19.254  0.00  0.00    +0.000 C 
ATOM     18  O   UNL     1      -1.391  14.549  20.024  0.00  0.00    +0.000 OA
ENDBRANCH   2  18
BRANCH  14  19
ATOM     19  O   UNL     1      -2.033  14.324  22.610  0.00  0.00    +0.000 OA
ATOM     20  C   UNL     1      -1.442  14.915  23.759  0.00  0.00    +0.000 C 
ENDBRANCH  14  19
ENDBRANCH   1   7
BRANCH   1  21
ATOM     21  C   UNL     1       1.983   5.771  19.557  0.00  0.00    +0.000 C 
BRANCH  21  22
ATOM     22  C   UNL     1       0.974   4.698  19.977  0.00  0.00    +0.000 C 
BRANCH  22  23
ATOM     23  C   UNL     1       1.627   3.490  20.656  0.00  0.00    +0.000 C 
BRANCH  23  24
ATOM     24  C   UNL     1       1.355   2.198  19.887  0.00  0.00    +0.000 C 
BRANCH  24  25
ATOM     25  C   UNL     1       2.643   1.644  19.270  0.00  0.00    +0.000 C 
BRANCH  25  26
ATOM     26  N   UNL     1       3.314   2.640  18.438  0.00  0.00    +0.000 N 
ATOM     27  C   UNL     1       2.686   2.935  17.155  0.00  0.00    +0.000 C 
ATOM     28  C   UNL     1       4.562   3.112  18.867  0.00  0.00    +0.000 C 
ATOM     29  O   UNL     1       5.108   2.667  19.880  0.00  0.00    +0.000 OA
BRANCH  28  30
ATOM     30  C   UNL     1       5.303   4.157  18.103  0.00  0.00    +0.000 A 
ATOM     31  C   UNL     1       5.836   5.240  18.815  0.00  0.00    +0.000 A 
ATOM     32  C   UNL     1       6.548   6.242  18.151  0.00  0.00    +0.000 A 
ATOM     33  C   UNL     1       6.756   6.156  16.774  0.00  0.00    +0.000 A 
ATOM     34  C   UNL     1       6.207   5.097  16.043  0.00  0.00    +0.000 A 
ATOM     35  C   UNL     1       5.442   4.130  16.714  0.00  0.00    +0.000 A 
BRANCH  34  36
ATOM     36  C   UNL     1       6.449   4.958  14.561  0.00  0.00    +0.000 C 
BRANCH  36  37
ATOM     37  N   UNL     1       6.349   3.561  14.141  0.00  0.00    +0.000 NA
ATOM     38  H   UNL     1       5.606   3.485  13.446  0.00  0.00    +0.000 HD
ATOM     39  H   UNL     1       6.055   2.996  14.933  0.00  0.00    +0.000 HD
ENDBRANCH  36  37
ENDBRANCH  34  36
ENDBRANCH  28  30
ENDBRANCH  25  26
ENDBRANCH  24  25
ENDBRANCH  23  24
ENDBRANCH  22  23
ENDBRANCH  21  22
ENDBRANCH   1  21
TORSDOF 12
ENDMDL
MODEL 8
REMARK VINA RESULT:      -7.1      1.858      3.066
REMARK  Name = 
REMARK  16 active torsions:
REMARK  status: ('A' for Active; 'I' for Inactive)
REMARK    1  A    between atoms: C_1  and  O_2
REMARK    2  A    between atoms: O_2  and  C_3
REMARK    3  A    between atoms: N_8  and  C_9
REMARK    4  A    between atoms: N_8  and  C_10
REMARK    5  A    between atoms: C_10  and  C_11
REMARK    6  A    between atoms: C_11  and  C_12
REMARK    7  A    between atoms: C_12  and  C_13
REMARK    8  A    between atoms: C_13  and  C_14
REMARK    9  A    between atoms: C_14  and  C_15
REMARK   10  A    between atoms: C_15  and  N_16
REMARK   11  A    between atoms: N_16  and  C_17
REMARK   12  A    between atoms: C_18  and  C_20
REMARK   13  A    between atoms: C_24  and  C_25
REMARK   14  A    between atoms: C_25  and  N_26
REMARK   15  A    between atoms: C_33  and  O_34
REMARK   16  A    between atoms: O_34  and  C_35
REMARK                            x       y       z     vdW  Elec       q    Type
REMARK                         _______ _______ _______ _____ _____    ______ ____
ROOT
ATOM      1  C   UNL     1       1.645   7.768  20.284  0.00  0.00    +0.000 C 
ENDROOT
BRANCH   1   7
ATOM      2  C   UNL     1      -1.446  14.228  20.746  0.00  0.00    +0.000 A 
ATOM      3  C   UNL     1      -1.300  12.891  21.129  0.00  0.00    +0.000 A 
ATOM      4  C   UNL     1      -0.389  12.048  20.517  0.00  0.00    +0.000 A 
ATOM      5  N   UNL     1      -0.299  10.796  20.960  0.00  0.00    +0.000 NA
ATOM      6  C   UNL     1       0.599   9.975  20.404  0.00  0.00    +0.000 A 
ATOM      7  N   UNL     1       0.663   8.674  20.851  0.00  0.00    +0.000 N 
ATOM      8  C   UNL     1      -0.175   8.217  21.939  0.00  0.00    +0.000 C 
ATOM      9  N   UNL     1       1.417  10.369  19.414  0.00  0.00    +0.000 NA
ATOM     10  C   UNL     1       1.304  11.624  18.961  0.00  0.00    +0.000 A 
ATOM     11  N   UNL     1       2.197  11.973  17.938  0.00  0.00    +0.000 N 
ATOM     12  C   UNL     1       0.393  12.543  19.481  0.00  0.00    +0.000 A 
ATOM     13  C   UNL     1       0.227  13.882  19.048  0.00  0.00    +0.000 A 
ATOM     14  C   UNL     1      -0.703  14.725  19.668  0.00  0.00    +0.000 A 
ATOM     15  H   UNL     1       2.734  11.138  17.719  0.00  0.00    +0.000 HD
ATOM     16  H   UNL     1       1.707  12.323  17.123  0.00  0.00    +0.000 HD
BRANCH   2  18
ATOM     17  C   UNL     1      -3.510  14.444  21.870  0.00  0.00    +0.000 C 
ATOM     18  O   UNL     1      -2.331  15.077  21.369  0.00  0.00    +0.000 OA
ENDBRANCH   2  18
BRANCH  14  19
ATOM     19  O   UNL     1      -0.929  16.027  19.300  0.00  0.00    +0.000 OA
ATOM     20  C   UNL     1      -0.052  16.594  18.337  0.00  0.00    +0.000 C 
ENDBRANCH  14  19
ENDBRANCH   1   7
BRANCH   1  21
ATOM     21  C   UNL     1       1.219   6.306  20.455  0.00  0.00    +0.000 C 
BRANCH  21  22
ATOM     22  C   UNL     1       2.366   5.405  20.922  0.00  0.00    +0.000 C 
BRANCH  22  23
ATOM     23  C   UNL     1       1.897   4.019  21.374  0.00  0.00    +0.000 C 
BRANCH  23  24
ATOM     24  C   UNL     1       1.219   3.257  20.236  0.00  0.00    +0.000 C 
BRANCH  24  25
ATOM     25  C   UNL     1       2.243   2.461  19.420  0.00  0.00    +0.000 C 
BRANCH  25  26
ATOM     26  N   UNL     1       3.062   3.336  18.583  0.00  0.00    +0.000 N 
ATOM     27  C   UNL     1       2.388   3.957  17.449  0.00  0.00    +0.000 C 
ATOM     28  C   UNL     1       4.437   3.387  18.848  0.00  0.00    +0.000 C 
ATOM     29  O   UNL     1       4.956   2.681  19.718  0.00  0.00    +0.000 OA
BRANCH  28  30
ATOM     30  C   UNL     1       5.345   4.279  18.072  0.00  0.00    +0.000 A 
ATOM     31  C   UNL     1       5.976   5.331  18.751  0.00  0.00    +0.000 A 
ATOM     32  C   UNL     1       6.845   6.191  18.075  0.00  0.00    +0.000 A 
ATOM     33  C   UNL     1       7.112   5.992  16.721  0.00  0.00    +0.000 A 
ATOM     34  C   UNL     1       6.470   4.964  16.020  0.00  0.00    +0.000 A 
ATOM     35  C   UNL     1       5.553   4.146  16.698  0.00  0.00    +0.000 A 
BRANCH  34  36
ATOM     36  C   UNL     1       6.770   4.702  14.566  0.00  0.00    +0.000 C 
BRANCH  36  37
ATOM     37  N   UNL     1       7.898   5.511  14.108  0.00  0.00    +0.000 NA
ATOM     38  H   UNL     1       8.103   6.214  14.818  0.00  0.00    +0.000 HD
ATOM     39  H   UNL     1       7.623   6.024  13.273  0.00  0.00    +0.000 HD
ENDBRANCH  36  37
ENDBRANCH  34  36
ENDBRANCH  28  30
ENDBRANCH  25  26
ENDBRANCH  24  25
ENDBRANCH  23  24
ENDBRANCH  22  23
ENDBRANCH  21  22
ENDBRANCH   1  21
TORSDOF 12
ENDMDL
MODEL 9
REMARK VINA RESULT:      -7.0      2.207      2.754
REMARK  Name = 
REMARK  16 active torsions:
REMARK  status: ('A' for Active; 'I' for Inactive)
REMARK    1  A    between atoms: C_1  and  O_2
REMARK    2  A    between atoms: O_2  and  C_3
REMARK    3  A    between atoms: N_8  and  C_9
REMARK    4  A    between atoms: N_8  and  C_10
REMARK    5  A    between atoms: C_10  and  C_11
REMARK    6  A    between atoms: C_11  and  C_12
REMARK    7  A    between atoms: C_12  and  C_13
REMARK    8  A    between atoms: C_13  and  C_14
REMARK    9  A    between atoms: C_14  and  C_15
REMARK   10  A    between atoms: C_15  and  N_16
REMARK   11  A    between atoms: N_16  and  C_17
REMARK   12  A    between atoms: C_18  and  C_20
REMARK   13  A    between atoms: C_24  and  C_25
REMARK   14  A    between atoms: C_25  and  N_26
REMARK   15  A    between atoms: C_33  and  O_34
REMARK   16  A    between atoms: O_34  and  C_35
REMARK                            x       y       z     vdW  Elec       q    Type
REMARK                         _______ _______ _______ _____ _____    ______ ____
ROOT
ATOM      1  C   UNL     1       2.007   6.276  18.938  0.00  0.00    +0.000 C 
ENDROOT
BRANCH   1   7
ATOM      2  C   UNL     1       1.255  13.412  19.125  0.00  0.00    +0.000 A 
ATOM      3  C   UNL     1       1.788  12.232  18.594  0.00  0.00    +0.000 A 
ATOM      4  C   UNL     1       1.503  10.990  19.135  0.00  0.00    +0.000 A 
ATOM      5  N   UNL     1       2.035   9.917  18.553  0.00  0.00    +0.000 NA
ATOM      6  C   UNL     1       1.745   8.706  19.039  0.00  0.00    +0.000 A 
ATOM      7  N   UNL     1       2.324   7.606  18.448  0.00  0.00    +0.000 N 
ATOM      8  C   UNL     1       3.176   7.745  17.286  0.00  0.00    +0.000 C 
ATOM      9  N   UNL     1       0.933   8.531  20.096  0.00  0.00    +0.000 NA
ATOM     10  C   UNL     1       0.420   9.617  20.687  0.00  0.00    +0.000 A 
ATOM     11  N   UNL     1      -0.429   9.362  21.773  0.00  0.00    +0.000 N 
ATOM     12  C   UNL     1       0.674  10.916  20.247  0.00  0.00    +0.000 A 
ATOM     13  C   UNL     1       0.161  12.104  20.826  0.00  0.00    +0.000 A 
ATOM     14  C   UNL     1       0.462  13.355  20.278  0.00  0.00    +0.000 A 
ATOM     15  H   UNL     1      -0.435   8.355  21.911  0.00  0.00    +0.000 HD
ATOM     16  H   UNL     1      -0.121   9.850  22.606  0.00  0.00    +0.000 HD
BRANCH   2  18
ATOM     17  C   UNL     1       2.894  14.899  18.308  0.00  0.00    +0.000 C 
ATOM     18  O   UNL     1       1.514  14.645  18.575  0.00  0.00    +0.000 OA
ENDBRANCH   2  18
BRANCH  14  19
ATOM     19  O   UNL     1       0.014  14.548  20.786  0.00  0.00    +0.000 OA
ATOM     20  C   UNL     1       0.633  15.024  21.973  0.00  0.00    +0.000 C 
ENDBRANCH  14  19
ENDBRANCH   1   7
BRANCH   1  21
ATOM     21  C   UNL     1       2.815   5.939  20.196  0.00  0.00    +0.000 C 
BRANCH  21  22
ATOM     22  C   UNL     1       2.154   4.856  21.053  0.00  0.00    +0.000 C 
BRANCH  22  23
ATOM     23  C   UNL     1       1.101   4.045  20.292  0.00  0.00    +0.000 C 
BRANCH  23  24
ATOM     24  C   UNL     1       1.361   2.543  20.403  0.00  0.00    +0.000 C 
BRANCH  24  25
ATOM     25  C   UNL     1       1.877   1.976  19.077  0.00  0.00    +0.000 C 
BRANCH  25  26
ATOM     26  N   UNL     1       3.209   2.485  18.755  0.00  0.00    +0.000 N 
ATOM     27  C   UNL     1       4.251   2.235  19.745  0.00  0.00    +0.000 C 
ATOM     28  C   UNL     1       3.340   3.286  17.613  0.00  0.00    +0.000 C 
ATOM     29  O   UNL     1       2.362   3.603  16.929  0.00  0.00    +0.000 OA
BRANCH  28  30
ATOM     30  C   UNL     1       4.665   3.820  17.185  0.00  0.00    +0.000 A 
ATOM     31  C   UNL     1       5.577   4.197  18.181  0.00  0.00    +0.000 A 
ATOM     32  C   UNL     1       6.836   4.693  17.836  0.00  0.00    +0.000 A 
ATOM     33  C   UNL     1       7.206   4.792  16.495  0.00  0.00    +0.000 A 
ATOM     34  C   UNL     1       6.298   4.446  15.487  0.00  0.00    +0.000 A 
ATOM     35  C   UNL     1       5.015   4.007  15.846  0.00  0.00    +0.000 A 
BRANCH  34  36
ATOM     36  C   UNL     1       6.686   4.505  14.031  0.00  0.00    +0.000 C 
BRANCH  36  37
ATOM     37  N   UNL     1       6.221   3.317  13.315  0.00  0.00    +0.000 NA
ATOM     38  H   UNL     1       5.215   3.400  13.168  0.00  0.00    +0.000 HD
ATOM     39  H   UNL     1       6.354   2.500  13.906  0.00  0.00    +0.000 HD
ENDBRANCH  36  37
ENDBRANCH  34  36
ENDBRANCH  28  30
ENDBRANCH  25  26
ENDBRANCH  24  25
ENDBRANCH  23  24
ENDBRANCH  22  23
ENDBRANCH  21  22
ENDBRANCH   1  21
TORSDOF 12
ENDMDL
