MODEL 1
REMARK VINA RESULT:      -8.2      0.000      0.000
REMARK  Name = 
REMARK  5 active torsions:
REMARK  status: ('A' for Active; 'I' for Inactive)
REMARK    1  A    between atoms: C_1  and  C_2
REMARK    2  A    between atoms: C_2  and  C_3
REMARK    3  A    between atoms: C_2  and  C_4
REMARK    4  A    between atoms: C_2  and  C_5
REMARK    5  A    between atoms: C_12  and  C_13
REMARK                            x       y       z     vdW  Elec       q    Type
REMARK                         _______ _______ _______ _____ _____    ______ ____
ROOT
ATOM      1  C   UNL     1       2.987   3.660  19.215  0.00  0.00    +0.000 A 
ATOM      2  C   UNL     1       4.047   3.984  20.161  0.00  0.00    +0.000 A 
ATOM      3  C   UNL     1       5.275   4.310  19.740  0.00  0.00    +0.000 A 
ATOM      4  N   UNL     1       5.605   4.341  18.393  0.00  0.00    +0.000 N 
ATOM      5  C   UNL     1       6.891   4.692  18.010  0.00  0.00    +0.000 A 
ATOM      6  O   UNL     1       7.805   5.004  18.772  0.00  0.00    +0.000 OA
ATOM      7  C   UNL     1       7.154   4.674  16.562  0.00  0.00    +0.000 A 
ATOM      8  C   UNL     1       6.155   4.338  15.741  0.00  0.00    +0.000 A 
ATOM      9  N   UNL     1       4.897   4.012  16.154  0.00  0.00    +0.000 NA
ATOM     10  C   UNL     1       4.668   4.021  17.428  0.00  0.00    +0.000 A 
ATOM     11  C   UNL     1       3.302   3.666  17.906  0.00  0.00    +0.000 A 
ENDROOT
BRANCH   8  12
ATOM     12  C   UNL     1       6.433   4.291  14.295  0.00  0.00    +0.000 A 
ATOM     13  C   UNL     1       5.695   3.435  13.467  0.00  0.00    +0.000 A 
ATOM     14  C   UNL     1       5.974   3.359  12.102  0.00  0.00    +0.000 A 
ATOM     15  C   UNL     1       6.989   4.144  11.555  0.00  0.00    +0.000 A 
ATOM     16  C   UNL     1       7.722   5.006  12.369  0.00  0.00    +0.000 A 
ATOM     17  C   UNL     1       7.446   5.080  13.736  0.00  0.00    +0.000 A 
ENDBRANCH   8  12
BRANCH   1  19
ATOM     18  C   UNL     1       1.688   2.455  21.030  0.00  0.00    +0.000 C 
ATOM     19  C   UNL     1       1.585   3.329  19.761  0.00  0.00    +0.000 C 
ATOM     20  C   UNL     1       0.764   2.582  18.690  0.00  0.00    +0.000 C 
ATOM     21  C   UNL     1       0.783   4.594  20.160  0.00  0.00    +0.000 C 
ENDBRANCH   1  19
TORSDOF 2
ENDMDL
MODEL 2
REMARK VINA RESULT:      -8.2      0.600      1.538
REMARK  Name = 
REMARK  5 active torsions:
REMARK  status: ('A' for Active; 'I' for Inactive)
REMARK    1  A    between atoms: C_1  and  C_2
REMARK    2  A    between atoms: C_2  and  C_3
REMARK    3  A    between atoms: C_2  and  C_4
REMARK    4  A    between atoms: C_2  and  C_5
REMARK    5  A    between atoms: C_12  and  C_13
REMARK                            x       y       z     vdW  Elec       q    Type
REMARK                         _______ _______ _______ _____ _____    ______ ____
ROOT
ATOM      1  C   UNL     1       3.014   3.919  19.198  0.00  0.00    +0.000 A 
ATOM      2  C   UNL     1       3.902   4.719  20.034  0.00  0.00    +0.000 A 
ATOM      3  C   UNL     1       5.009   5.277  19.531  0.00  0.00    +0.000 A 
ATOM      4  N   UNL     1       5.377   5.113  18.204  0.00  0.00    +0.000 N 
ATOM      5  C   UNL     1       6.531   5.718  17.732  0.00  0.00    +0.000 A 
ATOM      6  O   UNL     1       7.290   6.427  18.393  0.00  0.00    +0.000 OA
ATOM      7  C   UNL     1       6.853   5.467  16.318  0.00  0.00    +0.000 A 
ATOM      8  C   UNL     1       6.022   4.699  15.606  0.00  0.00    +0.000 A 
ATOM      9  N   UNL     1       4.886   4.131  16.101  0.00  0.00    +0.000 NA
ATOM     10  C   UNL     1       4.607   4.347  17.347  0.00  0.00    +0.000 A 
ATOM     11  C   UNL     1       3.373   3.735  17.914  0.00  0.00    +0.000 A 
ENDROOT
BRANCH   8  12
ATOM     12  C   UNL     1       6.366   4.427  14.200  0.00  0.00    +0.000 A 
ATOM     13  C   UNL     1       7.428   5.110  13.593  0.00  0.00    +0.000 A 
ATOM     14  C   UNL     1       7.739   4.883  12.252  0.00  0.00    +0.000 A 
ATOM     15  C   UNL     1       6.994   3.967  11.510  0.00  0.00    +0.000 A 
ATOM     16  C   UNL     1       5.942   3.274  12.108  0.00  0.00    +0.000 A 
ATOM     17  C   UNL     1       5.627   3.503  13.450  0.00  0.00    +0.000 A 
ENDBRANCH   8  12
BRANCH   1  19
ATOM     18  C   UNL     1       0.955   2.495  18.793  0.00  0.00    +0.000 C 
ATOM     19  C   UNL     1       1.735   3.335  19.828  0.00  0.00    +0.000 C 
ATOM     20  C   UNL     1       0.834   4.476  20.344  0.00  0.00    +0.000 C 
ATOM     21  C   UNL     1       2.029   2.398  21.026  0.00  0.00    +0.000 C 
ENDBRANCH   1  19
TORSDOF 2
ENDMDL
MODEL 3
REMARK VINA RESULT:      -8.2      0.612      1.117
REMARK  Name = 
REMARK  5 active torsions:
REMARK  status: ('A' for Active; 'I' for Inactive)
REMARK    1  A    between atoms: C_1  and  C_2
REMARK    2  A    between atoms: C_2  and  C_3
REMARK    3  A    between atoms: C_2  and  C_4
REMARK    4  A    between atoms: C_2  and  C_5
REMARK    5  A    between atoms: C_12  and  C_13
REMARK                            x       y       z     vdW  Elec       q    Type
REMARK                         _______ _______ _______ _____ _____    ______ ____
ROOT
ATOM      1  C   UNL     1       2.945   3.915  19.194  0.00  0.00    +0.000 A 
ATOM      2  C   UNL     1       3.830   4.709  20.037  0.00  0.00    +0.000 A 
ATOM      3  C   UNL     1       4.939   5.270  19.541  0.00  0.00    +0.000 A 
ATOM      4  N   UNL     1       5.309   5.116  18.213  0.00  0.00    +0.000 N 
ATOM      5  C   UNL     1       6.465   5.725  17.749  0.00  0.00    +0.000 A 
ATOM      6  O   UNL     1       7.222   6.429  18.417  0.00  0.00    +0.000 OA
ATOM      7  C   UNL     1       6.789   5.485  16.333  0.00  0.00    +0.000 A 
ATOM      8  C   UNL     1       5.960   4.723  15.614  0.00  0.00    +0.000 A 
ATOM      9  N   UNL     1       4.823   4.151  16.102  0.00  0.00    +0.000 NA
ATOM     10  C   UNL     1       4.541   4.357  17.349  0.00  0.00    +0.000 A 
ATOM     11  C   UNL     1       3.306   3.741  17.909  0.00  0.00    +0.000 A 
ENDROOT
BRANCH   8  12
ATOM     12  C   UNL     1       6.307   4.460  14.206  0.00  0.00    +0.000 A 
ATOM     13  C   UNL     1       5.589   3.505  13.475  0.00  0.00    +0.000 A 
ATOM     14  C   UNL     1       5.932   3.225  12.151  0.00  0.00    +0.000 A 
ATOM     15  C   UNL     1       6.991   3.904  11.549  0.00  0.00    +0.000 A 
ATOM     16  C   UNL     1       7.705   4.864  12.266  0.00  0.00    +0.000 A 
ATOM     17  C   UNL     1       7.365   5.142  13.592  0.00  0.00    +0.000 A 
ENDBRANCH   8  12
BRANCH   1  19
ATOM     18  C   UNL     1       0.918   2.444  18.791  0.00  0.00    +0.000 C 
ATOM     19  C   UNL     1       1.664   3.327  19.816  0.00  0.00    +0.000 C 
ATOM     20  C   UNL     1       0.734   4.465  20.283  0.00  0.00    +0.000 C 
ATOM     21  C   UNL     1       1.951   2.429  21.045  0.00  0.00    +0.000 C 
ENDBRANCH   1  19
TORSDOF 2
ENDMDL
MODEL 4
REMARK VINA RESULT:      -8.1      1.002      6.789
REMARK  Name = 
REMARK  5 active torsions:
REMARK  status: ('A' for Active; 'I' for Inactive)
REMARK    1  A    between atoms: C_1  and  C_2
REMARK    2  A    between atoms: C_2  and  C_3
REMARK    3  A    between atoms: C_2  and  C_4
REMARK    4  A    between atoms: C_2  and  C_5
REMARK    5  A    between atoms: C_12  and  C_13
REMARK                            x       y       z     vdW  Elec       q    Type
REMARK                         _______ _______ _______ _____ _____    ______ ____
ROOT
ATOM      1  C   UNL     1       6.086   3.933  13.879  0.00  0.00    +0.000 A 
ATOM      2  C   UNL     1       7.243   4.671  14.371  0.00  0.00    +0.000 A 
ATOM      3  C   UNL     1       7.361   4.991  15.665  0.00  0.00    +0.000 A 
ATOM      4  N   UNL     1       6.391   4.653  16.596  0.00  0.00    +0.000 N 
ATOM      5  C   UNL     1       6.565   5.003  17.926  0.00  0.00    +0.000 A 
ATOM      6  O   UNL     1       7.539   5.596  18.389  0.00  0.00    +0.000 OA
ATOM      7  C   UNL     1       5.472   4.625  18.836  0.00  0.00    +0.000 A 
ATOM      8  C   UNL     1       4.419   3.978  18.327  0.00  0.00    +0.000 A 
ATOM      9  N   UNL     1       4.288   3.638  17.013  0.00  0.00    +0.000 NA
ATOM     10  C   UNL     1       5.248   3.977  16.212  0.00  0.00    +0.000 A 
ATOM     11  C   UNL     1       5.128   3.620  14.770  0.00  0.00    +0.000 A 
ENDROOT
BRANCH   8  12
ATOM     12  C   UNL     1       3.314   3.630  19.236  0.00  0.00    +0.000 A 
ATOM     13  C   UNL     1       2.014   4.072  18.960  0.00  0.00    +0.000 A 
ATOM     14  C   UNL     1       0.967   3.776  19.834  0.00  0.00    +0.000 A 
ATOM     15  C   UNL     1       1.212   3.029  20.986  0.00  0.00    +0.000 A 
ATOM     16  C   UNL     1       2.501   2.575  21.264  0.00  0.00    +0.000 A 
ATOM     17  C   UNL     1       3.551   2.875  20.392  0.00  0.00    +0.000 A 
ENDBRANCH   8  12
BRANCH   1  19
ATOM     18  C   UNL     1       7.019   4.422  11.572  0.00  0.00    +0.000 C 
ATOM     19  C   UNL     1       6.027   3.562  12.385  0.00  0.00    +0.000 C 
ATOM     20  C   UNL     1       4.599   3.780  11.844  0.00  0.00    +0.000 C 
ATOM     21  C   UNL     1       6.404   2.083  12.118  0.00  0.00    +0.000 C 
ENDBRANCH   1  19
TORSDOF 2
ENDMDL
MODEL 5
REMARK VINA RESULT:      -8.0      1.006      6.800
REMARK  Name = 
REMARK  5 active torsions:
REMARK  status: ('A' for Active; 'I' for Inactive)
REMARK    1  A    between atoms: C_1  and  C_2
REMARK    2  A    between atoms: C_2  and  C_3
REMARK    3  A    between atoms: C_2  and  C_4
REMARK    4  A    between atoms: C_2  and  C_5
REMARK    5  A    between atoms: C_12  and  C_13
REMARK                            x       y       z     vdW  Elec       q    Type
REMARK                         _______ _______ _______ _____ _____    ______ ____
ROOT
ATOM      1  C   UNL     1       6.077   3.939  13.869  0.00  0.00    +0.000 A 
ATOM      2  C   UNL     1       7.232   4.687  14.351  0.00  0.00    +0.000 A 
ATOM      3  C   UNL     1       7.349   5.025  15.641  0.00  0.00    +0.000 A 
ATOM      4  N   UNL     1       6.379   4.697  16.576  0.00  0.00    +0.000 N 
ATOM      5  C   UNL     1       6.552   5.066  17.901  0.00  0.00    +0.000 A 
ATOM      6  O   UNL     1       7.524   5.667  18.356  0.00  0.00    +0.000 OA
ATOM      7  C   UNL     1       5.459   4.697  18.815  0.00  0.00    +0.000 A 
ATOM      8  C   UNL     1       4.408   4.040  18.314  0.00  0.00    +0.000 A 
ATOM      9  N   UNL     1       4.278   3.681  17.005  0.00  0.00    +0.000 NA
ATOM     10  C   UNL     1       5.238   4.012  16.200  0.00  0.00    +0.000 A 
ATOM     11  C   UNL     1       5.119   3.635  14.763  0.00  0.00    +0.000 A 
ENDROOT
BRANCH   8  12
ATOM     12  C   UNL     1       3.304   3.701  19.228  0.00  0.00    +0.000 A 
ATOM     13  C   UNL     1       3.551   2.922  20.366  0.00  0.00    +0.000 A 
ATOM     14  C   UNL     1       2.505   2.567  21.219  0.00  0.00    +0.000 A 
ATOM     15  C   UNL     1       1.206   2.994  20.943  0.00  0.00    +0.000 A 
ATOM     16  C   UNL     1       0.952   3.778  19.818  0.00  0.00    +0.000 A 
ATOM     17  C   UNL     1       1.998   4.131  18.961  0.00  0.00    +0.000 A 
ENDBRANCH   8  12
BRANCH   1  19
ATOM     18  C   UNL     1       7.031   4.379  11.560  0.00  0.00    +0.000 C 
ATOM     19  C   UNL     1       6.020   3.548  12.379  0.00  0.00    +0.000 C 
ATOM     20  C   UNL     1       4.599   3.781  11.828  0.00  0.00    +0.000 C 
ATOM     21  C   UNL     1       6.373   2.059  12.136  0.00  0.00    +0.000 C 
ENDBRANCH   1  19
TORSDOF 2
ENDMDL
MODEL 6
REMARK VINA RESULT:      -7.8      4.584      8.242
REMARK  Name = 
REMARK  5 active torsions:
REMARK  status: ('A' for Active; 'I' for Inactive)
REMARK    1  A    between atoms: C_1  and  C_2
REMARK    2  A    between atoms: C_2  and  C_3
REMARK    3  A    between atoms: C_2  and  C_4
REMARK    4  A    between atoms: C_2  and  C_5
REMARK    5  A    between atoms: C_12  and  C_13
REMARK                            x       y       z     vdW  Elec       q    Type
REMARK                         _______ _______ _______ _____ _____    ______ ____
ROOT
ATOM      1  C   UNL     1       2.620   4.368  19.735  0.00  0.00    +0.000 A 
ATOM      2  C   UNL     1       3.107   4.787  18.427  0.00  0.00    +0.000 A 
ATOM      3  C   UNL     1       2.970   6.051  18.010  0.00  0.00    +0.000 A 
ATOM      4  N   UNL     1       2.351   7.018  18.787  0.00  0.00    +0.000 N 
ATOM      5  C   UNL     1       2.242   8.315  18.310  0.00  0.00    +0.000 A 
ATOM      6  O   UNL     1       2.667   8.718  17.228  0.00  0.00    +0.000 OA
ATOM      7  C   UNL     1       1.549   9.265  19.195  0.00  0.00    +0.000 A 
ATOM      8  C   UNL     1       1.093   8.821  20.370  0.00  0.00    +0.000 A 
ATOM      9  N   UNL     1       1.232   7.538  20.813  0.00  0.00    +0.000 NA
ATOM     10  C   UNL     1       1.836   6.701  20.031  0.00  0.00    +0.000 A 
ATOM     11  C   UNL     1       1.998   5.293  20.489  0.00  0.00    +0.000 A 
ENDROOT
BRANCH   8  12
ATOM     12  C   UNL     1       0.373   9.769  21.237  0.00  0.00    +0.000 A 
ATOM     13  C   UNL     1      -0.146   9.339  22.465  0.00  0.00    +0.000 A 
ATOM     14  C   UNL     1      -0.860  10.221  23.278  0.00  0.00    +0.000 A 
ATOM     15  C   UNL     1      -1.053  11.540  22.871  0.00  0.00    +0.000 A 
ATOM     16  C   UNL     1      -0.532  11.980  21.654  0.00  0.00    +0.000 A 
ATOM     17  C   UNL     1       0.179  11.097  20.838  0.00  0.00    +0.000 A 
ENDBRANCH   8  12
BRANCH   1  19
ATOM     18  C   UNL     1       1.961   1.951  19.338  0.00  0.00    +0.000 C 
ATOM     19  C   UNL     1       2.841   2.907  20.172  0.00  0.00    +0.000 C 
ATOM     20  C   UNL     1       2.495   2.746  21.667  0.00  0.00    +0.000 C 
ATOM     21  C   UNL     1       4.305   2.438  19.983  0.00  0.00    +0.000 C 
ENDBRANCH   1  19
TORSDOF 2
ENDMDL
MODEL 7
REMARK VINA RESULT:      -7.8      4.588      8.281
REMARK  Name = 
REMARK  5 active torsions:
REMARK  status: ('A' for Active; 'I' for Inactive)
REMARK    1  A    between atoms: C_1  and  C_2
REMARK    2  A    between atoms: C_2  and  C_3
REMARK    3  A    between atoms: C_2  and  C_4
REMARK    4  A    between atoms: C_2  and  C_5
REMARK    5  A    between atoms: C_12  and  C_13
REMARK                            x       y       z     vdW  Elec       q    Type
REMARK                         _______ _______ _______ _____ _____    ______ ____
ROOT
ATOM      1  C   UNL     1       2.567   4.360  19.705  0.00  0.00    +0.000 A 
ATOM      2  C   UNL     1       3.074   4.787  18.406  0.00  0.00    +0.000 A 
ATOM      3  C   UNL     1       2.949   6.056  17.998  0.00  0.00    +0.000 A 
ATOM      4  N   UNL     1       2.325   7.019  18.775  0.00  0.00    +0.000 N 
ATOM      5  C   UNL     1       2.229   8.321  18.308  0.00  0.00    +0.000 A 
ATOM      6  O   UNL     1       2.670   8.731  17.235  0.00  0.00    +0.000 OA
ATOM      7  C   UNL     1       1.528   9.267  19.191  0.00  0.00    +0.000 A 
ATOM      8  C   UNL     1       1.055   8.815  20.356  0.00  0.00    +0.000 A 
ATOM      9  N   UNL     1       1.180   7.528  20.789  0.00  0.00    +0.000 NA
ATOM     10  C   UNL     1       1.791   6.695  20.009  0.00  0.00    +0.000 A 
ATOM     11  C   UNL     1       1.940   5.282  20.458  0.00  0.00    +0.000 A 
ENDROOT
BRANCH   8  12
ATOM     12  C   UNL     1       0.327   9.760  21.221  0.00  0.00    +0.000 A 
ATOM     13  C   UNL     1       0.198  11.102  20.839  0.00  0.00    +0.000 A 
ATOM     14  C   UNL     1      -0.460  12.011  21.668  0.00  0.00    +0.000 A 
ATOM     15  C   UNL     1      -0.998  11.584  22.881  0.00  0.00    +0.000 A 
ATOM     16  C   UNL     1      -0.883  10.248  23.265  0.00  0.00    +0.000 A 
ATOM     17  C   UNL     1      -0.222   9.337  22.438  0.00  0.00    +0.000 A 
ENDBRANCH   8  12
BRANCH   1  19
ATOM     18  C   UNL     1       1.918   1.948  19.264  0.00  0.00    +0.000 C 
ATOM     19  C   UNL     1       2.774   2.894  20.133  0.00  0.00    +0.000 C 
ATOM     20  C   UNL     1       2.387   2.719  21.615  0.00  0.00    +0.000 C 
ATOM     21  C   UNL     1       4.243   2.426  19.979  0.00  0.00    +0.000 C 
ENDBRANCH   1  19
TORSDOF 2
ENDMDL
MODEL 8
REMARK VINA RESULT:      -7.5      3.641      7.707
REMARK  Name = 
REMARK  5 active torsions:
REMARK  status: ('A' for Active; 'I' for Inactive)
REMARK    1  A    between atoms: C_1  and  C_2
REMARK    2  A    between atoms: C_2  and  C_3
REMARK    3  A    between atoms: C_2  and  C_4
REMARK    4  A    between atoms: C_2  and  C_5
REMARK    5  A    between atoms: C_12  and  C_13
REMARK                            x       y       z     vdW  Elec       q    Type
REMARK                         _______ _______ _______ _____ _____    ______ ____
ROOT
ATOM      1  C   UNL     1       4.827   4.959  17.464  0.00  0.00    +0.000 A 
ATOM      2  C   UNL     1       4.577   3.773  18.273  0.00  0.00    +0.000 A 
ATOM      3  C   UNL     1       3.715   3.802  19.297  0.00  0.00    +0.000 A 
ATOM      4  N   UNL     1       3.032   4.956  19.649  0.00  0.00    +0.000 N 
ATOM      5  C   UNL     1       2.145   4.930  20.714  0.00  0.00    +0.000 A 
ATOM      6  O   UNL     1       1.880   3.944  21.402  0.00  0.00    +0.000 OA
ATOM      7  C   UNL     1       1.486   6.207  21.029  0.00  0.00    +0.000 A 
ATOM      8  C   UNL     1       1.776   7.272  20.276  0.00  0.00    +0.000 A 
ATOM      9  N   UNL     1       2.645   7.257  19.224  0.00  0.00    +0.000 NA
ATOM     10  C   UNL     1       3.229   6.134  18.953  0.00  0.00    +0.000 A 
ATOM     11  C   UNL     1       4.186   6.091  17.811  0.00  0.00    +0.000 A 
ENDROOT
BRANCH   8  12
ATOM     12  C   UNL     1       1.136   8.555  20.615  0.00  0.00    +0.000 A 
ATOM     13  C   UNL     1       0.694   8.793  21.923  0.00  0.00    +0.000 A 
ATOM     14  C   UNL     1       0.056   9.991  22.245  0.00  0.00    +0.000 A 
ATOM     15  C   UNL     1      -0.138  10.963  21.264  0.00  0.00    +0.000 A 
ATOM     16  C   UNL     1       0.309  10.740  19.961  0.00  0.00    +0.000 A 
ATOM     17  C   UNL     1       0.944   9.538  19.636  0.00  0.00    +0.000 A 
ENDBRANCH   8  12
BRANCH   1  19
ATOM     18  C   UNL     1       7.264   4.932  16.764  0.00  0.00    +0.000 C 
ATOM     19  C   UNL     1       5.802   4.851  16.276  0.00  0.00    +0.000 C 
ATOM     20  C   UNL     1       5.535   5.990  15.271  0.00  0.00    +0.000 C 
ATOM     21  C   UNL     1       5.666   3.513  15.508  0.00  0.00    +0.000 C 
ENDBRANCH   1  19
TORSDOF 2
ENDMDL
MODEL 9
REMARK VINA RESULT:      -7.5      3.641      7.716
REMARK  Name = 
REMARK  5 active torsions:
REMARK  status: ('A' for Active; 'I' for Inactive)
REMARK    1  A    between atoms: C_1  and  C_2
REMARK    2  A    between atoms: C_2  and  C_3
REMARK    3  A    between atoms: C_2  and  C_4
REMARK    4  A    between atoms: C_2  and  C_5
REMARK    5  A    between atoms: C_12  and  C_13
REMARK                            x       y       z     vdW  Elec       q    Type
REMARK                         _______ _______ _______ _____ _____    ______ ____
ROOT
ATOM      1  C   UNL     1       4.830   4.968  17.458  0.00  0.00    +0.000 A 
ATOM      2  C   UNL     1       4.586   3.778  18.264  0.00  0.00    +0.000 A 
ATOM      3  C   UNL     1       3.724   3.800  19.288  0.00  0.00    +0.000 A 
ATOM      4  N   UNL     1       3.034   4.950  19.642  0.00  0.00    +0.000 N 
ATOM      5  C   UNL     1       2.148   4.916  20.708  0.00  0.00    +0.000 A 
ATOM      6  O   UNL     1       1.888   3.927  21.392  0.00  0.00    +0.000 OA
ATOM      7  C   UNL     1       1.482   6.190  21.025  0.00  0.00    +0.000 A 
ATOM      8  C   UNL     1       1.767   7.258  20.275  0.00  0.00    +0.000 A 
ATOM      9  N   UNL     1       2.635   7.250  19.224  0.00  0.00    +0.000 NA
ATOM     10  C   UNL     1       3.226   6.131  18.949  0.00  0.00    +0.000 A 
ATOM     11  C   UNL     1       4.183   6.096  17.808  0.00  0.00    +0.000 A 
ENDROOT
BRANCH   8  12
ATOM     12  C   UNL     1       1.120   8.537  20.617  0.00  0.00    +0.000 A 
ATOM     13  C   UNL     1       0.962   9.526  19.637  0.00  0.00    +0.000 A 
ATOM     14  C   UNL     1       0.382  10.753  19.960  0.00  0.00    +0.000 A 
ATOM     15  C   UNL     1      -0.050  10.997  21.263  0.00  0.00    +0.000 A 
ATOM     16  C   UNL     1       0.094  10.015  22.243  0.00  0.00    +0.000 A 
ATOM     17  C   UNL     1       0.678   8.787  21.922  0.00  0.00    +0.000 A 
ENDBRANCH   8  12
BRANCH   1  19
ATOM     18  C   UNL     1       7.267   4.970  16.757  0.00  0.00    +0.000 C 
ATOM     19  C   UNL     1       5.806   4.868  16.270  0.00  0.00    +0.000 C 
ATOM     20  C   UNL     1       5.523   6.000  15.260  0.00  0.00    +0.000 C 
ATOM     21  C   UNL     1       5.687   3.525  15.507  0.00  0.00    +0.000 C 
ENDBRANCH   1  19
TORSDOF 2
ENDMDL
