MODEL 1
REMARK VINA RESULT:      -8.0      0.000      0.000
REMARK  Name = 
REMARK  7 active torsions:
REMARK  status: ('A' for Active; 'I' for Inactive)
REMARK    1  A    between atoms: C_2  and  C_5
REMARK    2  A    between atoms: C_9  and  O_10
REMARK    3  A    between atoms: O_10  and  C_11
REMARK    4  A    between atoms: C_11  and  C_12
REMARK    5  A    between atoms: C_14  and  O_15
REMARK    6  A    between atoms: O_15  and  C_16
REMARK    7  A    between atoms: C_16  and  C_17
REMARK                            x       y       z     vdW  Elec       q    Type
REMARK                         _______ _______ _______ _____ _____    ______ ____
ROOT
ATOM      1  C   UNL     1       6.566   5.259  17.292  0.00  0.00    +0.000 A 
ATOM      2  C   UNL     1       7.063   6.541  17.220  0.00  0.00    +0.000 A 
ATOM      3  C   UNL     1       7.843   6.662  18.381  0.00  0.00    +0.000 A 
ATOM      4  N   UNL     1       7.812   5.557  19.130  0.00  0.00    +0.000 NA
ATOM      5  O   UNL     1       7.018   4.665  18.432  0.00  0.00    +0.000 OA
ENDROOT
BRANCH   1   6
ATOM      6  C   UNL     1       5.609   4.472  16.483  0.00  0.00    +0.000 C 
BRANCH   6   7
ATOM      7  O   UNL     1       4.279   4.827  16.866  0.00  0.00    +0.000 OA
BRANCH   7  12
ATOM      8  C   UNL     1       2.356   3.407  19.731  0.00  0.00    +0.000 A 
ATOM      9  C   UNL     1       2.519   2.048  19.446  0.00  0.00    +0.000 A 
ATOM     10  C   UNL     1       3.260   1.649  18.336  0.00  0.00    +0.000 A 
ATOM     11  C   UNL     1       3.839   2.608  17.500  0.00  0.00    +0.000 A 
ATOM     12  C   UNL     1       3.676   3.970  17.752  0.00  0.00    +0.000 A 
ATOM     13  C   UNL     1       2.932   4.361  18.872  0.00  0.00    +0.000 A 
BRANCH   8  15
ATOM     14  F   UNL     1       0.749   4.923  20.688  0.00  0.00    +0.000 F 
ATOM     15  C   UNL     1       1.588   3.881  20.941  0.00  0.00    +0.000 C 
ATOM     16  F   UNL     1       2.408   4.293  21.947  0.00  0.00    +0.000 F 
ATOM     17  F   UNL     1       0.814   2.896  21.474  0.00  0.00    +0.000 F 
ENDBRANCH   8  15
ENDBRANCH   7  12
ENDBRANCH   6   7
ENDBRANCH   1   6
BRANCH   3  18
ATOM     18  O   UNL     1       8.516   7.763  18.790  0.00  0.00    +0.000 OA
BRANCH  18  19
ATOM     19  C   UNL     1       8.355   8.872  17.896  0.00  0.00    +0.000 C 
BRANCH  19  20
ATOM     20  C   UNL     1       8.706  10.188  18.597  0.00  0.00    +0.000 C 
ATOM     21  C   UNL     1       9.751  11.036  17.890  0.00  0.00    +0.000 C 
ATOM     22  C   UNL     1      10.158  12.011  18.983  0.00  0.00    +0.000 C 
ATOM     23  C   UNL     1       9.999  11.222  20.279  0.00  0.00    +0.000 C 
ATOM     24  N   UNL     1       9.340   9.968  19.909  0.00  0.00    +0.000 NA
ATOM     25  H   UNL     1       8.654   9.690  20.610  0.00  0.00    +0.000 HD
ENDBRANCH  19  20
ENDBRANCH  18  19
ENDBRANCH   3  18
TORSDOF 7
ENDMDL
MODEL 2
REMARK VINA RESULT:      -7.9      1.686      2.323
REMARK  Name = 
REMARK  7 active torsions:
REMARK  status: ('A' for Active; 'I' for Inactive)
REMARK    1  A    between atoms: C_2  and  C_5
REMARK    2  A    between atoms: C_9  and  O_10
REMARK    3  A    between atoms: O_10  and  C_11
REMARK    4  A    between atoms: C_11  and  C_12
REMARK    5  A    between atoms: C_14  and  O_15
REMARK    6  A    between atoms: O_15  and  C_16
REMARK    7  A    between atoms: C_16  and  C_17
REMARK                            x       y       z     vdW  Elec       q    Type
REMARK                         _______ _______ _______ _____ _____    ______ ____
ROOT
ATOM      1  C   UNL     1       7.267   5.986  17.747  0.00  0.00    +0.000 A 
ATOM      2  C   UNL     1       7.947   6.612  18.767  0.00  0.00    +0.000 A 
ATOM      3  C   UNL     1       8.166   7.909  18.274  0.00  0.00    +0.000 A 
ATOM      4  N   UNL     1       7.686   8.070  17.038  0.00  0.00    +0.000 NA
ATOM      5  O   UNL     1       7.103   6.858  16.713  0.00  0.00    +0.000 OA
ENDROOT
BRANCH   1   6
ATOM      6  C   UNL     1       6.794   4.603  17.514  0.00  0.00    +0.000 C 
BRANCH   6   7
ATOM      7  O   UNL     1       5.633   4.647  16.682  0.00  0.00    +0.000 OA
BRANCH   7  12
ATOM      8  C   UNL     1       2.592   3.512  18.523  0.00  0.00    +0.000 A 
ATOM      9  C   UNL     1       1.963   4.750  18.683  0.00  0.00    +0.000 A 
ATOM     10  C   UNL     1       2.552   5.905  18.174  0.00  0.00    +0.000 A 
ATOM     11  C   UNL     1       3.777   5.829  17.504  0.00  0.00    +0.000 A 
ATOM     12  C   UNL     1       4.433   4.609  17.348  0.00  0.00    +0.000 A 
ATOM     13  C   UNL     1       3.832   3.453  17.860  0.00  0.00    +0.000 A 
BRANCH   8  15
ATOM     14  F   UNL     1       1.814   2.196  20.383  0.00  0.00    +0.000 F 
ATOM     15  C   UNL     1       1.973   2.232  19.032  0.00  0.00    +0.000 C 
ATOM     16  F   UNL     1       2.713   1.135  18.711  0.00  0.00    +0.000 F 
ATOM     17  F   UNL     1       0.738   2.014  18.502  0.00  0.00    +0.000 F 
ENDBRANCH   8  15
ENDBRANCH   7  12
ENDBRANCH   6   7
ENDBRANCH   1   6
BRANCH   3  18
ATOM     18  O   UNL     1       8.838   8.906  18.896  0.00  0.00    +0.000 OA
BRANCH  18  19
ATOM     19  C   UNL     1       8.815  10.133  18.155  0.00  0.00    +0.000 C 
BRANCH  19  20
ATOM     20  C   UNL     1       9.423  11.274  18.977  0.00  0.00    +0.000 C 
ATOM     21  C   UNL     1      10.931  11.424  18.855  0.00  0.00    +0.000 C 
ATOM     22  C   UNL     1      11.256  12.318  20.041  0.00  0.00    +0.000 C 
ATOM     23  C   UNL     1      10.216  11.949  21.094  0.00  0.00    +0.000 C 
ATOM     24  N   UNL     1       9.262  11.063  20.426  0.00  0.00    +0.000 NA
ATOM     25  H   UNL     1       8.307  11.256  20.725  0.00  0.00    +0.000 HD
ENDBRANCH  19  20
ENDBRANCH  18  19
ENDBRANCH   3  18
TORSDOF 7
ENDMDL
MODEL 3
REMARK VINA RESULT:      -7.9      0.789      1.251
REMARK  Name = 
REMARK  7 active torsions:
REMARK  status: ('A' for Active; 'I' for Inactive)
REMARK    1  A    between atoms: C_2  and  C_5
REMARK    2  A    between atoms: C_9  and  O_10
REMARK    3  A    between atoms: O_10  and  C_11
REMARK    4  A    between atoms: C_11  and  C_12
REMARK    5  A    between atoms: C_14  and  O_15
REMARK    6  A    between atoms: O_15  and  C_16
REMARK    7  A    between atoms: C_16  and  C_17
REMARK                            x       y       z     vdW  Elec       q    Type
REMARK                         _______ _______ _______ _____ _____    ______ ____
ROOT
ATOM      1  C   UNL     1       6.651   5.141  17.239  0.00  0.00    +0.000 A 
ATOM      2  C   UNL     1       7.138   6.425  17.146  0.00  0.00    +0.000 A 
ATOM      3  C   UNL     1       7.839   6.601  18.350  0.00  0.00    +0.000 A 
ATOM      4  N   UNL     1       7.771   5.527  19.140  0.00  0.00    +0.000 NA
ATOM      5  O   UNL     1       7.033   4.598  18.428  0.00  0.00    +0.000 OA
ENDROOT
BRANCH   1   6
ATOM      6  C   UNL     1       5.757   4.310  16.401  0.00  0.00    +0.000 C 
BRANCH   6   7
ATOM      7  O   UNL     1       4.403   4.694  16.649  0.00  0.00    +0.000 OA
BRANCH   7  12
ATOM      8  C   UNL     1       2.397   3.659  19.620  0.00  0.00    +0.000 A 
ATOM      9  C   UNL     1       2.486   2.272  19.467  0.00  0.00    +0.000 A 
ATOM     10  C   UNL     1       3.208   1.730  18.406  0.00  0.00    +0.000 A 
ATOM     11  C   UNL     1       3.841   2.572  17.488  0.00  0.00    +0.000 A 
ATOM     12  C   UNL     1       3.751   3.958  17.607  0.00  0.00    +0.000 A 
ATOM     13  C   UNL     1       3.026   4.494  18.678  0.00  0.00    +0.000 A 
BRANCH   8  15
ATOM     14  F   UNL     1       1.790   3.617  21.949  0.00  0.00    +0.000 F 
ATOM     15  C   UNL     1       1.651   4.287  20.772  0.00  0.00    +0.000 C 
ATOM     16  F   UNL     1       0.312   4.368  20.541  0.00  0.00    +0.000 F 
ATOM     17  F   UNL     1       2.063   5.562  21.015  0.00  0.00    +0.000 F 
ENDBRANCH   8  15
ENDBRANCH   7  12
ENDBRANCH   6   7
ENDBRANCH   1   6
BRANCH   3  18
ATOM     18  O   UNL     1       8.473   7.726  18.757  0.00  0.00    +0.000 OA
BRANCH  18  19
ATOM     19  C   UNL     1       8.072   8.885  18.015  0.00  0.00    +0.000 C 
BRANCH  19  20
ATOM     20  C   UNL     1       9.049  10.042  18.245  0.00  0.00    +0.000 C 
ATOM     21  C   UNL     1       9.337  10.362  19.703  0.00  0.00    +0.000 C 
ATOM     22  C   UNL     1       9.973  11.739  19.605  0.00  0.00    +0.000 C 
ATOM     23  C   UNL     1       9.306  12.383  18.393  0.00  0.00    +0.000 C 
ATOM     24  N   UNL     1       8.516  11.327  17.759  0.00  0.00    +0.000 NA
ATOM     25  H   UNL     1       8.566  11.387  16.743  0.00  0.00    +0.000 HD
ENDBRANCH  19  20
ENDBRANCH  18  19
ENDBRANCH   3  18
TORSDOF 7
ENDMDL
MODEL 4
REMARK VINA RESULT:      -7.8      1.282      1.700
REMARK  Name = 
REMARK  7 active torsions:
REMARK  status: ('A' for Active; 'I' for Inactive)
REMARK    1  A    between atoms: C_2  and  C_5
REMARK    2  A    between atoms: C_9  and  O_10
REMARK    3  A    between atoms: O_10  and  C_11
REMARK    4  A    between atoms: C_11  and  C_12
REMARK    5  A    between atoms: C_14  and  O_15
REMARK    6  A    between atoms: O_15  and  C_16
REMARK    7  A    between atoms: C_16  and  C_17
REMARK                            x       y       z     vdW  Elec       q    Type
REMARK                         _______ _______ _______ _____ _____    ______ ____
ROOT
ATOM      1  C   UNL     1       6.519   5.913  17.411  0.00  0.00    +0.000 A 
ATOM      2  C   UNL     1       7.291   6.259  18.497  0.00  0.00    +0.000 A 
ATOM      3  C   UNL     1       7.847   7.494  18.129  0.00  0.00    +0.000 A 
ATOM      4  N   UNL     1       7.476   7.873  16.903  0.00  0.00    +0.000 NA
ATOM      5  O   UNL     1       6.622   6.881  16.458  0.00  0.00    +0.000 OA
ENDROOT
BRANCH   1   6
ATOM      6  C   UNL     1       5.724   4.719  17.044  0.00  0.00    +0.000 C 
BRANCH   6   7
ATOM      7  O   UNL     1       5.600   3.876  18.191  0.00  0.00    +0.000 OA
BRANCH   7  12
ATOM      8  C   UNL     1       2.274   3.329  19.792  0.00  0.00    +0.000 A 
ATOM      9  C   UNL     1       1.725   2.452  18.852  0.00  0.00    +0.000 A 
ATOM     10  C   UNL     1       2.467   2.064  17.739  0.00  0.00    +0.000 A 
ATOM     11  C   UNL     1       3.763   2.557  17.555  0.00  0.00    +0.000 A 
ATOM     12  C   UNL     1       4.326   3.448  18.468  0.00  0.00    +0.000 A 
ATOM     13  C   UNL     1       3.574   3.829  19.586  0.00  0.00    +0.000 A 
BRANCH   8  15
ATOM     14  F   UNL     1       0.877   2.725  21.658  0.00  0.00    +0.000 F 
ATOM     15  C   UNL     1       1.517   3.749  21.028  0.00  0.00    +0.000 C 
ATOM     16  F   UNL     1       0.561   4.681  20.760  0.00  0.00    +0.000 F 
ATOM     17  F   UNL     1       2.332   4.313  21.962  0.00  0.00    +0.000 F 
ENDBRANCH   8  15
ENDBRANCH   7  12
ENDBRANCH   6   7
ENDBRANCH   1   6
BRANCH   3  18
ATOM     18  O   UNL     1       8.721   8.233  18.852  0.00  0.00    +0.000 OA
BRANCH  18  19
ATOM     19  C   UNL     1       8.608   9.637  18.587  0.00  0.00    +0.000 C 
BRANCH  19  20
ATOM     20  C   UNL     1       9.772  10.404  19.221  0.00  0.00    +0.000 C 
ATOM     21  C   UNL     1       9.437  11.134  20.513  0.00  0.00    +0.000 C 
ATOM     22  C   UNL     1      10.617  12.081  20.656  0.00  0.00    +0.000 C 
ATOM     23  C   UNL     1      11.024  12.404  19.222  0.00  0.00    +0.000 C 
ATOM     24  N   UNL     1      10.240  11.511  18.368  0.00  0.00    +0.000 NA
ATOM     25  H   UNL     1      10.794  11.166  17.585  0.00  0.00    +0.000 HD
ENDBRANCH  19  20
ENDBRANCH  18  19
ENDBRANCH   3  18
TORSDOF 7
ENDMDL
MODEL 5
REMARK VINA RESULT:      -7.8      1.397      1.703
REMARK  Name = 
REMARK  7 active torsions:
REMARK  status: ('A' for Active; 'I' for Inactive)
REMARK    1  A    between atoms: C_2  and  C_5
REMARK    2  A    between atoms: C_9  and  O_10
REMARK    3  A    between atoms: O_10  and  C_11
REMARK    4  A    between atoms: C_11  and  C_12
REMARK    5  A    between atoms: C_14  and  O_15
REMARK    6  A    between atoms: O_15  and  C_16
REMARK    7  A    between atoms: C_16  and  C_17
REMARK                            x       y       z     vdW  Elec       q    Type
REMARK                         _______ _______ _______ _____ _____    ______ ____
ROOT
ATOM      1  C   UNL     1       7.334   5.818  17.818  0.00  0.00    +0.000 A 
ATOM      2  C   UNL     1       7.127   6.993  17.131  0.00  0.00    +0.000 A 
ATOM      3  C   UNL     1       7.842   7.944  17.877  0.00  0.00    +0.000 A 
ATOM      4  N   UNL     1       8.423   7.412  18.955  0.00  0.00    +0.000 NA
ATOM      5  O   UNL     1       8.115   6.065  18.907  0.00  0.00    +0.000 OA
ENDROOT
BRANCH   1   6
ATOM      6  C   UNL     1       6.823   4.435  17.682  0.00  0.00    +0.000 C 
BRANCH   6   7
ATOM      7  O   UNL     1       6.117   4.085  18.873  0.00  0.00    +0.000 OA
BRANCH   7  12
ATOM      8  C   UNL     1       2.452   3.865  19.541  0.00  0.00    +0.000 A 
ATOM      9  C   UNL     1       2.006   3.678  18.229  0.00  0.00    +0.000 A 
ATOM     10  C   UNL     1       2.920   3.620  17.180  0.00  0.00    +0.000 A 
ATOM     11  C   UNL     1       4.288   3.753  17.436  0.00  0.00    +0.000 A 
ATOM     12  C   UNL     1       4.757   3.959  18.733  0.00  0.00    +0.000 A 
ATOM     13  C   UNL     1       3.831   4.013  19.781  0.00  0.00    +0.000 A 
BRANCH   8  15
ATOM     14  F   UNL     1       0.457   4.764  20.544  0.00  0.00    +0.000 F 
ATOM     15  C   UNL     1       1.498   3.902  20.710  0.00  0.00    +0.000 C 
ATOM     16  F   UNL     1       2.111   4.271  21.869  0.00  0.00    +0.000 F 
ATOM     17  F   UNL     1       0.941   2.684  20.956  0.00  0.00    +0.000 F 
ENDBRANCH   8  15
ENDBRANCH   7  12
ENDBRANCH   6   7
ENDBRANCH   1   6
BRANCH   3  18
ATOM     18  O   UNL     1       7.918   9.273  17.628  0.00  0.00    +0.000 OA
BRANCH  18  19
ATOM     19  C   UNL     1       8.592   9.991  18.669  0.00  0.00    +0.000 C 
BRANCH  19  20
ATOM     20  C   UNL     1       9.553  11.027  18.078  0.00  0.00    +0.000 C 
ATOM     21  C   UNL     1      10.774  11.336  18.931  0.00  0.00    +0.000 C 
ATOM     22  C   UNL     1      11.279  12.625  18.305  0.00  0.00    +0.000 C 
ATOM     23  C   UNL     1      10.020  13.323  17.799  0.00  0.00    +0.000 C 
ATOM     24  N   UNL     1       8.932  12.358  17.957  0.00  0.00    +0.000 NA
ATOM     25  H   UNL     1       8.287  12.395  17.169  0.00  0.00    +0.000 HD
ENDBRANCH  19  20
ENDBRANCH  18  19
ENDBRANCH   3  18
TORSDOF 7
ENDMDL
MODEL 6
REMARK VINA RESULT:      -7.7      1.465      1.995
REMARK  Name = 
REMARK  7 active torsions:
REMARK  status: ('A' for Active; 'I' for Inactive)
REMARK    1  A    between atoms: C_2  and  C_5
REMARK    2  A    between atoms: C_9  and  O_10
REMARK    3  A    between atoms: O_10  and  C_11
REMARK    4  A    between atoms: C_11  and  C_12
REMARK    5  A    between atoms: C_14  and  O_15
REMARK    6  A    between atoms: O_15  and  C_16
REMARK    7  A    between atoms: C_16  and  C_17
REMARK                            x       y       z     vdW  Elec       q    Type
REMARK                         _______ _______ _______ _____ _____    ______ ____
ROOT
ATOM      1  C   UNL     1       7.041   6.173  17.760  0.00  0.00    +0.000 A 
ATOM      2  C   UNL     1       7.939   6.678  18.672  0.00  0.00    +0.000 A 
ATOM      3  C   UNL     1       8.138   8.001  18.246  0.00  0.00    +0.000 A 
ATOM      4  N   UNL     1       7.442   8.289  17.143  0.00  0.00    +0.000 NA
ATOM      5  O   UNL     1       6.736   7.137  16.847  0.00  0.00    +0.000 OA
ENDROOT
BRANCH   1   6
ATOM      6  C   UNL     1       6.448   4.838  17.519  0.00  0.00    +0.000 C 
BRANCH   6   7
ATOM      7  O   UNL     1       5.198   5.001  16.848  0.00  0.00    +0.000 OA
BRANCH   7  12
ATOM      8  C   UNL     1       2.402   4.398  19.244  0.00  0.00    +0.000 A 
ATOM      9  C   UNL     1       1.882   3.231  18.677  0.00  0.00    +0.000 A 
ATOM     10  C   UNL     1       2.471   2.681  17.541  0.00  0.00    +0.000 A 
ATOM     11  C   UNL     1       3.584   3.298  16.962  0.00  0.00    +0.000 A 
ATOM     12  C   UNL     1       4.110   4.473  17.497  0.00  0.00    +0.000 A 
ATOM     13  C   UNL     1       3.513   5.017  18.640  0.00  0.00    +0.000 A 
BRANCH   8  15
ATOM     14  F   UNL     1       2.434   4.625  21.641  0.00  0.00    +0.000 F 
ATOM     15  C   UNL     1       1.813   5.010  20.492  0.00  0.00    +0.000 C 
ATOM     16  F   UNL     1       0.498   4.696  20.652  0.00  0.00    +0.000 F 
ATOM     17  F   UNL     1       1.870   6.370  20.472  0.00  0.00    +0.000 F 
ENDBRANCH   8  15
ENDBRANCH   7  12
ENDBRANCH   6   7
ENDBRANCH   1   6
BRANCH   3  18
ATOM     18  O   UNL     1       8.975   8.910  18.800  0.00  0.00    +0.000 OA
BRANCH  18  19
ATOM     19  C   UNL     1       8.744  10.239  18.316  0.00  0.00    +0.000 C 
BRANCH  19  20
ATOM     20  C   UNL     1      10.051  11.036  18.277  0.00  0.00    +0.000 C 
ATOM     21  C   UNL     1      10.663  11.339  19.635  0.00  0.00    +0.000 C 
ATOM     22  C   UNL     1      11.662  12.432  19.295  0.00  0.00    +0.000 C 
ATOM     23  C   UNL     1      11.029  13.179  18.125  0.00  0.00    +0.000 C 
ATOM     24  N   UNL     1       9.861  12.391  17.729  0.00  0.00    +0.000 NA
ATOM     25  H   UNL     1       9.755  12.369  16.716  0.00  0.00    +0.000 HD
ENDBRANCH  19  20
ENDBRANCH  18  19
ENDBRANCH   3  18
TORSDOF 7
ENDMDL
MODEL 7
REMARK VINA RESULT:      -7.6      1.148      1.478
REMARK  Name = 
REMARK  7 active torsions:
REMARK  status: ('A' for Active; 'I' for Inactive)
REMARK    1  A    between atoms: C_2  and  C_5
REMARK    2  A    between atoms: C_9  and  O_10
REMARK    3  A    between atoms: O_10  and  C_11
REMARK    4  A    between atoms: C_11  and  C_12
REMARK    5  A    between atoms: C_14  and  O_15
REMARK    6  A    between atoms: O_15  and  C_16
REMARK    7  A    between atoms: C_16  and  C_17
REMARK                            x       y       z     vdW  Elec       q    Type
REMARK                         _______ _______ _______ _____ _____    ______ ____
ROOT
ATOM      1  C   UNL     1       6.268   5.646  16.738  0.00  0.00    +0.000 A 
ATOM      2  C   UNL     1       6.460   6.392  17.878  0.00  0.00    +0.000 A 
ATOM      3  C   UNL     1       7.558   7.207  17.561  0.00  0.00    +0.000 A 
ATOM      4  N   UNL     1       8.030   6.970  16.334  0.00  0.00    +0.000 NA
ATOM      5  O   UNL     1       7.202   5.994  15.809  0.00  0.00    +0.000 OA
ENDROOT
BRANCH   1   6
ATOM      6  C   UNL     1       5.368   4.530  16.370  0.00  0.00    +0.000 C 
BRANCH   6   7
ATOM      7  O   UNL     1       4.042   4.847  16.794  0.00  0.00    +0.000 OA
BRANCH   7  12
ATOM      8  C   UNL     1       2.255   3.363  19.715  0.00  0.00    +0.000 A 
ATOM      9  C   UNL     1       2.433   2.010  19.410  0.00  0.00    +0.000 A 
ATOM     10  C   UNL     1       3.138   1.636  18.269  0.00  0.00    +0.000 A 
ATOM     11  C   UNL     1       3.668   2.614  17.422  0.00  0.00    +0.000 A 
ATOM     12  C   UNL     1       3.488   3.970  17.694  0.00  0.00    +0.000 A 
ATOM     13  C   UNL     1       2.780   4.336  18.845  0.00  0.00    +0.000 A 
BRANCH   8  15
ATOM     14  F   UNL     1       2.337   4.332  21.918  0.00  0.00    +0.000 F 
ATOM     15  C   UNL     1       1.525   3.811  20.957  0.00  0.00    +0.000 C 
ATOM     16  F   UNL     1       0.842   2.794  21.553  0.00  0.00    +0.000 F 
ATOM     17  F   UNL     1       0.598   4.772  20.688  0.00  0.00    +0.000 F 
ENDBRANCH   8  15
ENDBRANCH   7  12
ENDBRANCH   6   7
ENDBRANCH   1   6
BRANCH   3  18
ATOM     18  O   UNL     1       8.163   8.101  18.379  0.00  0.00    +0.000 OA
BRANCH  18  19
ATOM     19  C   UNL     1       7.998   9.454  17.937  0.00  0.00    +0.000 C 
BRANCH  19  20
ATOM     20  C   UNL     1       9.219  10.300  18.312  0.00  0.00    +0.000 C 
ATOM     21  C   UNL     1       9.457  10.464  19.805  0.00  0.00    +0.000 C 
ATOM     22  C   UNL     1      10.434  11.627  19.843  0.00  0.00    +0.000 C 
ATOM     23  C   UNL     1      10.060  12.480  18.635  0.00  0.00    +0.000 C 
ATOM     24  N   UNL     1       9.080  11.701  17.878  0.00  0.00    +0.000 NA
ATOM     25  H   UNL     1       9.229  11.794  16.874  0.00  0.00    +0.000 HD
ENDBRANCH  19  20
ENDBRANCH  18  19
ENDBRANCH   3  18
TORSDOF 7
ENDMDL
MODEL 8
REMARK VINA RESULT:      -7.6      5.323      9.802
REMARK  Name = 
REMARK  7 active torsions:
REMARK  status: ('A' for Active; 'I' for Inactive)
REMARK    1  A    between atoms: C_2  and  C_5
REMARK    2  A    between atoms: C_9  and  O_10
REMARK    3  A    between atoms: O_10  and  C_11
REMARK    4  A    between atoms: C_11  and  C_12
REMARK    5  A    between atoms: C_14  and  O_15
REMARK    6  A    between atoms: O_15  and  C_16
REMARK    7  A    between atoms: C_16  and  C_17
REMARK                            x       y       z     vdW  Elec       q    Type
REMARK                         _______ _______ _______ _____ _____    ______ ____
ROOT
ATOM      1  C   UNL     1       7.634   7.705  17.701  0.00  0.00    +0.000 A 
ATOM      2  C   UNL     1       7.719   6.587  18.500  0.00  0.00    +0.000 A 
ATOM      3  C   UNL     1       6.824   5.684  17.904  0.00  0.00    +0.000 A 
ATOM      4  N   UNL     1       6.211   6.205  16.839  0.00  0.00    +0.000 NA
ATOM      5  O   UNL     1       6.737   7.477  16.702  0.00  0.00    +0.000 OA
ENDROOT
BRANCH   1   6
ATOM      6  C   UNL     1       8.209   9.067  17.762  0.00  0.00    +0.000 C 
BRANCH   6   7
ATOM      7  O   UNL     1       9.007   9.180  18.942  0.00  0.00    +0.000 OA
BRANCH   7  12
ATOM      8  C   UNL     1      10.455  12.610  18.700  0.00  0.00    +0.000 A 
ATOM      9  C   UNL     1      10.298  13.003  20.033  0.00  0.00    +0.000 A 
ATOM     10  C   UNL     1       9.736  12.129  20.960  0.00  0.00    +0.000 A 
ATOM     11  C   UNL     1       9.322  10.855  20.559  0.00  0.00    +0.000 A 
ATOM     12  C   UNL     1       9.450  10.446  19.232  0.00  0.00    +0.000 A 
ATOM     13  C   UNL     1      10.019  11.331  18.308  0.00  0.00    +0.000 A 
BRANCH   8  15
ATOM     14  F   UNL     1      10.380  14.652  17.427  0.00  0.00    +0.000 F 
ATOM     15  C   UNL     1      11.087  13.515  17.671  0.00  0.00    +0.000 C 
ATOM     16  F   UNL     1      11.241  12.901  16.465  0.00  0.00    +0.000 F 
ATOM     17  F   UNL     1      12.333  13.920  18.043  0.00  0.00    +0.000 F 
ENDBRANCH   8  15
ENDBRANCH   7  12
ENDBRANCH   6   7
ENDBRANCH   1   6
BRANCH   3  18
ATOM     18  O   UNL     1       6.518   4.441  18.346  0.00  0.00    +0.000 OA
BRANCH  18  19
ATOM     19  C   UNL     1       5.535   4.453  19.389  0.00  0.00    +0.000 C 
BRANCH  19  20
ATOM     20  C   UNL     1       4.228   3.813  18.909  0.00  0.00    +0.000 C 
ATOM     21  C   UNL     1       3.428   3.096  19.984  0.00  0.00    +0.000 C 
ATOM     22  C   UNL     1       2.462   2.264  19.157  0.00  0.00    +0.000 C 
ATOM     23  C   UNL     1       3.234   1.936  17.883  0.00  0.00    +0.000 C 
ATOM     24  N   UNL     1       4.462   2.729  17.940  0.00  0.00    +0.000 NA
ATOM     25  H   UNL     1       4.707   3.098  17.022  0.00  0.00    +0.000 HD
ENDBRANCH  19  20
ENDBRANCH  18  19
ENDBRANCH   3  18
TORSDOF 7
ENDMDL
MODEL 9
REMARK VINA RESULT:      -7.6      1.502      2.134
REMARK  Name = 
REMARK  7 active torsions:
REMARK  status: ('A' for Active; 'I' for Inactive)
REMARK    1  A    between atoms: C_2  and  C_5
REMARK    2  A    between atoms: C_9  and  O_10
REMARK    3  A    between atoms: O_10  and  C_11
REMARK    4  A    between atoms: C_11  and  C_12
REMARK    5  A    between atoms: C_14  and  O_15
REMARK    6  A    between atoms: O_15  and  C_16
REMARK    7  A    between atoms: C_16  and  C_17
REMARK                            x       y       z     vdW  Elec       q    Type
REMARK                         _______ _______ _______ _____ _____    ______ ____
ROOT
ATOM      1  C   UNL     1       7.234   5.893  17.759  0.00  0.00    +0.000 A 
ATOM      2  C   UNL     1       7.888   6.568  18.765  0.00  0.00    +0.000 A 
ATOM      3  C   UNL     1       8.115   7.841  18.220  0.00  0.00    +0.000 A 
ATOM      4  N   UNL     1       7.666   7.944  16.966  0.00  0.00    +0.000 NA
ATOM      5  O   UNL     1       7.093   6.717  16.683  0.00  0.00    +0.000 OA
ENDROOT
BRANCH   1   6
ATOM      6  C   UNL     1       6.770   4.500  17.578  0.00  0.00    +0.000 C 
BRANCH   6   7
ATOM      7  O   UNL     1       5.529   4.515  16.869  0.00  0.00    +0.000 OA
BRANCH   7  12
ATOM      8  C   UNL     1       2.683   3.858  19.189  0.00  0.00    +0.000 A 
ATOM      9  C   UNL     1       2.103   5.131  19.184  0.00  0.00    +0.000 A 
ATOM     10  C   UNL     1       2.659   6.150  18.413  0.00  0.00    +0.000 A 
ATOM     11  C   UNL     1       3.801   5.903  17.646  0.00  0.00    +0.000 A 
ATOM     12  C   UNL     1       4.409   4.648  17.650  0.00  0.00    +0.000 A 
ATOM     13  C   UNL     1       3.841   3.630  18.425  0.00  0.00    +0.000 A 
BRANCH   8  15
ATOM     14  F   UNL     1       1.899   1.583  19.260  0.00  0.00    +0.000 F 
ATOM     15  C   UNL     1       2.094   2.719  19.985  0.00  0.00    +0.000 C 
ATOM     16  F   UNL     1       0.885   3.033  20.526  0.00  0.00    +0.000 F 
ATOM     17  F   UNL     1       2.887   2.363  21.033  0.00  0.00    +0.000 F 
ENDBRANCH   8  15
ENDBRANCH   7  12
ENDBRANCH   6   7
ENDBRANCH   1   6
BRANCH   3  18
ATOM     18  O   UNL     1       8.769   8.868  18.812  0.00  0.00    +0.000 OA
BRANCH  18  19
ATOM     19  C   UNL     1       8.750  10.064  18.022  0.00  0.00    +0.000 C 
BRANCH  19  20
ATOM     20  C   UNL     1       9.262  11.258  18.833  0.00  0.00    +0.000 C 
ATOM     21  C   UNL     1      10.370  12.060  18.170  0.00  0.00    +0.000 C 
ATOM     22  C   UNL     1      10.913  12.871  19.336  0.00  0.00    +0.000 C 
ATOM     23  C   UNL     1      10.709  11.975  20.553  0.00  0.00    +0.000 C 
ATOM     24  N   UNL     1       9.908  10.841  20.090  0.00  0.00    +0.000 NA
ATOM     25  H   UNL     1       9.218  10.566  20.788  0.00  0.00    +0.000 HD
ENDBRANCH  19  20
ENDBRANCH  18  19
ENDBRANCH   3  18
TORSDOF 7
ENDMDL
