MODEL 1
REMARK VINA RESULT:      -8.3      0.000      0.000
REMARK  Name = 
REMARK  9 active torsions:
REMARK  status: ('A' for Active; 'I' for Inactive)
REMARK    1  A    between atoms: C_1  and  C_2
REMARK    2  A    between atoms: C_2  and  C_3
REMARK    3  A    between atoms: N_4  and  C_5
REMARK    4  A    between atoms: N_14  and  C_15
REMARK    5  A    between atoms: N_22  and  C_23
REMARK    6  A    between atoms: N_29  and  C_30
REMARK    7  A    between atoms: N_29  and  C_32
REMARK    8  A    between atoms: C_30  and  C_31
REMARK    9  A    between atoms: C_32  and  C_33
REMARK                            x       y       z     vdW  Elec       q    Type
REMARK                         _______ _______ _______ _____ _____    ______ ____
ROOT
ATOM      1  C   UNL     1       2.339   6.888  18.786  0.00  0.00    +0.000 A 
ATOM      2  C   UNL     1       2.118   6.786  20.151  0.00  0.00    +0.000 A 
ATOM      3  C   UNL     1       1.393   7.772  20.827  0.00  0.00    +0.000 A 
ATOM      4  C   UNL     1       1.107   8.984  20.244  0.00  0.00    +0.000 A 
ATOM      5  N   UNL     1       0.398   9.924  20.921  0.00  0.00    +0.000 NA
ATOM      6  C   UNL     1       0.386  11.191  20.435  0.00  0.00    +0.000 A 
ATOM      7  N   UNL     1      -0.362  12.152  21.127  0.00  0.00    +0.000 N 
ATOM      8  C   UNL     1      -1.510  11.732  21.953  0.00  0.00    +0.000 C 
ATOM      9  C   UNL     1      -2.522  12.923  22.003  0.00  0.00    +0.000 C 
ATOM     10  N   UNL     1      -1.951  14.230  22.440  0.00  0.00    +0.000 NA
ATOM     11  C   UNL     1      -2.892  15.316  22.130  0.00  0.00    +0.000 C 
ATOM     12  C   UNL     1      -0.665  14.488  21.752  0.00  0.00    +0.000 C 
ATOM     13  C   UNL     1       0.320  13.281  21.758  0.00  0.00    +0.000 C 
ATOM     14  C   UNL     1       1.116  11.491  19.236  0.00  0.00    +0.000 A 
ATOM     15  N   UNL     1       1.452  12.782  18.850  0.00  0.00    +0.000 N 
ATOM     16  C   UNL     1       2.663  12.965  18.042  0.00  0.00    +0.000 C 
ATOM     17  C   UNL     1       3.271  14.350  18.389  0.00  0.00    +0.000 C 
ATOM     18  N   UNL     1       2.320  15.480  18.216  0.00  0.00    +0.000 NA
ATOM     19  C   UNL     1       2.924  16.721  18.703  0.00  0.00    +0.000 C 
ATOM     20  C   UNL     1       1.069  15.188  18.955  0.00  0.00    +0.000 C 
ATOM     21  C   UNL     1       0.448  13.809  18.571  0.00  0.00    +0.000 C 
ATOM     22  N   UNL     1       1.651  10.487  18.482  0.00  0.00    +0.000 NA
ATOM     23  C   UNL     1       1.634   9.232  18.964  0.00  0.00    +0.000 A 
ATOM     24  C   UNL     1       2.170   8.163  18.231  0.00  0.00    +0.000 A 
ENDROOT
BRANCH   1  26
ATOM     25  C   UNL     1       3.884   5.109  18.190  0.00  0.00    +0.000 C 
ATOM     26  N   UNL     1       2.807   5.833  17.993  0.00  0.00    +0.000 NA
ATOM     27  N   UNL     1       4.174   4.080  17.278  0.00  0.00    +0.000 N 
BRANCH  25  29
ATOM     28  C   UNL     1       6.393   5.566  19.181  0.00  0.00    +0.000 C 
ATOM     29  C   UNL     1       4.936   5.180  19.325  0.00  0.00    +0.000 C 
ENDBRANCH  25  29
BRANCH  27  30
ATOM     30  C   UNL     1       5.308   4.165  16.353  0.00  0.00    +0.000 C 
ATOM     31  C   UNL     1       5.335   5.473  15.572  0.00  0.00    +0.000 C 
ENDBRANCH  27  30
BRANCH  27  32
ATOM     32  C   UNL     1       3.260   2.952  17.109  0.00  0.00    +0.000 C 
ATOM     33  C   UNL     1       3.374   1.923  18.221  0.00  0.00    +0.000 C 
ENDBRANCH  27  32
ENDBRANCH   1  26
TORSDOF 4
ENDMDL
MODEL 2
REMARK VINA RESULT:      -8.1      1.318      4.000
REMARK  Name = 
REMARK  9 active torsions:
REMARK  status: ('A' for Active; 'I' for Inactive)
REMARK    1  A    between atoms: C_1  and  C_2
REMARK    2  A    between atoms: C_2  and  C_3
REMARK    3  A    between atoms: N_4  and  C_5
REMARK    4  A    between atoms: N_14  and  C_15
REMARK    5  A    between atoms: N_22  and  C_23
REMARK    6  A    between atoms: N_29  and  C_30
REMARK    7  A    between atoms: N_29  and  C_32
REMARK    8  A    between atoms: C_30  and  C_31
REMARK    9  A    between atoms: C_32  and  C_33
REMARK                            x       y       z     vdW  Elec       q    Type
REMARK                         _______ _______ _______ _____ _____    ______ ____
ROOT
ATOM      1  C   UNL     1       1.944   6.999  19.242  0.00  0.00    +0.000 A 
ATOM      2  C   UNL     1       2.058   7.467  17.942  0.00  0.00    +0.000 A 
ATOM      3  C   UNL     1       2.136   8.839  17.687  0.00  0.00    +0.000 A 
ATOM      4  C   UNL     1       1.841   9.771  18.655  0.00  0.00    +0.000 A 
ATOM      5  N   UNL     1       1.928  11.099  18.383  0.00  0.00    +0.000 NA
ATOM      6  C   UNL     1       1.361  11.969  19.255  0.00  0.00    +0.000 A 
ATOM      7  N   UNL     1       1.470  13.339  18.979  0.00  0.00    +0.000 N 
ATOM      8  C   UNL     1       2.593  13.834  18.160  0.00  0.00    +0.000 C 
ATOM      9  C   UNL     1       2.877  15.311  18.585  0.00  0.00    +0.000 C 
ATOM     10  N   UNL     1       1.699  16.225  18.553  0.00  0.00    +0.000 NA
ATOM     11  C   UNL     1       2.007  17.467  19.277  0.00  0.00    +0.000 C 
ATOM     12  C   UNL     1       0.524  15.575  19.177  0.00  0.00    +0.000 C 
ATOM     13  C   UNL     1       0.265  14.117  18.696  0.00  0.00    +0.000 C 
ATOM     14  C   UNL     1       0.694  11.464  20.421  0.00  0.00    +0.000 A 
ATOM     15  N   UNL     1      -0.196  12.215  21.177  0.00  0.00    +0.000 N 
ATOM     16  C   UNL     1      -1.258  11.503  21.896  0.00  0.00    +0.000 C 
ATOM     17  C   UNL     1      -2.499  12.432  21.970  0.00  0.00    +0.000 C 
ATOM     18  N   UNL     1      -2.216  13.758  22.581  0.00  0.00    +0.000 NA
ATOM     19  C   UNL     1      -3.396  14.619  22.476  0.00  0.00    +0.000 C 
ATOM     20  C   UNL     1      -1.059  14.380  21.894  0.00  0.00    +0.000 C 
ATOM     21  C   UNL     1       0.193  13.449  21.858  0.00  0.00    +0.000 C 
ATOM     22  N   UNL     1       0.796  10.145  20.759  0.00  0.00    +0.000 NA
ATOM     23  C   UNL     1       1.383   9.297  19.897  0.00  0.00    +0.000 A 
ATOM     24  C   UNL     1       1.514   7.932  20.194  0.00  0.00    +0.000 A 
ENDROOT
BRANCH   1  26
ATOM     25  C   UNL     1       3.267   5.000  19.643  0.00  0.00    +0.000 C 
ATOM     26  N   UNL     1       2.132   5.660  19.605  0.00  0.00    +0.000 NA
ATOM     27  N   UNL     1       3.245   3.656  20.052  0.00  0.00    +0.000 N 
BRANCH  25  29
ATOM     28  C   UNL     1       5.296   5.687  17.942  0.00  0.00    +0.000 C 
ATOM     29  C   UNL     1       4.705   5.475  19.319  0.00  0.00    +0.000 C 
ENDBRANCH  25  29
BRANCH  27  30
ATOM     30  C   UNL     1       3.500   2.559  19.112  0.00  0.00    +0.000 C 
ATOM     31  C   UNL     1       2.648   2.653  17.851  0.00  0.00    +0.000 C 
ENDBRANCH  27  30
BRANCH  27  32
ATOM     32  C   UNL     1       2.810   3.291  21.398  0.00  0.00    +0.000 C 
ATOM     33  C   UNL     1       1.427   2.661  21.424  0.00  0.00    +0.000 C 
ENDBRANCH  27  32
ENDBRANCH   1  26
TORSDOF 4
ENDMDL
MODEL 3
REMARK VINA RESULT:      -7.9      1.124      1.887
REMARK  Name = 
REMARK  9 active torsions:
REMARK  status: ('A' for Active; 'I' for Inactive)
REMARK    1  A    between atoms: C_1  and  C_2
REMARK    2  A    between atoms: C_2  and  C_3
REMARK    3  A    between atoms: N_4  and  C_5
REMARK    4  A    between atoms: N_14  and  C_15
REMARK    5  A    between atoms: N_22  and  C_23
REMARK    6  A    between atoms: N_29  and  C_30
REMARK    7  A    between atoms: N_29  and  C_32
REMARK    8  A    between atoms: C_30  and  C_31
REMARK    9  A    between atoms: C_32  and  C_33
REMARK                            x       y       z     vdW  Elec       q    Type
REMARK                         _______ _______ _______ _____ _____    ______ ____
ROOT
ATOM      1  C   UNL     1       2.228   7.131  19.545  0.00  0.00    +0.000 A 
ATOM      2  C   UNL     1       1.802   7.115  20.864  0.00  0.00    +0.000 A 
ATOM      3  C   UNL     1       0.941   8.108  21.341  0.00  0.00    +0.000 A 
ATOM      4  C   UNL     1       0.698   9.258  20.628  0.00  0.00    +0.000 A 
ATOM      5  N   UNL     1      -0.146  10.205  21.112  0.00  0.00    +0.000 NA
ATOM      6  C   UNL     1      -0.134  11.431  20.531  0.00  0.00    +0.000 A 
ATOM      7  N   UNL     1      -1.020  12.399  21.022  0.00  0.00    +0.000 N 
ATOM      8  C   UNL     1      -2.265  11.978  21.696  0.00  0.00    +0.000 C 
ATOM      9  C   UNL     1      -3.320  13.114  21.496  0.00  0.00    +0.000 C 
ATOM     10  N   UNL     1      -2.879  14.478  21.909  0.00  0.00    +0.000 NA
ATOM     11  C   UNL     1      -3.804  15.488  21.375  0.00  0.00    +0.000 C 
ATOM     12  C   UNL     1      -1.513  14.754  21.406  0.00  0.00    +0.000 C 
ATOM     13  C   UNL     1      -0.492  13.605  21.658  0.00  0.00    +0.000 C 
ATOM     14  C   UNL     1       0.760  11.682  19.437  0.00  0.00    +0.000 A 
ATOM     15  N   UNL     1       1.098  12.958  19.005  0.00  0.00    +0.000 N 
ATOM     16  C   UNL     1       2.411  13.147  18.379  0.00  0.00    +0.000 C 
ATOM     17  C   UNL     1       2.900  14.583  18.703  0.00  0.00    +0.000 C 
ATOM     18  N   UNL     1       1.941  15.646  18.298  0.00  0.00    +0.000 NA
ATOM     19  C   UNL     1       2.411  16.949  18.771  0.00  0.00    +0.000 C 
ATOM     20  C   UNL     1       0.604  15.342  18.859  0.00  0.00    +0.000 C 
ATOM     21  C   UNL     1       0.109  13.907  18.496  0.00  0.00    +0.000 C 
ATOM     22  N   UNL     1       1.447  10.657  18.855  0.00  0.00    +0.000 NA
ATOM     23  C   UNL     1       1.407   9.440  19.427  0.00  0.00    +0.000 A 
ATOM     24  C   UNL     1       2.095   8.352  18.871  0.00  0.00    +0.000 A 
ENDROOT
BRANCH   1  26
ATOM     25  C   UNL     1       2.468   4.793  18.922  0.00  0.00    +0.000 C 
ATOM     26  N   UNL     1       2.857   6.047  18.919  0.00  0.00    +0.000 NA
ATOM     27  N   UNL     1       3.238   3.853  18.216  0.00  0.00    +0.000 N 
BRANCH  25  29
ATOM     28  C   UNL     1       1.198   3.426  20.922  0.00  0.00    +0.000 C 
ATOM     29  C   UNL     1       1.232   4.137  19.586  0.00  0.00    +0.000 C 
ENDBRANCH  25  29
BRANCH  27  30
ATOM     30  C   UNL     1       4.030   2.830  18.906  0.00  0.00    +0.000 C 
ATOM     31  C   UNL     1       3.609   1.412  18.540  0.00  0.00    +0.000 C 
ENDBRANCH  27  30
BRANCH  27  32
ATOM     32  C   UNL     1       3.403   3.959  16.768  0.00  0.00    +0.000 C 
ATOM     33  C   UNL     1       4.834   4.258  16.355  0.00  0.00    +0.000 C 
ENDBRANCH  27  32
ENDBRANCH   1  26
TORSDOF 4
ENDMDL
MODEL 4
REMARK VINA RESULT:      -7.9      1.358      1.872
REMARK  Name = 
REMARK  9 active torsions:
REMARK  status: ('A' for Active; 'I' for Inactive)
REMARK    1  A    between atoms: C_1  and  C_2
REMARK    2  A    between atoms: C_2  and  C_3
REMARK    3  A    between atoms: N_4  and  C_5
REMARK    4  A    between atoms: N_14  and  C_15
REMARK    5  A    between atoms: N_22  and  C_23
REMARK    6  A    between atoms: N_29  and  C_30
REMARK    7  A    between atoms: N_29  and  C_32
REMARK    8  A    between atoms: C_30  and  C_31
REMARK    9  A    between atoms: C_32  and  C_33
REMARK                            x       y       z     vdW  Elec       q    Type
REMARK                         _______ _______ _______ _____ _____    ______ ____
ROOT
ATOM      1  C   UNL     1       1.916   7.665  19.680  0.00  0.00    +0.000 A 
ATOM      2  C   UNL     1       1.430   7.630  20.978  0.00  0.00    +0.000 A 
ATOM      3  C   UNL     1       0.525   8.599  21.422  0.00  0.00    +0.000 A 
ATOM      4  C   UNL     1       0.289   9.748  20.705  0.00  0.00    +0.000 A 
ATOM      5  N   UNL     1      -0.598  10.672  21.156  0.00  0.00    +0.000 NA
ATOM      6  C   UNL     1      -0.589  11.902  20.584  0.00  0.00    +0.000 A 
ATOM      7  N   UNL     1      -1.519  12.845  21.040  0.00  0.00    +0.000 N 
ATOM      8  C   UNL     1      -2.783  12.392  21.653  0.00  0.00    +0.000 C 
ATOM      9  C   UNL     1      -3.854  13.505  21.413  0.00  0.00    +0.000 C 
ATOM     10  N   UNL     1      -3.464  14.875  21.854  0.00  0.00    +0.000 NA
ATOM     11  C   UNL     1      -4.387  15.867  21.285  0.00  0.00    +0.000 C 
ATOM     12  C   UNL     1      -2.084  15.186  21.416  0.00  0.00    +0.000 C 
ATOM     13  C   UNL     1      -1.048  14.059  21.707  0.00  0.00    +0.000 C 
ATOM     14  C   UNL     1       0.348  12.182  19.533  0.00  0.00    +0.000 A 
ATOM     15  N   UNL     1       0.676  13.468  19.126  0.00  0.00    +0.000 N 
ATOM     16  C   UNL     1       2.011  13.692  18.561  0.00  0.00    +0.000 C 
ATOM     17  C   UNL     1       2.451  15.137  18.916  0.00  0.00    +0.000 C 
ATOM     18  N   UNL     1       1.487  16.180  18.475  0.00  0.00    +0.000 NA
ATOM     19  C   UNL     1       1.904  17.490  18.977  0.00  0.00    +0.000 C 
ATOM     20  C   UNL     1       0.133  15.841  18.972  0.00  0.00    +0.000 C 
ATOM     21  C   UNL     1      -0.312  14.398  18.578  0.00  0.00    +0.000 C 
ATOM     22  N   UNL     1       1.085  11.177  18.977  0.00  0.00    +0.000 NA
ATOM     23  C   UNL     1       1.047   9.956  19.539  0.00  0.00    +0.000 A 
ATOM     24  C   UNL     1       1.785   8.887  19.008  0.00  0.00    +0.000 A 
ENDROOT
BRANCH   1  26
ATOM     25  C   UNL     1       2.778   5.395  19.564  0.00  0.00    +0.000 C 
ATOM     26  N   UNL     1       2.598   6.601  19.076  0.00  0.00    +0.000 NA
ATOM     27  N   UNL     1       3.485   4.460  18.789  0.00  0.00    +0.000 N 
BRANCH  25  29
ATOM     28  C   UNL     1       1.472   3.532  21.083  0.00  0.00    +0.000 C 
ATOM     29  C   UNL     1       2.305   4.784  20.906  0.00  0.00    +0.000 C 
ENDBRANCH  25  29
BRANCH  27  30
ATOM     30  C   UNL     1       4.827   4.003  19.165  0.00  0.00    +0.000 C 
ATOM     31  C   UNL     1       5.852   5.130  19.177  0.00  0.00    +0.000 C 
ENDBRANCH  27  30
BRANCH  27  32
ATOM     32  C   UNL     1       2.974   4.026  17.490  0.00  0.00    +0.000 C 
ATOM     33  C   UNL     1       2.438   2.604  17.510  0.00  0.00    +0.000 C 
ENDBRANCH  27  32
ENDBRANCH   1  26
TORSDOF 4
ENDMDL
MODEL 5
REMARK VINA RESULT:      -7.6      1.517      4.301
REMARK  Name = 
REMARK  9 active torsions:
REMARK  status: ('A' for Active; 'I' for Inactive)
REMARK    1  A    between atoms: C_1  and  C_2
REMARK    2  A    between atoms: C_2  and  C_3
REMARK    3  A    between atoms: N_4  and  C_5
REMARK    4  A    between atoms: N_14  and  C_15
REMARK    5  A    between atoms: N_22  and  C_23
REMARK    6  A    between atoms: N_29  and  C_30
REMARK    7  A    between atoms: N_29  and  C_32
REMARK    8  A    between atoms: C_30  and  C_31
REMARK    9  A    between atoms: C_32  and  C_33
REMARK                            x       y       z     vdW  Elec       q    Type
REMARK                         _______ _______ _______ _____ _____    ______ ____
ROOT
ATOM      1  C   UNL     1       2.167   7.167  19.547  0.00  0.00    +0.000 A 
ATOM      2  C   UNL     1       2.111   7.594  18.229  0.00  0.00    +0.000 A 
ATOM      3  C   UNL     1       2.004   8.956  17.930  0.00  0.00    +0.000 A 
ATOM      4  C   UNL     1       1.689   9.884  18.894  0.00  0.00    +0.000 A 
ATOM      5  N   UNL     1       1.595  11.201  18.579  0.00  0.00    +0.000 NA
ATOM      6  C   UNL     1       1.008  12.034  19.474  0.00  0.00    +0.000 A 
ATOM      7  N   UNL     1       0.931  13.396  19.151  0.00  0.00    +0.000 N 
ATOM      8  C   UNL     1       1.912  13.985  18.218  0.00  0.00    +0.000 C 
ATOM      9  C   UNL     1       2.057  15.500  18.574  0.00  0.00    +0.000 C 
ATOM     10  N   UNL     1       0.781  16.271  18.625  0.00  0.00    +0.000 NA
ATOM     11  C   UNL     1       1.004  17.567  19.282  0.00  0.00    +0.000 C 
ATOM     12  C   UNL     1      -0.250  15.516  19.373  0.00  0.00    +0.000 C 
ATOM     13  C   UNL     1      -0.377  14.019  18.958  0.00  0.00    +0.000 C 
ATOM     14  C   UNL     1       0.511  11.501  20.710  0.00  0.00    +0.000 A 
ATOM     15  N   UNL     1      -0.391  12.174  21.523  0.00  0.00    +0.000 N 
ATOM     16  C   UNL     1      -1.295  11.374  22.357  0.00  0.00    +0.000 C 
ATOM     17  C   UNL     1      -2.625  12.157  22.519  0.00  0.00    +0.000 C 
ATOM     18  N   UNL     1      -2.447  13.529  23.063  0.00  0.00    +0.000 NA
ATOM     19  C   UNL     1      -3.724  14.244  23.044  0.00  0.00    +0.000 C 
ATOM     20  C   UNL     1      -1.436  14.252  22.256  0.00  0.00    +0.000 C 
ATOM     21  C   UNL     1      -0.091  13.470  22.131  0.00  0.00    +0.000 C 
ATOM     22  N   UNL     1       0.796  10.217  21.074  0.00  0.00    +0.000 NA
ATOM     23  C   UNL     1       1.401   9.409  20.186  0.00  0.00    +0.000 A 
ATOM     24  C   UNL     1       1.717   8.081  20.508  0.00  0.00    +0.000 A 
ENDROOT
BRANCH   1  26
ATOM     25  C   UNL     1       2.391   4.766  19.240  0.00  0.00    +0.000 C 
ATOM     26  N   UNL     1       2.544   5.873  19.929  0.00  0.00    +0.000 NA
ATOM     27  N   UNL     1       2.851   3.562  19.800  0.00  0.00    +0.000 N 
BRANCH  25  29
ATOM     28  C   UNL     1       2.258   3.566  16.786  0.00  0.00    +0.000 C 
ATOM     29  C   UNL     1       1.778   4.545  17.835  0.00  0.00    +0.000 C 
ENDBRANCH  25  29
BRANCH  27  30
ATOM     30  C   UNL     1       1.926   2.521  20.260  0.00  0.00    +0.000 C 
ATOM     31  C   UNL     1       1.356   2.808  21.644  0.00  0.00    +0.000 C 
ENDBRANCH  27  30
BRANCH  27  32
ATOM     32  C   UNL     1       4.270   3.367  20.090  0.00  0.00    +0.000 C 
ATOM     33  C   UNL     1       5.179   3.952  19.023  0.00  0.00    +0.000 C 
ENDBRANCH  27  32
ENDBRANCH   1  26
TORSDOF 4
ENDMDL
MODEL 6
REMARK VINA RESULT:      -7.1      1.796      4.271
REMARK  Name = 
REMARK  9 active torsions:
REMARK  status: ('A' for Active; 'I' for Inactive)
REMARK    1  A    between atoms: C_1  and  C_2
REMARK    2  A    between atoms: C_2  and  C_3
REMARK    3  A    between atoms: N_4  and  C_5
REMARK    4  A    between atoms: N_14  and  C_15
REMARK    5  A    between atoms: N_22  and  C_23
REMARK    6  A    between atoms: N_29  and  C_30
REMARK    7  A    between atoms: N_29  and  C_32
REMARK    8  A    between atoms: C_30  and  C_31
REMARK    9  A    between atoms: C_32  and  C_33
REMARK                            x       y       z     vdW  Elec       q    Type
REMARK                         _______ _______ _______ _____ _____    ______ ____
ROOT
ATOM      1  C   UNL     1       1.674   8.431  19.171  0.00  0.00    +0.000 A 
ATOM      2  C   UNL     1       1.781   9.199  18.022  0.00  0.00    +0.000 A 
ATOM      3  C   UNL     1       1.727  10.594  18.094  0.00  0.00    +0.000 A 
ATOM      4  C   UNL     1       1.307  11.242  19.232  0.00  0.00    +0.000 A 
ATOM      5  N   UNL     1       1.267  12.598  19.278  0.00  0.00    +0.000 NA
ATOM      6  C   UNL     1       0.585  13.184  20.294  0.00  0.00    +0.000 A 
ATOM      7  N   UNL     1       0.563  14.584  20.347  0.00  0.00    +0.000 N 
ATOM      8  C   UNL     1       1.655  15.359  19.727  0.00  0.00    +0.000 C 
ATOM      9  C   UNL     1       1.773  16.715  20.496  0.00  0.00    +0.000 C 
ATOM     10  N   UNL     1       0.509  17.499  20.609  0.00  0.00    +0.000 NA
ATOM     11  C   UNL     1       0.665  18.559  21.616  0.00  0.00    +0.000 C 
ATOM     12  C   UNL     1      -0.614  16.616  21.002  0.00  0.00    +0.000 C 
ATOM     13  C   UNL     1      -0.706  15.293  20.184  0.00  0.00    +0.000 C 
ATOM     14  C   UNL     1      -0.064  12.361  21.274  0.00  0.00    +0.000 A 
ATOM     15  N   UNL     1      -1.050  12.829  22.132  0.00  0.00    +0.000 N 
ATOM     16  C   UNL     1      -2.057  11.874  22.608  0.00  0.00    +0.000 C 
ATOM     17  C   UNL     1      -3.388  12.641  22.825  0.00  0.00    +0.000 C 
ATOM     18  N   UNL     1      -3.262  13.808  23.739  0.00  0.00    +0.000 NA
ATOM     19  C   UNL     1      -4.520  14.557  23.770  0.00  0.00    +0.000 C 
ATOM     20  C   UNL     1      -2.153  14.677  23.279  0.00  0.00    +0.000 C 
ATOM     21  C   UNL     1      -0.812  13.899  23.099  0.00  0.00    +0.000 C 
ATOM     22  N   UNL     1       0.161  11.015  21.305  0.00  0.00    +0.000 NA
ATOM     23  C   UNL     1       0.860  10.450  20.305  0.00  0.00    +0.000 A 
ATOM     24  C   UNL     1       1.120   9.072  20.287  0.00  0.00    +0.000 A 
ENDROOT
BRANCH   1  26
ATOM     25  C   UNL     1       2.925   6.440  18.556  0.00  0.00    +0.000 C 
ATOM     26  N   UNL     1       1.987   7.067  19.227  0.00  0.00    +0.000 NA
ATOM     27  N   UNL     1       3.088   5.060  18.766  0.00  0.00    +0.000 N 
BRANCH  25  29
ATOM     28  C   UNL     1       5.435   6.682  17.496  0.00  0.00    +0.000 C 
ATOM     29  C   UNL     1       3.953   6.987  17.535  0.00  0.00    +0.000 C 
ENDBRANCH  25  29
BRANCH  27  30
ATOM     30  C   UNL     1       2.736   4.076  17.737  0.00  0.00    +0.000 C 
ATOM     31  C   UNL     1       3.788   2.984  17.582  0.00  0.00    +0.000 C 
ENDBRANCH  27  30
BRANCH  27  32
ATOM     32  C   UNL     1       3.466   4.543  20.080  0.00  0.00    +0.000 C 
ATOM     33  C   UNL     1       2.278   4.052  20.889  0.00  0.00    +0.000 C 
ENDBRANCH  27  32
ENDBRANCH   1  26
TORSDOF 4
ENDMDL
MODEL 7
REMARK VINA RESULT:      -6.9      2.083      2.954
REMARK  Name = 
REMARK  9 active torsions:
REMARK  status: ('A' for Active; 'I' for Inactive)
REMARK    1  A    between atoms: C_1  and  C_2
REMARK    2  A    between atoms: C_2  and  C_3
REMARK    3  A    between atoms: N_4  and  C_5
REMARK    4  A    between atoms: N_14  and  C_15
REMARK    5  A    between atoms: N_22  and  C_23
REMARK    6  A    between atoms: N_29  and  C_30
REMARK    7  A    between atoms: N_29  and  C_32
REMARK    8  A    between atoms: C_30  and  C_31
REMARK    9  A    between atoms: C_32  and  C_33
REMARK                            x       y       z     vdW  Elec       q    Type
REMARK                         _______ _______ _______ _____ _____    ______ ____
ROOT
ATOM      1  C   UNL     1       1.478   8.258  20.403  0.00  0.00    +0.000 A 
ATOM      2  C   UNL     1       0.743   7.894  21.520  0.00  0.00    +0.000 A 
ATOM      3  C   UNL     1      -0.199   8.771  22.065  0.00  0.00    +0.000 A 
ATOM      4  C   UNL     1      -0.249  10.096  21.699  0.00  0.00    +0.000 A 
ATOM      5  N   UNL     1      -1.176  10.927  22.241  0.00  0.00    +0.000 NA
ATOM      6  C   UNL     1      -1.011  12.263  22.079  0.00  0.00    +0.000 A 
ATOM      7  N   UNL     1      -1.980  13.115  22.624  0.00  0.00    +0.000 N 
ATOM      8  C   UNL     1      -3.356  12.622  22.833  0.00  0.00    +0.000 C 
ATOM      9  C   UNL     1      -4.319  13.850  22.752  0.00  0.00    +0.000 C 
ATOM     10  N   UNL     1      -3.979  14.992  23.649  0.00  0.00    +0.000 NA
ATOM     11  C   UNL     1      -4.736  16.187  23.249  0.00  0.00    +0.000 C 
ATOM     12  C   UNL     1      -2.529  15.288  23.582  0.00  0.00    +0.000 C 
ATOM     13  C   UNL     1      -1.611  14.034  23.699  0.00  0.00    +0.000 C 
ATOM     14  C   UNL     1       0.126  12.748  21.349  0.00  0.00    +0.000 A 
ATOM     15  N   UNL     1       0.572  14.062  21.415  0.00  0.00    +0.000 N 
ATOM     16  C   UNL     1       2.000  14.315  21.195  0.00  0.00    +0.000 C 
ATOM     17  C   UNL     1       2.409  15.548  22.043  0.00  0.00    +0.000 C 
ATOM     18  N   UNL     1       1.588  16.758  21.772  0.00  0.00    +0.000 NA
ATOM     19  C   UNL     1       1.941  17.823  22.713  0.00  0.00    +0.000 C 
ATOM     20  C   UNL     1       0.152  16.416  21.891  0.00  0.00    +0.000 C 
ATOM     21  C   UNL     1      -0.254  15.197  21.005  0.00  0.00    +0.000 C 
ATOM     22  N   UNL     1       0.924  11.884  20.657  0.00  0.00    +0.000 NA
ATOM     23  C   UNL     1       0.734  10.562  20.807  0.00  0.00    +0.000 A 
ATOM     24  C   UNL     1       1.525   9.630  20.120  0.00  0.00    +0.000 A 
ENDROOT
BRANCH   1  26
ATOM     25  C   UNL     1       2.467   6.094  19.906  0.00  0.00    +0.000 C 
ATOM     26  N   UNL     1       2.230   7.357  19.639  0.00  0.00    +0.000 NA
ATOM     27  N   UNL     1       3.240   5.352  18.998  0.00  0.00    +0.000 N 
BRANCH  25  29
ATOM     28  C   UNL     1       1.535   3.786  21.043  0.00  0.00    +0.000 C 
ATOM     29  C   UNL     1       2.000   5.226  21.101  0.00  0.00    +0.000 C 
ENDBRANCH  25  29
BRANCH  27  30
ATOM     30  C   UNL     1       4.597   4.902  19.327  0.00  0.00    +0.000 C 
ATOM     31  C   UNL     1       4.879   3.482  18.850  0.00  0.00    +0.000 C 
ENDBRANCH  27  30
BRANCH  27  32
ATOM     32  C   UNL     1       2.781   5.135  17.628  0.00  0.00    +0.000 C 
ATOM     33  C   UNL     1       1.509   4.306  17.553  0.00  0.00    +0.000 C 
ENDBRANCH  27  32
ENDBRANCH   1  26
TORSDOF 4
ENDMDL
MODEL 8
REMARK VINA RESULT:      -6.8      1.346      2.085
REMARK  Name = 
REMARK  9 active torsions:
REMARK  status: ('A' for Active; 'I' for Inactive)
REMARK    1  A    between atoms: C_1  and  C_2
REMARK    2  A    between atoms: C_2  and  C_3
REMARK    3  A    between atoms: N_4  and  C_5
REMARK    4  A    between atoms: N_14  and  C_15
REMARK    5  A    between atoms: N_22  and  C_23
REMARK    6  A    between atoms: N_29  and  C_30
REMARK    7  A    between atoms: N_29  and  C_32
REMARK    8  A    between atoms: C_30  and  C_31
REMARK    9  A    between atoms: C_32  and  C_33
REMARK                            x       y       z     vdW  Elec       q    Type
REMARK                         _______ _______ _______ _____ _____    ______ ____
ROOT
ATOM      1  C   UNL     1       1.636   7.576  20.329  0.00  0.00    +0.000 A 
ATOM      2  C   UNL     1       1.003   7.658  21.560  0.00  0.00    +0.000 A 
ATOM      3  C   UNL     1       0.106   8.696  21.827  0.00  0.00    +0.000 A 
ATOM      4  C   UNL     1       0.017   9.800  21.011  0.00  0.00    +0.000 A 
ATOM      5  N   UNL     1      -0.865  10.794  21.291  0.00  0.00    +0.000 NA
ATOM      6  C   UNL     1      -0.724  11.977  20.643  0.00  0.00    +0.000 A 
ATOM      7  N   UNL     1      -1.648  12.993  20.921  0.00  0.00    +0.000 N 
ATOM      8  C   UNL     1      -2.997  12.643  21.408  0.00  0.00    +0.000 C 
ATOM      9  C   UNL     1      -3.972  13.783  20.969  0.00  0.00    +0.000 C 
ATOM     10  N   UNL     1      -3.562  15.163  21.360  0.00  0.00    +0.000 NA
ATOM     11  C   UNL     1      -4.359  16.152  20.620  0.00  0.00    +0.000 C 
ATOM     12  C   UNL     1      -2.126  15.378  21.070  0.00  0.00    +0.000 C 
ATOM     13  C   UNL     1      -1.193  14.229  21.557  0.00  0.00    +0.000 C 
ATOM     14  C   UNL     1       0.342  12.137  19.695  0.00  0.00    +0.000 A 
ATOM     15  N   UNL     1       0.783  13.374  19.244  0.00  0.00    +0.000 N 
ATOM     16  C   UNL     1       2.185  13.495  18.829  0.00  0.00    +0.000 C 
ATOM     17  C   UNL     1       2.658  14.940  19.136  0.00  0.00    +0.000 C 
ATOM     18  N   UNL     1       1.809  15.991  18.515  0.00  0.00    +0.000 NA
ATOM     19  C   UNL     1       2.235  17.314  18.974  0.00  0.00    +0.000 C 
ATOM     20  C   UNL     1       0.391  15.751  18.869  0.00  0.00    +0.000 C 
ATOM     21  C   UNL     1      -0.083  14.305  18.522  0.00  0.00    +0.000 C 
ATOM     22  N   UNL     1       1.083  11.061  19.299  0.00  0.00    +0.000 NA
ATOM     23  C   UNL     1       0.915   9.887  19.933  0.00  0.00    +0.000 A 
ATOM     24  C   UNL     1       1.650   8.751  19.567  0.00  0.00    +0.000 A 
ENDROOT
BRANCH   1  26
ATOM     25  C   UNL     1       3.034   6.323  18.785  0.00  0.00    +0.000 C 
ATOM     26  N   UNL     1       2.326   6.441  19.884  0.00  0.00    +0.000 NA
ATOM     27  N   UNL     1       3.663   5.094  18.524  0.00  0.00    +0.000 N 
BRANCH  25  29
ATOM     28  C   UNL     1       4.529   7.379  16.752  0.00  0.00    +0.000 C 
ATOM     29  C   UNL     1       3.331   7.364  17.676  0.00  0.00    +0.000 C 
ENDBRANCH  25  29
BRANCH  27  30
ATOM     30  C   UNL     1       3.215   4.213  17.440  0.00  0.00    +0.000 C 
ATOM     31  C   UNL     1       1.854   3.585  17.715  0.00  0.00    +0.000 C 
ENDBRANCH  27  30
BRANCH  27  32
ATOM     32  C   UNL     1       4.690   4.574  19.424  0.00  0.00    +0.000 C 
ATOM     33  C   UNL     1       6.066   5.159  19.155  0.00  0.00    +0.000 C 
ENDBRANCH  27  32
ENDBRANCH   1  26
TORSDOF 4
ENDMDL
MODEL 9
REMARK VINA RESULT:      -6.7      1.538      2.251
REMARK  Name = 
REMARK  9 active torsions:
REMARK  status: ('A' for Active; 'I' for Inactive)
REMARK    1  A    between atoms: C_1  and  C_2
REMARK    2  A    between atoms: C_2  and  C_3
REMARK    3  A    between atoms: N_4  and  C_5
REMARK    4  A    between atoms: N_14  and  C_15
REMARK    5  A    between atoms: N_22  and  C_23
REMARK    6  A    between atoms: N_29  and  C_30
REMARK    7  A    between atoms: N_29  and  C_32
REMARK    8  A    between atoms: C_30  and  C_31
REMARK    9  A    between atoms: C_32  and  C_33
REMARK                            x       y       z     vdW  Elec       q    Type
REMARK                         _______ _______ _______ _____ _____    ______ ____
ROOT
ATOM      1  C   UNL     1       1.301   7.852  20.866  0.00  0.00    +0.000 A 
ATOM      2  C   UNL     1       1.121   8.178  22.201  0.00  0.00    +0.000 A 
ATOM      3  C   UNL     1       0.599   9.424  22.562  0.00  0.00    +0.000 A 
ATOM      4  C   UNL     1       0.496  10.453  21.656  0.00  0.00    +0.000 A 
ATOM      5  N   UNL     1      -0.018  11.653  22.030  0.00  0.00    +0.000 NA
ATOM      6  C   UNL     1       0.163  12.713  21.204  0.00  0.00    +0.000 A 
ATOM      7  N   UNL     1      -0.386  13.944  21.586  0.00  0.00    +0.000 N 
ATOM      8  C   UNL     1      -1.554  13.978  22.488  0.00  0.00    +0.000 C 
ATOM      9  C   UNL     1      -2.349  15.290  22.188  0.00  0.00    +0.000 C 
ATOM     10  N   UNL     1      -1.551  16.548  22.239  0.00  0.00    +0.000 NA
ATOM     11  C   UNL     1      -2.309  17.648  21.624  0.00  0.00    +0.000 C 
ATOM     12  C   UNL     1      -0.269  16.377  21.518  0.00  0.00    +0.000 C 
ATOM     13  C   UNL     1       0.500  15.071  21.876  0.00  0.00    +0.000 C 
ATOM     14  C   UNL     1       0.883  12.533  19.976  0.00  0.00    +0.000 A 
ATOM     15  N   UNL     1       1.414  13.585  19.241  0.00  0.00    +0.000 N 
ATOM     16  C   UNL     1       2.605  13.322  18.426  0.00  0.00    +0.000 C 
ATOM     17  C   UNL     1       3.450  14.622  18.369  0.00  0.00    +0.000 C 
ATOM     18  N   UNL     1       2.695  15.804  17.873  0.00  0.00    +0.000 NA
ATOM     19  C   UNL     1       3.517  17.009  17.992  0.00  0.00    +0.000 C 
ATOM     20  C   UNL     1       1.444  15.952  18.653  0.00  0.00    +0.000 C 
ATOM     21  C   UNL     1       0.586  14.648  18.672  0.00  0.00    +0.000 C 
ATOM     22  N   UNL     1       1.212  11.281  19.544  0.00  0.00    +0.000 NA
ATOM     23  C   UNL     1       1.005  10.235  20.363  0.00  0.00    +0.000 A 
ATOM     24  C   UNL     1       1.325   8.928  19.969  0.00  0.00    +0.000 A 
ENDROOT
BRANCH   1  26
ATOM     25  C   UNL     1       2.216   6.203  19.332  0.00  0.00    +0.000 C 
ATOM     26  N   UNL     1       1.553   6.551  20.411  0.00  0.00    +0.000 NA
ATOM     27  N   UNL     1       2.371   4.834  19.056  0.00  0.00    +0.000 N 
BRANCH  25  29
ATOM     28  C   UNL     1       4.216   6.784  17.558  0.00  0.00    +0.000 C 
ATOM     29  C   UNL     1       2.911   7.084  18.264  0.00  0.00    +0.000 C 
ENDBRANCH  25  29
BRANCH  27  30
ATOM     30  C   UNL     1       1.681   4.189  17.935  0.00  0.00    +0.000 C 
ATOM     31  C   UNL     1       2.594   3.274  17.128  0.00  0.00    +0.000 C 
ENDBRANCH  27  30
BRANCH  27  32
ATOM     32  C   UNL     1       3.105   3.965  19.974  0.00  0.00    +0.000 C 
ATOM     33  C   UNL     1       2.194   3.097  20.824  0.00  0.00    +0.000 C 
ENDBRANCH  27  32
ENDBRANCH   1  26
TORSDOF 4
ENDMDL
