MODEL 1
REMARK VINA RESULT:      -8.4      0.000      0.000
REMARK  Name = 
REMARK  7 active torsions:
REMARK  status: ('A' for Active; 'I' for Inactive)
REMARK    1  A    between atoms: C_1  and  O_2
REMARK    2  A    between atoms: O_2  and  C_3
REMARK    3  A    between atoms: C_6  and  C_7
REMARK    4  A    between atoms: N_8  and  N_9
REMARK    5  A    between atoms: C_10  and  C_12
REMARK    6  A    between atoms: C_17  and  C_18
REMARK    7  A    between atoms: C_25  and  O_26
REMARK                            x       y       z     vdW  Elec       q    Type
REMARK                         _______ _______ _______ _____ _____    ______ ____
ROOT
ATOM      1  N   UNL     1       4.572   3.219  17.428  0.00  0.00    +0.000 N 
ATOM      2  C   UNL     1       3.237   3.387  17.759  0.00  0.00    +0.000 C 
ATOM      3  O   UNL     1       2.313   3.455  16.948  0.00  0.00    +0.000 OA
ATOM      4  H   UNL     1       5.238   2.924  18.135  0.00  0.00    +0.000 HD
ENDROOT
BRANCH   2   5
ATOM      5  C   UNL     1       2.955   3.478  19.246  0.00  0.00    +0.000 C 
ATOM      6  C   UNL     1       1.527   3.243  19.683  0.00  0.00    +0.000 C 
ATOM      7  O   UNL     1       0.683   2.521  19.173  0.00  0.00    +0.000 OA
ATOM      8  N   UNL     1       1.291   3.990  20.813  0.00  0.00    +0.000 N 
ATOM      9  C   UNL     1       2.453   4.719  21.229  0.00  0.00    +0.000 C 
ATOM     10  C   UNL     1       3.311   4.802  19.956  0.00  0.00    +0.000 C 
ATOM     11  H   UNL     1       0.415   3.924  21.319  0.00  0.00    +0.000 HD
BRANCH  10  12
ATOM     12  C   UNL     1       3.071   6.070  19.149  0.00  0.00    +0.000 A 
ATOM     13  C   UNL     1       2.175   7.028  19.651  0.00  0.00    +0.000 A 
ATOM     14  C   UNL     1       1.897   8.193  18.934  0.00  0.00    +0.000 A 
ATOM     15  C   UNL     1       2.515   8.425  17.708  0.00  0.00    +0.000 A 
ATOM     16  C   UNL     1       3.419   7.495  17.203  0.00  0.00    +0.000 A 
ATOM     17  C   UNL     1       3.699   6.330  17.919  0.00  0.00    +0.000 A 
ENDBRANCH  10  12
ENDBRANCH   2   5
BRANCH   1  19
ATOM     18  C   UNL     1       5.976   4.177  15.880  0.00  0.00    +0.000 C 
ATOM     19  N   UNL     1       5.006   3.348  16.142  0.00  0.00    +0.000 NA
BRANCH  18  23
ATOM     20  C   UNL     1       7.981   7.003  18.421  0.00  0.00    +0.000 A 
ATOM     21  C   UNL     1       7.436   7.391  17.186  0.00  0.00    +0.000 A 
ATOM     22  C   UNL     1       6.787   6.469  16.355  0.00  0.00    +0.000 A 
ATOM     23  C   UNL     1       6.654   5.147  16.771  0.00  0.00    +0.000 A 
ATOM     24  C   UNL     1       7.121   4.772  18.030  0.00  0.00    +0.000 A 
ATOM     25  C   UNL     1       7.834   5.674  18.826  0.00  0.00    +0.000 A 
BRANCH  20  27
ATOM     26  C   UNL     1       8.628   9.304  18.454  0.00  0.00    +0.000 C 
ATOM     27  O   UNL     1       8.599   8.030  19.082  0.00  0.00    +0.000 OA
ENDBRANCH  20  27
BRANCH  25  28
ATOM     28  O   UNL     1       8.385   5.193  19.982  0.00  0.00    +0.000 OA
ATOM     29  H   UNL     1       7.728   5.261  20.701  0.00  0.00    +0.000 HD
ENDBRANCH  25  28
ENDBRANCH  18  23
ENDBRANCH   1  19
TORSDOF 6
ENDMDL
MODEL 2
REMARK VINA RESULT:      -7.8      2.553      3.934
REMARK  Name = 
REMARK  7 active torsions:
REMARK  status: ('A' for Active; 'I' for Inactive)
REMARK    1  A    between atoms: C_1  and  O_2
REMARK    2  A    between atoms: O_2  and  C_3
REMARK    3  A    between atoms: C_6  and  C_7
REMARK    4  A    between atoms: N_8  and  N_9
REMARK    5  A    between atoms: C_10  and  C_12
REMARK    6  A    between atoms: C_17  and  C_18
REMARK    7  A    between atoms: C_25  and  O_26
REMARK                            x       y       z     vdW  Elec       q    Type
REMARK                         _______ _______ _______ _____ _____    ______ ____
ROOT
ATOM      1  N   UNL     1       4.886   3.875  19.341  0.00  0.00    +0.000 N 
ATOM      2  C   UNL     1       4.420   2.832  20.124  0.00  0.00    +0.000 C 
ATOM      3  O   UNL     1       4.978   2.406  21.136  0.00  0.00    +0.000 OA
ATOM      4  H   UNL     1       4.266   4.334  18.682  0.00  0.00    +0.000 HD
ENDROOT
BRANCH   2   5
ATOM      5  C   UNL     1       3.117   2.216  19.655  0.00  0.00    +0.000 C 
ATOM      6  C   UNL     1       3.075   1.716  18.228  0.00  0.00    +0.000 C 
ATOM      7  O   UNL     1       3.985   1.253  17.556  0.00  0.00    +0.000 OA
ATOM      8  N   UNL     1       1.790   1.847  17.760  0.00  0.00    +0.000 N 
ATOM      9  C   UNL     1       0.906   2.379  18.755  0.00  0.00    +0.000 C 
ATOM     10  C   UNL     1       1.847   3.089  19.742  0.00  0.00    +0.000 C 
ATOM     11  H   UNL     1       1.520   1.501  16.846  0.00  0.00    +0.000 HD
BRANCH  10  12
ATOM     12  C   UNL     1       2.039   4.567  19.435  0.00  0.00    +0.000 A 
ATOM     13  C   UNL     1       1.988   5.487  20.495  0.00  0.00    +0.000 A 
ATOM     14  C   UNL     1       2.127   6.857  20.261  0.00  0.00    +0.000 A 
ATOM     15  C   UNL     1       2.325   7.330  18.967  0.00  0.00    +0.000 A 
ATOM     16  C   UNL     1       2.394   6.432  17.906  0.00  0.00    +0.000 A 
ATOM     17  C   UNL     1       2.257   5.062  18.138  0.00  0.00    +0.000 A 
ENDBRANCH  10  12
ENDBRANCH   2   5
BRANCH   1  19
ATOM     18  C   UNL     1       6.811   4.762  18.450  0.00  0.00    +0.000 C 
ATOM     19  N   UNL     1       6.145   4.374  19.500  0.00  0.00    +0.000 NA
BRANCH  18  23
ATOM     20  C   UNL     1       5.797   4.357  14.294  0.00  0.00    +0.000 A 
ATOM     21  C   UNL     1       4.942   3.885  15.303  0.00  0.00    +0.000 A 
ATOM     22  C   UNL     1       5.274   4.013  16.658  0.00  0.00    +0.000 A 
ATOM     23  C   UNL     1       6.463   4.642  17.015  0.00  0.00    +0.000 A 
ATOM     24  C   UNL     1       7.279   5.185  16.024  0.00  0.00    +0.000 A 
ATOM     25  C   UNL     1       6.984   4.992  14.670  0.00  0.00    +0.000 A 
BRANCH  20  27
ATOM     26  C   UNL     1       5.989   3.153  12.238  0.00  0.00    +0.000 C 
ATOM     27  O   UNL     1       5.321   4.122  13.033  0.00  0.00    +0.000 OA
ENDBRANCH  20  27
BRANCH  25  28
ATOM     28  O   UNL     1       7.906   5.426  13.757  0.00  0.00    +0.000 OA
ATOM     29  H   UNL     1       8.301   6.260  14.075  0.00  0.00    +0.000 HD
ENDBRANCH  25  28
ENDBRANCH  18  23
ENDBRANCH   1  19
TORSDOF 6
ENDMDL
MODEL 3
REMARK VINA RESULT:      -7.4      2.540      3.968
REMARK  Name = 
REMARK  7 active torsions:
REMARK  status: ('A' for Active; 'I' for Inactive)
REMARK    1  A    between atoms: C_1  and  O_2
REMARK    2  A    between atoms: O_2  and  C_3
REMARK    3  A    between atoms: C_6  and  C_7
REMARK    4  A    between atoms: N_8  and  N_9
REMARK    5  A    between atoms: C_10  and  C_12
REMARK    6  A    between atoms: C_17  and  C_18
REMARK    7  A    between atoms: C_25  and  O_26
REMARK                            x       y       z     vdW  Elec       q    Type
REMARK                         _______ _______ _______ _____ _____    ______ ____
ROOT
ATOM      1  N   UNL     1       4.614   4.060  19.695  0.00  0.00    +0.000 N 
ATOM      2  C   UNL     1       4.285   2.843  20.269  0.00  0.00    +0.000 C 
ATOM      3  O   UNL     1       4.960   2.259  21.118  0.00  0.00    +0.000 OA
ATOM      4  H   UNL     1       3.908   4.597  19.200  0.00  0.00    +0.000 HD
ENDROOT
BRANCH   2   5
ATOM      5  C   UNL     1       2.982   2.240  19.783  0.00  0.00    +0.000 C 
ATOM      6  C   UNL     1       2.946   1.765  18.347  0.00  0.00    +0.000 C 
ATOM      7  O   UNL     1       3.857   1.312  17.671  0.00  0.00    +0.000 OA
ATOM      8  N   UNL     1       1.663   1.910  17.875  0.00  0.00    +0.000 N 
ATOM      9  C   UNL     1       0.776   2.426  18.876  0.00  0.00    +0.000 C 
ATOM     10  C   UNL     1       1.715   3.115  19.880  0.00  0.00    +0.000 C 
ATOM     11  H   UNL     1       1.396   1.580  16.954  0.00  0.00    +0.000 HD
BRANCH  10  12
ATOM     12  C   UNL     1       1.913   4.598  19.600  0.00  0.00    +0.000 A 
ATOM     13  C   UNL     1       2.174   5.006  18.281  0.00  0.00    +0.000 A 
ATOM     14  C   UNL     1       2.394   6.350  17.977  0.00  0.00    +0.000 A 
ATOM     15  C   UNL     1       2.351   7.311  18.984  0.00  0.00    +0.000 A 
ATOM     16  C   UNL     1       2.077   6.929  20.294  0.00  0.00    +0.000 A 
ATOM     17  C   UNL     1       1.856   5.585  20.599  0.00  0.00    +0.000 A 
ENDBRANCH  10  12
ENDBRANCH   2   5
BRANCH   1  19
ATOM     18  C   UNL     1       6.494   5.045  18.812  0.00  0.00    +0.000 C 
ATOM     19  N   UNL     1       5.851   4.610  19.857  0.00  0.00    +0.000 NA
BRANCH  18  23
ATOM     20  C   UNL     1       5.533   4.708  14.637  0.00  0.00    +0.000 A 
ATOM     21  C   UNL     1       5.971   3.597  15.377  0.00  0.00    +0.000 A 
ATOM     22  C   UNL     1       6.290   3.708  16.736  0.00  0.00    +0.000 A 
ATOM     23  C   UNL     1       6.144   4.936  17.376  0.00  0.00    +0.000 A 
ATOM     24  C   UNL     1       5.634   6.024  16.669  0.00  0.00    +0.000 A 
ATOM     25  C   UNL     1       5.388   5.932  15.296  0.00  0.00    +0.000 A 
BRANCH  20  27
ATOM     26  C   UNL     1       6.246   3.615  12.634  0.00  0.00    +0.000 C 
ATOM     27  O   UNL     1       5.296   4.417  13.321  0.00  0.00    +0.000 OA
ENDBRANCH  20  27
BRANCH  25  28
ATOM     28  O   UNL     1       5.027   7.079  14.643  0.00  0.00    +0.000 OA
ATOM     29  H   UNL     1       5.439   7.842  15.089  0.00  0.00    +0.000 HD
ENDBRANCH  25  28
ENDBRANCH  18  23
ENDBRANCH   1  19
TORSDOF 6
ENDMDL
MODEL 4
REMARK VINA RESULT:      -7.1      3.794      6.756
REMARK  Name = 
REMARK  7 active torsions:
REMARK  status: ('A' for Active; 'I' for Inactive)
REMARK    1  A    between atoms: C_1  and  O_2
REMARK    2  A    between atoms: O_2  and  C_3
REMARK    3  A    between atoms: C_6  and  C_7
REMARK    4  A    between atoms: N_8  and  N_9
REMARK    5  A    between atoms: C_10  and  C_12
REMARK    6  A    between atoms: C_17  and  C_18
REMARK    7  A    between atoms: C_25  and  O_26
REMARK                            x       y       z     vdW  Elec       q    Type
REMARK                         _______ _______ _______ _____ _____    ______ ____
ROOT
ATOM      1  N   UNL     1       2.107   8.061  18.215  0.00  0.00    +0.000 N 
ATOM      2  C   UNL     1       2.904   7.000  17.817  0.00  0.00    +0.000 C 
ATOM      3  O   UNL     1       3.902   7.098  17.101  0.00  0.00    +0.000 OA
ATOM      4  H   UNL     1       1.463   7.950  18.993  0.00  0.00    +0.000 HD
ENDROOT
BRANCH   2   5
ATOM      5  C   UNL     1       2.471   5.645  18.340  0.00  0.00    +0.000 C 
ATOM      6  C   UNL     1       2.222   5.538  19.828  0.00  0.00    +0.000 C 
ATOM      7  O   UNL     1       1.816   6.397  20.597  0.00  0.00    +0.000 OA
ATOM      8  N   UNL     1       2.522   4.257  20.227  0.00  0.00    +0.000 N 
ATOM      9  C   UNL     1       2.940   3.436  19.130  0.00  0.00    +0.000 C 
ATOM     10  C   UNL     1       3.405   4.447  18.069  0.00  0.00    +0.000 C 
ATOM     11  H   UNL     1       2.355   3.944  21.177  0.00  0.00    +0.000 HD
BRANCH  10  12
ATOM     12  C   UNL     1       4.896   4.744  18.131  0.00  0.00    +0.000 A 
ATOM     13  C   UNL     1       5.690   4.446  17.012  0.00  0.00    +0.000 A 
ATOM     14  C   UNL     1       7.068   4.670  17.030  0.00  0.00    +0.000 A 
ATOM     15  C   UNL     1       7.675   5.202  18.164  0.00  0.00    +0.000 A 
ATOM     16  C   UNL     1       6.902   5.519  19.278  0.00  0.00    +0.000 A 
ATOM     17  C   UNL     1       5.524   5.297  19.261  0.00  0.00    +0.000 A 
ENDBRANCH  10  12
ENDBRANCH   2   5
BRANCH   1  19
ATOM     18  C   UNL     1       1.775  10.335  18.286  0.00  0.00    +0.000 C 
ATOM     19  N   UNL     1       2.232   9.294  17.649  0.00  0.00    +0.000 NA
BRANCH  18  23
ATOM     20  C   UNL     1      -0.444  10.556  21.959  0.00  0.00    +0.000 A 
ATOM     21  C   UNL     1       0.085  11.709  21.356  0.00  0.00    +0.000 A 
ATOM     22  C   UNL     1       0.813  11.637  20.161  0.00  0.00    +0.000 A 
ATOM     23  C   UNL     1       0.994  10.402  19.544  0.00  0.00    +0.000 A 
ATOM     24  C   UNL     1       0.405   9.264  20.093  0.00  0.00    +0.000 A 
ATOM     25  C   UNL     1      -0.258   9.326  21.323  0.00  0.00    +0.000 A 
BRANCH  20  27
ATOM     26  C   UNL     1      -2.075  11.849  23.135  0.00  0.00    +0.000 C 
ATOM     27  O   UNL     1      -1.100  10.816  23.131  0.00  0.00    +0.000 OA
ENDBRANCH  20  27
BRANCH  25  28
ATOM     28  O   UNL     1      -0.683   8.145  21.868  0.00  0.00    +0.000 OA
ATOM     29  H   UNL     1      -1.028   7.572  21.158  0.00  0.00    +0.000 HD
ENDBRANCH  25  28
ENDBRANCH  18  23
ENDBRANCH   1  19
TORSDOF 6
ENDMDL
MODEL 5
REMARK VINA RESULT:      -7.1      3.526      6.265
REMARK  Name = 
REMARK  7 active torsions:
REMARK  status: ('A' for Active; 'I' for Inactive)
REMARK    1  A    between atoms: C_1  and  O_2
REMARK    2  A    between atoms: O_2  and  C_3
REMARK    3  A    between atoms: C_6  and  C_7
REMARK    4  A    between atoms: N_8  and  N_9
REMARK    5  A    between atoms: C_10  and  C_12
REMARK    6  A    between atoms: C_17  and  C_18
REMARK    7  A    between atoms: C_25  and  O_26
REMARK                            x       y       z     vdW  Elec       q    Type
REMARK                         _______ _______ _______ _____ _____    ______ ____
ROOT
ATOM      1  N   UNL     1       3.661   7.686  17.670  0.00  0.00    +0.000 N 
ATOM      2  C   UNL     1       4.700   7.015  17.047  0.00  0.00    +0.000 C 
ATOM      3  O   UNL     1       4.883   6.973  15.830  0.00  0.00    +0.000 OA
ATOM      4  H   UNL     1       3.708   7.889  18.663  0.00  0.00    +0.000 HD
ENDROOT
BRANCH   2   5
ATOM      5  C   UNL     1       5.655   6.307  17.988  0.00  0.00    +0.000 C 
ATOM      6  C   UNL     1       6.666   5.376  17.356  0.00  0.00    +0.000 C 
ATOM      7  O   UNL     1       7.195   5.457  16.257  0.00  0.00    +0.000 OA
ATOM      8  N   UNL     1       6.940   4.365  18.246  0.00  0.00    +0.000 N 
ATOM      9  C   UNL     1       6.220   4.520  19.475  0.00  0.00    +0.000 C 
ATOM     10  C   UNL     1       5.039   5.430  19.098  0.00  0.00    +0.000 C 
ATOM     11  H   UNL     1       7.651   3.668  18.056  0.00  0.00    +0.000 HD
BRANCH  10  12
ATOM     12  C   UNL     1       3.784   4.660  18.712  0.00  0.00    +0.000 A 
ATOM     13  C   UNL     1       2.656   4.750  19.545  0.00  0.00    +0.000 A 
ATOM     14  C   UNL     1       1.491   4.038  19.253  0.00  0.00    +0.000 A 
ATOM     15  C   UNL     1       1.430   3.231  18.120  0.00  0.00    +0.000 A 
ATOM     16  C   UNL     1       2.532   3.143  17.274  0.00  0.00    +0.000 A 
ATOM     17  C   UNL     1       3.697   3.854  17.564  0.00  0.00    +0.000 A 
ENDBRANCH  10  12
ENDBRANCH   2   5
BRANCH   1  19
ATOM     18  C   UNL     1       1.687   8.863  17.577  0.00  0.00    +0.000 C 
ATOM     19  N   UNL     1       2.604   8.174  16.959  0.00  0.00    +0.000 NA
BRANCH  18  23
ATOM     20  C   UNL     1       1.169   9.595  21.780  0.00  0.00    +0.000 A 
ATOM     21  C   UNL     1       1.438   8.306  21.291  0.00  0.00    +0.000 A 
ATOM     22  C   UNL     1       1.602   8.066  19.921  0.00  0.00    +0.000 A 
ATOM     23  C   UNL     1       1.523   9.129  19.026  0.00  0.00    +0.000 A 
ATOM     24  C   UNL     1       1.337  10.423  19.508  0.00  0.00    +0.000 A 
ATOM     25  C   UNL     1       1.099  10.651  20.868  0.00  0.00    +0.000 A 
BRANCH  20  27
ATOM     26  C   UNL     1      -0.306   9.558  23.660  0.00  0.00    +0.000 C 
ATOM     27  O   UNL     1       1.013   9.633  23.138  0.00  0.00    +0.000 OA
ENDBRANCH  20  27
BRANCH  25  28
ATOM     28  O   UNL     1       0.780  11.928  21.245  0.00  0.00    +0.000 OA
ATOM     29  H   UNL     1      -0.156  11.955  21.517  0.00  0.00    +0.000 HD
ENDBRANCH  25  28
ENDBRANCH  18  23
ENDBRANCH   1  19
TORSDOF 6
ENDMDL
MODEL 6
REMARK VINA RESULT:      -7.0      3.894      6.648
REMARK  Name = 
REMARK  7 active torsions:
REMARK  status: ('A' for Active; 'I' for Inactive)
REMARK    1  A    between atoms: C_1  and  O_2
REMARK    2  A    between atoms: O_2  and  C_3
REMARK    3  A    between atoms: C_6  and  C_7
REMARK    4  A    between atoms: N_8  and  N_9
REMARK    5  A    between atoms: C_10  and  C_12
REMARK    6  A    between atoms: C_17  and  C_18
REMARK    7  A    between atoms: C_25  and  O_26
REMARK                            x       y       z     vdW  Elec       q    Type
REMARK                         _______ _______ _______ _____ _____    ______ ____
ROOT
ATOM      1  N   UNL     1       2.020   8.000  18.200  0.00  0.00    +0.000 N 
ATOM      2  C   UNL     1       2.864   6.956  17.860  0.00  0.00    +0.000 C 
ATOM      3  O   UNL     1       3.891   7.068  17.189  0.00  0.00    +0.000 OA
ATOM      4  H   UNL     1       1.344   7.886  18.948  0.00  0.00    +0.000 HD
ENDROOT
BRANCH   2   5
ATOM      5  C   UNL     1       2.444   5.599  18.391  0.00  0.00    +0.000 C 
ATOM      6  C   UNL     1       2.245   5.485  19.886  0.00  0.00    +0.000 C 
ATOM      7  O   UNL     1       1.867   6.341  20.672  0.00  0.00    +0.000 OA
ATOM      8  N   UNL     1       2.555   4.201  20.268  0.00  0.00    +0.000 N 
ATOM      9  C   UNL     1       2.934   3.384  19.153  0.00  0.00    +0.000 C 
ATOM     10  C   UNL     1       3.366   4.400  18.082  0.00  0.00    +0.000 C 
ATOM     11  H   UNL     1       2.419   3.884  21.221  0.00  0.00    +0.000 HD
BRANCH  10  12
ATOM     12  C   UNL     1       4.859   4.693  18.096  0.00  0.00    +0.000 A 
ATOM     13  C   UNL     1       5.442   5.163  19.284  0.00  0.00    +0.000 A 
ATOM     14  C   UNL     1       6.801   5.476  19.341  0.00  0.00    +0.000 A 
ATOM     15  C   UNL     1       7.603   5.318  18.213  0.00  0.00    +0.000 A 
ATOM     16  C   UNL     1       7.047   4.837  17.031  0.00  0.00    +0.000 A 
ATOM     17  C   UNL     1       5.688   4.523  16.974  0.00  0.00    +0.000 A 
ENDBRANCH  10  12
ENDBRANCH   2   5
BRANCH   1  19
ATOM     18  C   UNL     1       1.698  10.276  18.248  0.00  0.00    +0.000 C 
ATOM     19  N   UNL     1       2.137   9.226  17.614  0.00  0.00    +0.000 NA
BRANCH  18  23
ATOM     20  C   UNL     1      -0.488  10.587  21.934  0.00  0.00    +0.000 A 
ATOM     21  C   UNL     1      -0.989  11.132  20.741  0.00  0.00    +0.000 A 
ATOM     22  C   UNL     1      -0.274  11.036  19.540  0.00  0.00    +0.000 A 
ATOM     23  C   UNL     1       0.944  10.363  19.521  0.00  0.00    +0.000 A 
ATOM     24  C   UNL     1       1.411   9.750  20.682  0.00  0.00    +0.000 A 
ATOM     25  C   UNL     1       0.734   9.910  21.896  0.00  0.00    +0.000 A 
BRANCH  20  27
ATOM     26  C   UNL     1      -2.191  11.912  22.962  0.00  0.00    +0.000 C 
ATOM     27  O   UNL     1      -1.307  10.801  23.009  0.00  0.00    +0.000 OA
ENDBRANCH  20  27
BRANCH  25  28
ATOM     28  O   UNL     1       1.328   9.402  23.019  0.00  0.00    +0.000 OA
ATOM     29  H   UNL     1       1.062   9.937  23.790  0.00  0.00    +0.000 HD
ENDBRANCH  25  28
ENDBRANCH  18  23
ENDBRANCH   1  19
TORSDOF 6
ENDMDL
MODEL 7
REMARK VINA RESULT:      -7.0      3.713      6.520
REMARK  Name = 
REMARK  7 active torsions:
REMARK  status: ('A' for Active; 'I' for Inactive)
REMARK    1  A    between atoms: C_1  and  O_2
REMARK    2  A    between atoms: O_2  and  C_3
REMARK    3  A    between atoms: C_6  and  C_7
REMARK    4  A    between atoms: N_8  and  N_9
REMARK    5  A    between atoms: C_10  and  C_12
REMARK    6  A    between atoms: C_17  and  C_18
REMARK    7  A    between atoms: C_25  and  O_26
REMARK                            x       y       z     vdW  Elec       q    Type
REMARK                         _______ _______ _______ _____ _____    ______ ____
ROOT
ATOM      1  N   UNL     1       1.719   7.732  17.788  0.00  0.00    +0.000 N 
ATOM      2  C   UNL     1       2.723   6.831  18.102  0.00  0.00    +0.000 C 
ATOM      3  O   UNL     1       3.917   7.115  18.208  0.00  0.00    +0.000 OA
ATOM      4  H   UNL     1       0.747   7.493  17.961  0.00  0.00    +0.000 HD
ENDROOT
BRANCH   2   5
ATOM      5  C   UNL     1       2.253   5.408  18.331  0.00  0.00    +0.000 C 
ATOM      6  C   UNL     1       2.343   4.881  19.746  0.00  0.00    +0.000 C 
ATOM      7  O   UNL     1       2.237   5.497  20.797  0.00  0.00    +0.000 OA
ATOM      8  N   UNL     1       2.562   3.525  19.691  0.00  0.00    +0.000 N 
ATOM      9  C   UNL     1       2.608   3.042  18.343  0.00  0.00    +0.000 C 
ATOM     10  C   UNL     1       2.940   4.294  17.514  0.00  0.00    +0.000 C 
ATOM     11  H   UNL     1       2.580   2.956  20.530  0.00  0.00    +0.000 HD
BRANCH  10  12
ATOM     12  C   UNL     1       4.431   4.477  17.269  0.00  0.00    +0.000 A 
ATOM     13  C   UNL     1       4.872   4.738  15.961  0.00  0.00    +0.000 A 
ATOM     14  C   UNL     1       6.231   4.882  15.678  0.00  0.00    +0.000 A 
ATOM     15  C   UNL     1       7.173   4.775  16.698  0.00  0.00    +0.000 A 
ATOM     16  C   UNL     1       6.754   4.533  18.003  0.00  0.00    +0.000 A 
ATOM     17  C   UNL     1       5.395   4.389  18.288  0.00  0.00    +0.000 A 
ENDBRANCH  10  12
ENDBRANCH   2   5
BRANCH   1  19
ATOM     18  C   UNL     1       1.758  10.009  18.102  0.00  0.00    +0.000 C 
ATOM     19  N   UNL     1       2.006   8.986  17.336  0.00  0.00    +0.000 NA
BRANCH  18  23
ATOM     20  C   UNL     1      -0.236  10.216  21.903  0.00  0.00    +0.000 A 
ATOM     21  C   UNL     1      -0.821  10.748  20.742  0.00  0.00    +0.000 A 
ATOM     22  C   UNL     1      -0.169  10.685  19.503  0.00  0.00    +0.000 A 
ATOM     23  C   UNL     1       1.071  10.061  19.414  0.00  0.00    +0.000 A 
ATOM     24  C   UNL     1       1.623   9.460  20.545  0.00  0.00    +0.000 A 
ATOM     25  C   UNL     1       1.007   9.588  21.794  0.00  0.00    +0.000 A 
BRANCH  20  27
ATOM     26  C   UNL     1      -1.801  11.567  23.104  0.00  0.00    +0.000 C 
ATOM     27  O   UNL     1      -1.005  10.393  23.021  0.00  0.00    +0.000 OA
ENDBRANCH  20  27
BRANCH  25  28
ATOM     28  O   UNL     1       1.680   9.098  22.880  0.00  0.00    +0.000 OA
ATOM     29  H   UNL     1       1.205   9.356  23.693  0.00  0.00    +0.000 HD
ENDBRANCH  25  28
ENDBRANCH  18  23
ENDBRANCH   1  19
TORSDOF 6
ENDMDL
MODEL 8
REMARK VINA RESULT:      -6.9      2.558      4.139
REMARK  Name = 
REMARK  7 active torsions:
REMARK  status: ('A' for Active; 'I' for Inactive)
REMARK    1  A    between atoms: C_1  and  O_2
REMARK    2  A    between atoms: O_2  and  C_3
REMARK    3  A    between atoms: C_6  and  C_7
REMARK    4  A    between atoms: N_8  and  N_9
REMARK    5  A    between atoms: C_10  and  C_12
REMARK    6  A    between atoms: C_17  and  C_18
REMARK    7  A    between atoms: C_25  and  O_26
REMARK                            x       y       z     vdW  Elec       q    Type
REMARK                         _______ _______ _______ _____ _____    ______ ____
ROOT
ATOM      1  N   UNL     1       5.906   3.909  18.527  0.00  0.00    +0.000 N 
ATOM      2  C   UNL     1       5.026   4.480  19.431  0.00  0.00    +0.000 C 
ATOM      3  O   UNL     1       5.206   5.552  20.010  0.00  0.00    +0.000 OA
ATOM      4  H   UNL     1       5.592   3.168  17.909  0.00  0.00    +0.000 HD
ENDROOT
BRANCH   2   5
ATOM      5  C   UNL     1       3.760   3.683  19.678  0.00  0.00    +0.000 C 
ATOM      6  C   UNL     1       3.203   2.909  18.504  0.00  0.00    +0.000 C 
ATOM      7  O   UNL     1       3.808   2.396  17.574  0.00  0.00    +0.000 OA
ATOM      8  N   UNL     1       1.837   2.844  18.637  0.00  0.00    +0.000 N 
ATOM      9  C   UNL     1       1.380   3.490  19.832  0.00  0.00    +0.000 C 
ATOM     10  C   UNL     1       2.524   4.453  20.190  0.00  0.00    +0.000 C 
ATOM     11  H   UNL     1       1.267   2.304  17.996  0.00  0.00    +0.000 HD
BRANCH  10  12
ATOM     12  C   UNL     1       2.335   5.852  19.620  0.00  0.00    +0.000 A 
ATOM     13  C   UNL     1       1.911   6.878  20.481  0.00  0.00    +0.000 A 
ATOM     14  C   UNL     1       1.692   8.171  20.002  0.00  0.00    +0.000 A 
ATOM     15  C   UNL     1       1.900   8.463  18.657  0.00  0.00    +0.000 A 
ATOM     16  C   UNL     1       2.337   7.463  17.792  0.00  0.00    +0.000 A 
ATOM     17  C   UNL     1       2.557   6.170  18.270  0.00  0.00    +0.000 A 
ENDBRANCH  10  12
ENDBRANCH   2   5
BRANCH   1  19
ATOM     18  C   UNL     1       7.605   4.673  17.179  0.00  0.00    +0.000 C 
ATOM     19  N   UNL     1       7.175   4.386  18.374  0.00  0.00    +0.000 NA
BRANCH  18  23
ATOM     20  C   UNL     1       5.722   3.973  13.380  0.00  0.00    +0.000 A 
ATOM     21  C   UNL     1       5.088   3.625  14.584  0.00  0.00    +0.000 A 
ATOM     22  C   UNL     1       5.703   3.849  15.823  0.00  0.00    +0.000 A 
ATOM     23  C   UNL     1       6.957   4.451  15.865  0.00  0.00    +0.000 A 
ATOM     24  C   UNL     1       7.559   4.872  14.680  0.00  0.00    +0.000 A 
ATOM     25  C   UNL     1       6.979   4.581  13.441  0.00  0.00    +0.000 A 
BRANCH  20  27
ATOM     26  C   UNL     1       5.359   2.507  11.527  0.00  0.00    +0.000 C 
ATOM     27  O   UNL     1       4.983   3.656  12.273  0.00  0.00    +0.000 OA
ENDBRANCH  20  27
BRANCH  25  28
ATOM     28  O   UNL     1       7.697   4.896  12.320  0.00  0.00    +0.000 OA
ATOM     29  H   UNL     1       8.289   4.152  12.101  0.00  0.00    +0.000 HD
ENDBRANCH  25  28
ENDBRANCH  18  23
ENDBRANCH   1  19
TORSDOF 6
ENDMDL
MODEL 9
REMARK VINA RESULT:      -6.9      3.882      5.600
REMARK  Name = 
REMARK  7 active torsions:
REMARK  status: ('A' for Active; 'I' for Inactive)
REMARK    1  A    between atoms: C_1  and  O_2
REMARK    2  A    between atoms: O_2  and  C_3
REMARK    3  A    between atoms: C_6  and  C_7
REMARK    4  A    between atoms: N_8  and  N_9
REMARK    5  A    between atoms: C_10  and  C_12
REMARK    6  A    between atoms: C_17  and  C_18
REMARK    7  A    between atoms: C_25  and  O_26
REMARK                            x       y       z     vdW  Elec       q    Type
REMARK                         _______ _______ _______ _____ _____    ______ ____
ROOT
ATOM      1  N   UNL     1       1.518   7.497  20.871  0.00  0.00    +0.000 N 
ATOM      2  C   UNL     1       0.571   8.461  21.176  0.00  0.00    +0.000 C 
ATOM      3  O   UNL     1      -0.613   8.232  21.426  0.00  0.00    +0.000 OA
ATOM      4  H   UNL     1       2.507   7.720  20.923  0.00  0.00    +0.000 HD
ENDROOT
BRANCH   2   5
ATOM      5  C   UNL     1       1.094   9.884  21.196  0.00  0.00    +0.000 C 
ATOM      6  C   UNL     1       0.413  10.846  22.144  0.00  0.00    +0.000 C 
ATOM      7  O   UNL     1      -0.109  10.610  23.224  0.00  0.00    +0.000 OA
ATOM      8  N   UNL     1       0.473  12.106  21.600  0.00  0.00    +0.000 N 
ATOM      9  C   UNL     1       1.169  12.120  20.347  0.00  0.00    +0.000 C 
ATOM     10  C   UNL     1       1.085  10.662  19.863  0.00  0.00    +0.000 C 
ATOM     11  H   UNL     1       0.141  12.920  22.107  0.00  0.00    +0.000 HD
BRANCH  10  12
ATOM     12  C   UNL     1      -0.104  10.398  18.951  0.00  0.00    +0.000 A 
ATOM     13  C   UNL     1      -1.339  10.990  19.266  0.00  0.00    +0.000 A 
ATOM     14  C   UNL     1      -2.467  10.753  18.479  0.00  0.00    +0.000 A 
ATOM     15  C   UNL     1      -2.381   9.928  17.361  0.00  0.00    +0.000 A 
ATOM     16  C   UNL     1      -1.162   9.346  17.024  0.00  0.00    +0.000 A 
ATOM     17  C   UNL     1      -0.032   9.582  17.809  0.00  0.00    +0.000 A 
ENDBRANCH  10  12
ENDBRANCH   2   5
BRANCH   1  19
ATOM     18  C   UNL     1       1.941   5.479  19.854  0.00  0.00    +0.000 C 
ATOM     19  N   UNL     1       1.158   6.212  20.594  0.00  0.00    +0.000 NA
BRANCH  18  23
ATOM     20  C   UNL     1       5.488   6.561  17.683  0.00  0.00    +0.000 A 
ATOM     21  C   UNL     1       4.245   7.142  17.385  0.00  0.00    +0.000 A 
ATOM     22  C   UNL     1       3.087   6.786  18.089  0.00  0.00    +0.000 A 
ATOM     23  C   UNL     1       3.173   5.857  19.122  0.00  0.00    +0.000 A 
ATOM     24  C   UNL     1       4.416   5.335  19.477  0.00  0.00    +0.000 A 
ATOM     25  C   UNL     1       5.557   5.634  18.726  0.00  0.00    +0.000 A 
BRANCH  20  27
ATOM     26  C   UNL     1       7.490   7.847  17.452  0.00  0.00    +0.000 C 
ATOM     27  O   UNL     1       6.498   7.009  16.876  0.00  0.00    +0.000 OA
ENDBRANCH  20  27
BRANCH  25  28
ATOM     28  O   UNL     1       6.711   4.971  19.045  0.00  0.00    +0.000 OA
ATOM     29  H   UNL     1       6.494   4.209  19.615  0.00  0.00    +0.000 HD
ENDBRANCH  25  28
ENDBRANCH  18  23
ENDBRANCH   1  19
TORSDOF 6
ENDMDL
