MODEL 1
REMARK VINA RESULT:      -7.0      0.000      0.000
REMARK  Name = 
REMARK  6 active torsions:
REMARK  status: ('A' for Active; 'I' for Inactive)
REMARK    1  A    between atoms: C_1  and  C_2
REMARK    2  A    between atoms: N_8  and  C_9
REMARK    3  A    between atoms: C_9  and  C_10
REMARK    4  A    between atoms: C_10  and  C_11
REMARK    5  A    between atoms: C_11  and  C_12
REMARK    6  A    between atoms: C_12  and  N_13
REMARK                            x       y       z     vdW  Elec       q    Type
REMARK                         _______ _______ _______ _____ _____    ______ ____
ROOT
ATOM      1  C   UNL     1       5.058   2.722  11.374  0.00  0.00    +0.000 C 
ATOM      2  C   UNL     1       5.719   3.472  12.491  0.00  0.00    +0.000 A 
ATOM      3  C   UNL     1       6.915   4.172  12.290  0.00  0.00    +0.000 A 
ATOM      4  C   UNL     1       7.507   4.886  13.339  0.00  0.00    +0.000 A 
ATOM      5  C   UNL     1       6.927   4.895  14.608  0.00  0.00    +0.000 A 
ATOM      6  N   UNL     1       7.569   5.588  15.645  0.00  0.00    +0.000 NA
ATOM      7  C   UNL     1       7.054   5.500  16.825  0.00  0.00    +0.000 A 
ATOM      8  N   UNL     1       5.906   4.812  17.141  0.00  0.00    +0.000 N 
ATOM      9  C   UNL     1       5.176   4.154  16.162  0.00  0.00    +0.000 A 
ATOM     10  O   UNL     1       4.124   3.554  16.370  0.00  0.00    +0.000 OA
ATOM     11  C   UNL     1       5.741   4.188  14.804  0.00  0.00    +0.000 A 
ATOM     12  C   UNL     1       5.128   3.491  13.758  0.00  0.00    +0.000 A 
ENDROOT
BRANCH   8  13
ATOM     13  C   UNL     1       5.470   4.697  18.528  0.00  0.00    +0.000 C 
BRANCH  13  14
ATOM     14  C   UNL     1       4.842   5.971  19.090  0.00  0.00    +0.000 C 
BRANCH  14  15
ATOM     15  C   UNL     1       3.386   6.155  18.662  0.00  0.00    +0.000 C 
BRANCH  15  16
ATOM     16  C   UNL     1       2.449   5.785  19.806  0.00  0.00    +0.000 C 
BRANCH  16  17
ATOM     17  N   UNL     1       1.966   4.425  19.705  0.00  0.00    +0.000 N 
ATOM     18  C   UNL     1       1.456   3.835  18.584  0.00  0.00    +0.000 A 
ATOM     19  C   UNL     1       1.101   2.569  18.983  0.00  0.00    +0.000 A 
ATOM     20  N   UNL     1       1.380   2.383  20.317  0.00  0.00    +0.000 NA
ATOM     21  C   UNL     1       1.900   3.519  20.722  0.00  0.00    +0.000 A 
ENDBRANCH  16  17
ENDBRANCH  15  16
ENDBRANCH  14  15
ENDBRANCH  13  14
ENDBRANCH   8  13
TORSDOF 5
ENDMDL
MODEL 2
REMARK VINA RESULT:      -6.7      2.212      3.778
REMARK  Name = 
REMARK  6 active torsions:
REMARK  status: ('A' for Active; 'I' for Inactive)
REMARK    1  A    between atoms: C_1  and  C_2
REMARK    2  A    between atoms: N_8  and  C_9
REMARK    3  A    between atoms: C_9  and  C_10
REMARK    4  A    between atoms: C_10  and  C_11
REMARK    5  A    between atoms: C_11  and  C_12
REMARK    6  A    between atoms: C_12  and  N_13
REMARK                            x       y       z     vdW  Elec       q    Type
REMARK                         _______ _______ _______ _____ _____    ______ ____
ROOT
ATOM      1  C   UNL     1       6.022   3.837  13.256  0.00  0.00    +0.000 C 
ATOM      2  C   UNL     1       6.008   4.034  14.742  0.00  0.00    +0.000 A 
ATOM      3  C   UNL     1       7.144   4.485  15.427  0.00  0.00    +0.000 A 
ATOM      4  C   UNL     1       7.107   4.686  16.811  0.00  0.00    +0.000 A 
ATOM      5  C   UNL     1       5.945   4.419  17.537  0.00  0.00    +0.000 A 
ATOM      6  N   UNL     1       5.957   4.594  18.928  0.00  0.00    +0.000 NA
ATOM      7  C   UNL     1       4.895   4.251  19.578  0.00  0.00    +0.000 A 
ATOM      8  N   UNL     1       3.740   3.765  19.012  0.00  0.00    +0.000 N 
ATOM      9  C   UNL     1       3.624   3.624  17.636  0.00  0.00    +0.000 A 
ATOM     10  O   UNL     1       2.609   3.231  17.066  0.00  0.00    +0.000 OA
ATOM     11  C   UNL     1       4.821   3.961  16.851  0.00  0.00    +0.000 A 
ATOM     12  C   UNL     1       4.838   3.780  15.464  0.00  0.00    +0.000 A 
ENDROOT
BRANCH   8  13
ATOM     13  C   UNL     1       2.636   3.315  19.853  0.00  0.00    +0.000 C 
BRANCH  13  14
ATOM     14  C   UNL     1       2.068   4.401  20.765  0.00  0.00    +0.000 C 
BRANCH  14  15
ATOM     15  C   UNL     1       1.507   5.594  19.991  0.00  0.00    +0.000 C 
BRANCH  15  16
ATOM     16  C   UNL     1       2.259   6.866  20.367  0.00  0.00    +0.000 C 
BRANCH  16  17
ATOM     17  N   UNL     1       1.900   7.987  19.526  0.00  0.00    +0.000 N 
ATOM     18  C   UNL     1       2.256   8.157  18.218  0.00  0.00    +0.000 A 
ATOM     19  C   UNL     1       1.722   9.372  17.862  0.00  0.00    +0.000 A 
ATOM     20  N   UNL     1       1.057   9.940  18.923  0.00  0.00    +0.000 NA
ATOM     21  C   UNL     1       1.183   9.082  19.910  0.00  0.00    +0.000 A 
ENDBRANCH  16  17
ENDBRANCH  15  16
ENDBRANCH  14  15
ENDBRANCH  13  14
ENDBRANCH   8  13
TORSDOF 5
ENDMDL
MODEL 3
REMARK VINA RESULT:      -6.6      4.256      7.790
REMARK  Name = 
REMARK  6 active torsions:
REMARK  status: ('A' for Active; 'I' for Inactive)
REMARK    1  A    between atoms: C_1  and  C_2
REMARK    2  A    between atoms: N_8  and  C_9
REMARK    3  A    between atoms: C_9  and  C_10
REMARK    4  A    between atoms: C_10  and  C_11
REMARK    5  A    between atoms: C_11  and  C_12
REMARK    6  A    between atoms: C_12  and  N_13
REMARK                            x       y       z     vdW  Elec       q    Type
REMARK                         _______ _______ _______ _____ _____    ______ ____
ROOT
ATOM      1  C   UNL     1       0.799   4.087  20.311  0.00  0.00    +0.000 C 
ATOM      2  C   UNL     1       2.231   4.062  19.868  0.00  0.00    +0.000 A 
ATOM      3  C   UNL     1       3.076   2.994  20.194  0.00  0.00    +0.000 A 
ATOM      4  C   UNL     1       4.404   2.976  19.752  0.00  0.00    +0.000 A 
ATOM      5  C   UNL     1       4.916   4.032  18.997  0.00  0.00    +0.000 A 
ATOM      6  N   UNL     1       6.262   3.999  18.606  0.00  0.00    +0.000 NA
ATOM      7  C   UNL     1       6.726   5.033  17.988  0.00  0.00    +0.000 A 
ATOM      8  N   UNL     1       5.996   6.149  17.650  0.00  0.00    +0.000 N 
ATOM      9  C   UNL     1       4.642   6.233  17.943  0.00  0.00    +0.000 A 
ATOM     10  O   UNL     1       3.927   7.183  17.636  0.00  0.00    +0.000 OA
ATOM     11  C   UNL     1       4.072   5.097  18.684  0.00  0.00    +0.000 A 
ATOM     12  C   UNL     1       2.736   5.115  19.099  0.00  0.00    +0.000 A 
ENDROOT
BRANCH   8  13
ATOM     13  C   UNL     1       6.648   7.303  17.040  0.00  0.00    +0.000 C 
BRANCH  13  14
ATOM     14  C   UNL     1       7.916   7.754  17.763  0.00  0.00    +0.000 C 
BRANCH  14  15
ATOM     15  C   UNL     1       8.074   9.275  17.792  0.00  0.00    +0.000 C 
BRANCH  15  16
ATOM     16  C   UNL     1       9.021   9.685  18.914  0.00  0.00    +0.000 C 
BRANCH  16  17
ATOM     17  N   UNL     1       9.369  11.088  18.857  0.00  0.00    +0.000 N 
ATOM     18  C   UNL     1       8.932  11.987  17.928  0.00  0.00    +0.000 A 
ATOM     19  C   UNL     1       9.553  13.167  18.259  0.00  0.00    +0.000 A 
ATOM     20  N   UNL     1      10.357  13.000  19.361  0.00  0.00    +0.000 NA
ATOM     21  C   UNL     1      10.224  11.737  19.698  0.00  0.00    +0.000 A 
ENDBRANCH  16  17
ENDBRANCH  15  16
ENDBRANCH  14  15
ENDBRANCH  13  14
ENDBRANCH   8  13
TORSDOF 5
ENDMDL
MODEL 4
REMARK VINA RESULT:      -6.6      1.670      3.147
REMARK  Name = 
REMARK  6 active torsions:
REMARK  status: ('A' for Active; 'I' for Inactive)
REMARK    1  A    between atoms: C_1  and  C_2
REMARK    2  A    between atoms: N_8  and  C_9
REMARK    3  A    between atoms: C_9  and  C_10
REMARK    4  A    between atoms: C_10  and  C_11
REMARK    5  A    between atoms: C_11  and  C_12
REMARK    6  A    between atoms: C_12  and  N_13
REMARK                            x       y       z     vdW  Elec       q    Type
REMARK                         _______ _______ _______ _____ _____    ______ ____
ROOT
ATOM      1  C   UNL     1       6.105   3.852  13.655  0.00  0.00    +0.000 C 
ATOM      2  C   UNL     1       6.059   4.226  15.106  0.00  0.00    +0.000 A 
ATOM      3  C   UNL     1       7.216   4.217  15.897  0.00  0.00    +0.000 A 
ATOM      4  C   UNL     1       7.160   4.593  17.244  0.00  0.00    +0.000 A 
ATOM      5  C   UNL     1       5.948   4.960  17.829  0.00  0.00    +0.000 A 
ATOM      6  N   UNL     1       5.923   5.291  19.192  0.00  0.00    +0.000 NA
ATOM      7  C   UNL     1       4.772   5.538  19.721  0.00  0.00    +0.000 A 
ATOM      8  N   UNL     1       3.572   5.539  19.048  0.00  0.00    +0.000 N 
ATOM      9  C   UNL     1       3.518   5.286  17.685  0.00  0.00    +0.000 A 
ATOM     10  O   UNL     1       2.486   5.309  17.019  0.00  0.00    +0.000 OA
ATOM     11  C   UNL     1       4.799   4.958  17.039  0.00  0.00    +0.000 A 
ATOM     12  C   UNL     1       4.846   4.609  15.686  0.00  0.00    +0.000 A 
ENDROOT
BRANCH   8  13
ATOM     13  C   UNL     1       2.319   5.734  19.769  0.00  0.00    +0.000 C 
BRANCH  13  14
ATOM     14  C   UNL     1       2.298   5.103  21.160  0.00  0.00    +0.000 C 
BRANCH  14  15
ATOM     15  C   UNL     1       1.488   3.807  21.212  0.00  0.00    +0.000 C 
BRANCH  15  16
ATOM     16  C   UNL     1       2.416   2.601  21.112  0.00  0.00    +0.000 C 
BRANCH  16  17
ATOM     17  N   UNL     1       2.696   2.232  19.742  0.00  0.00    +0.000 N 
ATOM     18  C   UNL     1       3.910   1.855  19.243  0.00  0.00    +0.000 A 
ATOM     19  C   UNL     1       3.691   1.643  17.904  0.00  0.00    +0.000 A 
ATOM     20  N   UNL     1       2.377   1.887  17.581  0.00  0.00    +0.000 NA
ATOM     21  C   UNL     1       1.804   2.240  18.710  0.00  0.00    +0.000 A 
ENDBRANCH  16  17
ENDBRANCH  15  16
ENDBRANCH  14  15
ENDBRANCH  13  14
ENDBRANCH   8  13
TORSDOF 5
ENDMDL
MODEL 5
REMARK VINA RESULT:      -6.6      3.938      8.013
REMARK  Name = 
REMARK  6 active torsions:
REMARK  status: ('A' for Active; 'I' for Inactive)
REMARK    1  A    between atoms: C_1  and  C_2
REMARK    2  A    between atoms: N_8  and  C_9
REMARK    3  A    between atoms: C_9  and  C_10
REMARK    4  A    between atoms: C_10  and  C_11
REMARK    5  A    between atoms: C_11  and  C_12
REMARK    6  A    between atoms: C_12  and  N_13
REMARK                            x       y       z     vdW  Elec       q    Type
REMARK                         _______ _______ _______ _____ _____    ______ ____
ROOT
ATOM      1  C   UNL     1      -1.245  11.573  21.908  0.00  0.00    +0.000 C 
ATOM      2  C   UNL     1      -0.403  11.016  20.801  0.00  0.00    +0.000 A 
ATOM      3  C   UNL     1      -0.243  11.704  19.591  0.00  0.00    +0.000 A 
ATOM      4  C   UNL     1       0.567  11.181  18.576  0.00  0.00    +0.000 A 
ATOM      5  C   UNL     1       1.212   9.955  18.743  0.00  0.00    +0.000 A 
ATOM      6  N   UNL     1       1.983   9.443  17.689  0.00  0.00    +0.000 NA
ATOM      7  C   UNL     1       2.490   8.266  17.843  0.00  0.00    +0.000 A 
ATOM      8  N   UNL     1       2.366   7.490  18.971  0.00  0.00    +0.000 N 
ATOM      9  C   UNL     1       1.675   7.950  20.083  0.00  0.00    +0.000 A 
ATOM     10  O   UNL     1       1.560   7.323  21.133  0.00  0.00    +0.000 OA
ATOM     11  C   UNL     1       1.041   9.271  19.945  0.00  0.00    +0.000 A 
ATOM     12  C   UNL     1       0.254   9.794  20.976  0.00  0.00    +0.000 A 
ENDROOT
BRANCH   8  13
ATOM     13  C   UNL     1       2.898   6.131  18.997  0.00  0.00    +0.000 C 
BRANCH  13  14
ATOM     14  C   UNL     1       2.326   5.219  17.913  0.00  0.00    +0.000 C 
BRANCH  14  15
ATOM     15  C   UNL     1       3.276   4.085  17.529  0.00  0.00    +0.000 C 
BRANCH  15  16
ATOM     16  C   UNL     1       4.642   4.301  18.169  0.00  0.00    +0.000 C 
BRANCH  16  17
ATOM     17  N   UNL     1       5.704   4.383  17.190  0.00  0.00    +0.000 N 
ATOM     18  C   UNL     1       5.570   4.200  15.843  0.00  0.00    +0.000 A 
ATOM     19  C   UNL     1       6.842   4.337  15.341  0.00  0.00    +0.000 A 
ATOM     20  N   UNL     1       7.739   4.592  16.352  0.00  0.00    +0.000 NA
ATOM     21  C   UNL     1       7.022   4.614  17.452  0.00  0.00    +0.000 A 
ENDBRANCH  16  17
ENDBRANCH  15  16
ENDBRANCH  14  15
ENDBRANCH  13  14
ENDBRANCH   8  13
TORSDOF 5
ENDMDL
MODEL 6
REMARK VINA RESULT:      -6.6      2.929      4.646
REMARK  Name = 
REMARK  6 active torsions:
REMARK  status: ('A' for Active; 'I' for Inactive)
REMARK    1  A    between atoms: C_1  and  C_2
REMARK    2  A    between atoms: N_8  and  C_9
REMARK    3  A    between atoms: C_9  and  C_10
REMARK    4  A    between atoms: C_10  and  C_11
REMARK    5  A    between atoms: C_11  and  C_12
REMARK    6  A    between atoms: C_12  and  N_13
REMARK                            x       y       z     vdW  Elec       q    Type
REMARK                         _______ _______ _______ _____ _____    ______ ____
ROOT
ATOM      1  C   UNL     1       8.081   6.536  18.618  0.00  0.00    +0.000 C 
ATOM      2  C   UNL     1       6.842   5.892  18.073  0.00  0.00    +0.000 A 
ATOM      3  C   UNL     1       6.314   6.266  16.830  0.00  0.00    +0.000 A 
ATOM      4  C   UNL     1       5.170   5.637  16.325  0.00  0.00    +0.000 A 
ATOM      5  C   UNL     1       4.523   4.643  17.060  0.00  0.00    +0.000 A 
ATOM      6  N   UNL     1       3.356   4.064  16.540  0.00  0.00    +0.000 NA
ATOM      7  C   UNL     1       2.732   3.215  17.286  0.00  0.00    +0.000 A 
ATOM      8  N   UNL     1       3.141   2.804  18.533  0.00  0.00    +0.000 N 
ATOM      9  C   UNL     1       4.319   3.279  19.091  0.00  0.00    +0.000 A 
ATOM     10  O   UNL     1       4.758   2.925  20.183  0.00  0.00    +0.000 OA
ATOM     11  C   UNL     1       5.048   4.283  18.300  0.00  0.00    +0.000 A 
ATOM     12  C   UNL     1       6.204   4.886  18.805  0.00  0.00    +0.000 A 
ENDROOT
BRANCH   8  13
ATOM     13  C   UNL     1       2.304   1.913  19.329  0.00  0.00    +0.000 C 
BRANCH  13  14
ATOM     14  C   UNL     1       1.589   2.604  20.489  0.00  0.00    +0.000 C 
BRANCH  14  15
ATOM     15  C   UNL     1       1.124   4.018  20.142  0.00  0.00    +0.000 C 
BRANCH  15  16
ATOM     16  C   UNL     1       1.881   5.042  20.980  0.00  0.00    +0.000 C 
BRANCH  16  17
ATOM     17  N   UNL     1       1.897   6.353  20.368  0.00  0.00    +0.000 N 
ATOM     18  C   UNL     1       1.354   7.491  20.892  0.00  0.00    +0.000 A 
ATOM     19  C   UNL     1       1.583   8.460  19.945  0.00  0.00    +0.000 A 
ATOM     20  N   UNL     1       2.246   7.933  18.861  0.00  0.00    +0.000 NA
ATOM     21  C   UNL     1       2.420   6.663  19.147  0.00  0.00    +0.000 A 
ENDBRANCH  16  17
ENDBRANCH  15  16
ENDBRANCH  14  15
ENDBRANCH  13  14
ENDBRANCH   8  13
TORSDOF 5
ENDMDL
MODEL 7
REMARK VINA RESULT:      -6.6      4.970      7.953
REMARK  Name = 
REMARK  6 active torsions:
REMARK  status: ('A' for Active; 'I' for Inactive)
REMARK    1  A    between atoms: C_1  and  C_2
REMARK    2  A    between atoms: N_8  and  C_9
REMARK    3  A    between atoms: C_9  and  C_10
REMARK    4  A    between atoms: C_10  and  C_11
REMARK    5  A    between atoms: C_11  and  C_12
REMARK    6  A    between atoms: C_12  and  N_13
REMARK                            x       y       z     vdW  Elec       q    Type
REMARK                         _______ _______ _______ _____ _____    ______ ____
ROOT
ATOM      1  C   UNL     1       1.524   4.066  17.635  0.00  0.00    +0.000 C 
ATOM      2  C   UNL     1       2.924   4.293  18.119  0.00  0.00    +0.000 A 
ATOM      3  C   UNL     1       3.463   3.539  19.170  0.00  0.00    +0.000 A 
ATOM      4  C   UNL     1       4.780   3.748  19.594  0.00  0.00    +0.000 A 
ATOM      5  C   UNL     1       5.573   4.726  18.993  0.00  0.00    +0.000 A 
ATOM      6  N   UNL     1       6.875   4.936  19.470  0.00  0.00    +0.000 NA
ATOM      7  C   UNL     1       7.548   5.908  18.953  0.00  0.00    +0.000 A 
ATOM      8  N   UNL     1       7.104   6.731  17.944  0.00  0.00    +0.000 N 
ATOM      9  C   UNL     1       5.854   6.550  17.372  0.00  0.00    +0.000 A 
ATOM     10  O   UNL     1       5.413   7.225  16.445  0.00  0.00    +0.000 OA
ATOM     11  C   UNL     1       5.028   5.480  17.954  0.00  0.00    +0.000 A 
ATOM     12  C   UNL     1       3.721   5.263  17.505  0.00  0.00    +0.000 A 
ENDROOT
BRANCH   8  13
ATOM     13  C   UNL     1       7.912   7.864  17.504  0.00  0.00    +0.000 C 
BRANCH  13  14
ATOM     14  C   UNL     1       8.419   8.746  18.644  0.00  0.00    +0.000 C 
BRANCH  14  15
ATOM     15  C   UNL     1       8.968  10.088  18.158  0.00  0.00    +0.000 C 
BRANCH  15  16
ATOM     16  C   UNL     1       9.562  10.868  19.325  0.00  0.00    +0.000 C 
BRANCH  16  17
ATOM     17  N   UNL     1       9.649  12.286  19.054  0.00  0.00    +0.000 N 
ATOM     18  C   UNL     1      10.543  13.157  19.608  0.00  0.00    +0.000 A 
ATOM     19  C   UNL     1      10.216  14.382  19.080  0.00  0.00    +0.000 A 
ATOM     20  N   UNL     1       9.144  14.273  18.225  0.00  0.00    +0.000 NA
ATOM     21  C   UNL     1       8.827  12.998  18.231  0.00  0.00    +0.000 A 
ENDBRANCH  16  17
ENDBRANCH  15  16
ENDBRANCH  14  15
ENDBRANCH  13  14
ENDBRANCH   8  13
TORSDOF 5
ENDMDL
MODEL 8
REMARK VINA RESULT:      -6.5      4.946      8.235
REMARK  Name = 
REMARK  6 active torsions:
REMARK  status: ('A' for Active; 'I' for Inactive)
REMARK    1  A    between atoms: C_1  and  C_2
REMARK    2  A    between atoms: N_8  and  C_9
REMARK    3  A    between atoms: C_9  and  C_10
REMARK    4  A    between atoms: C_10  and  C_11
REMARK    5  A    between atoms: C_11  and  C_12
REMARK    6  A    between atoms: C_12  and  N_13
REMARK                            x       y       z     vdW  Elec       q    Type
REMARK                         _______ _______ _______ _____ _____    ______ ____
ROOT
ATOM      1  C   UNL     1       1.639   4.267  17.559  0.00  0.00    +0.000 C 
ATOM      2  C   UNL     1       3.007   4.517  18.116  0.00  0.00    +0.000 A 
ATOM      3  C   UNL     1       3.439   3.893  19.294  0.00  0.00    +0.000 A 
ATOM      4  C   UNL     1       4.729   4.119  19.788  0.00  0.00    +0.000 A 
ATOM      5  C   UNL     1       5.600   4.988  19.129  0.00  0.00    +0.000 A 
ATOM      6  N   UNL     1       6.870   5.222  19.675  0.00  0.00    +0.000 NA
ATOM      7  C   UNL     1       7.615   6.099  19.091  0.00  0.00    +0.000 A 
ATOM      8  N   UNL     1       7.277   6.795  17.953  0.00  0.00    +0.000 N 
ATOM      9  C   UNL     1       6.066   6.574  17.314  0.00  0.00    +0.000 A 
ATOM     10  O   UNL     1       5.720   7.134  16.276  0.00  0.00    +0.000 OA
ATOM     11  C   UNL     1       5.161   5.613  17.963  0.00  0.00    +0.000 A 
ATOM     12  C   UNL     1       3.883   5.376  17.446  0.00  0.00    +0.000 A 
ENDROOT
BRANCH   8  13
ATOM     13  C   UNL     1       8.157   7.838  17.435  0.00  0.00    +0.000 C 
BRANCH  13  14
ATOM     14  C   UNL     1       7.984   9.193  18.118  0.00  0.00    +0.000 C 
BRANCH  14  15
ATOM     15  C   UNL     1       9.254  10.043  18.082  0.00  0.00    +0.000 C 
BRANCH  15  16
ATOM     16  C   UNL     1       8.898  11.525  18.110  0.00  0.00    +0.000 C 
BRANCH  16  17
ATOM     17  N   UNL     1      10.058  12.374  17.949  0.00  0.00    +0.000 N 
ATOM     18  C   UNL     1      10.047  13.734  17.822  0.00  0.00    +0.000 A 
ATOM     19  C   UNL     1      11.366  14.084  17.659  0.00  0.00    +0.000 A 
ATOM     20  N   UNL     1      12.170  12.969  17.678  0.00  0.00    +0.000 NA
ATOM     21  C   UNL     1      11.353  11.956  17.855  0.00  0.00    +0.000 A 
ENDBRANCH  16  17
ENDBRANCH  15  16
ENDBRANCH  14  15
ENDBRANCH  13  14
ENDBRANCH   8  13
TORSDOF 5
ENDMDL
MODEL 9
REMARK VINA RESULT:      -6.5      1.885      2.843
REMARK  Name = 
REMARK  6 active torsions:
REMARK  status: ('A' for Active; 'I' for Inactive)
REMARK    1  A    between atoms: C_1  and  C_2
REMARK    2  A    between atoms: N_8  and  C_9
REMARK    3  A    between atoms: C_9  and  C_10
REMARK    4  A    between atoms: C_10  and  C_11
REMARK    5  A    between atoms: C_11  and  C_12
REMARK    6  A    between atoms: C_12  and  N_13
REMARK                            x       y       z     vdW  Elec       q    Type
REMARK                         _______ _______ _______ _____ _____    ______ ____
ROOT
ATOM      1  C   UNL     1       4.650   3.031  11.425  0.00  0.00    +0.000 C 
ATOM      2  C   UNL     1       5.429   3.618  12.563  0.00  0.00    +0.000 A 
ATOM      3  C   UNL     1       6.693   4.188  12.363  0.00  0.00    +0.000 A 
ATOM      4  C   UNL     1       7.397   4.753  13.432  0.00  0.00    +0.000 A 
ATOM      5  C   UNL     1       6.862   4.739  14.721  0.00  0.00    +0.000 A 
ATOM      6  N   UNL     1       7.614   5.278  15.775  0.00  0.00    +0.000 NA
ATOM      7  C   UNL     1       7.129   5.167  16.967  0.00  0.00    +0.000 A 
ATOM      8  N   UNL     1       5.918   4.596  17.280  0.00  0.00    +0.000 N 
ATOM      9  C   UNL     1       5.085   4.098  16.289  0.00  0.00    +0.000 A 
ATOM     10  O   UNL     1       3.976   3.611  16.498  0.00  0.00    +0.000 OA
ATOM     11  C   UNL     1       5.608   4.162  14.915  0.00  0.00    +0.000 A 
ATOM     12  C   UNL     1       4.884   3.617  13.850  0.00  0.00    +0.000 A 
ENDROOT
BRANCH   8  13
ATOM     13  C   UNL     1       5.515   4.435  18.673  0.00  0.00    +0.000 C 
BRANCH  13  14
ATOM     14  C   UNL     1       4.899   5.689  19.291  0.00  0.00    +0.000 C 
BRANCH  14  15
ATOM     15  C   UNL     1       3.382   5.591  19.448  0.00  0.00    +0.000 C 
BRANCH  15  16
ATOM     16  C   UNL     1       2.686   6.434  18.385  0.00  0.00    +0.000 C 
BRANCH  16  17
ATOM     17  N   UNL     1       2.142   7.661  18.922  0.00  0.00    +0.000 N 
ATOM     18  C   UNL     1       1.770   7.875  20.219  0.00  0.00    +0.000 A 
ATOM     19  C   UNL     1       1.283   9.160  20.238  0.00  0.00    +0.000 A 
ATOM     20  N   UNL     1       1.348   9.724  18.986  0.00  0.00    +0.000 NA
ATOM     21  C   UNL     1       1.870   8.796  18.216  0.00  0.00    +0.000 A 
ENDBRANCH  16  17
ENDBRANCH  15  16
ENDBRANCH  14  15
ENDBRANCH  13  14
ENDBRANCH   8  13
TORSDOF 5
ENDMDL
