MODEL 1
REMARK VINA RESULT:      -8.7      0.000      0.000
REMARK  Name = 
REMARK  4 active torsions:
REMARK  status: ('A' for Active; 'I' for Inactive)
REMARK    1  A    between atoms: C_2  and  C_3
REMARK    2  A    between atoms: C_2  and  C_10
REMARK    3  A    between atoms: N_14  and  C_15
REMARK    4  A    between atoms: C_15  and  C_16
REMARK                            x       y       z     vdW  Elec       q    Type
REMARK                         _______ _______ _______ _____ _____    ______ ____
ROOT
ATOM      1  C   UNL     1       4.130   3.166  19.018  0.00  0.00    +0.000 C 
ATOM      2  C   UNL     1       3.016   2.154  18.740  0.00  0.00    +0.000 C 
ATOM      3  C   UNL     1       1.710   2.830  18.343  0.00  0.00    +0.000 C 
ATOM      4  C   UNL     1       1.326   3.948  19.312  0.00  0.00    +0.000 C 
ATOM      5  N   UNL     1       2.408   4.930  19.489  0.00  0.00    +0.000 NA
ATOM      6  C   UNL     1       3.646   4.286  19.950  0.00  0.00    +0.000 C 
ENDROOT
BRANCH   1   8
ATOM      7  O   UNL     1       4.508   3.269  16.611  0.00  0.00    +0.000 OA
ATOM      8  C   UNL     1       4.726   3.738  17.726  0.00  0.00    +0.000 C 
BRANCH   8   9
ATOM      9  C   UNL     1       5.608   4.936  17.803  0.00  0.00    +0.000 A 
ATOM     10  C   UNL     1       5.225   6.086  17.096  0.00  0.00    +0.000 A 
ATOM     11  C   UNL     1       6.041   7.219  17.104  0.00  0.00    +0.000 A 
ATOM     12  C   UNL     1       7.243   7.199  17.808  0.00  0.00    +0.000 A 
ATOM     13 CL   UNL     1       8.258   8.588  17.811  0.00  0.00    +0.000 Cl
ATOM     14  C   UNL     1       7.638   6.055  18.501  0.00  0.00    +0.000 A 
ATOM     15  C   UNL     1       6.822   4.921  18.498  0.00  0.00    +0.000 A 
ENDBRANCH   8   9
ENDBRANCH   1   8
BRANCH   5  16
ATOM     16  C   UNL     1       2.020   6.016  20.412  0.00  0.00    +0.000 C 
BRANCH  16  17
ATOM     17  C   UNL     1       1.836   7.366  19.735  0.00  0.00    +0.000 A 
ATOM     18  C   UNL     1       2.191   7.475  18.375  0.00  0.00    +0.000 A 
ATOM     19  C   UNL     1       2.118   8.695  17.711  0.00  0.00    +0.000 A 
ATOM     20  C   UNL     1       1.679   9.826  18.392  0.00  0.00    +0.000 A 
ATOM     21  C   UNL     1       1.285   9.742  19.737  0.00  0.00    +0.000 A 
ATOM     22  C   UNL     1       0.818  10.863  20.431  0.00  0.00    +0.000 A 
ATOM     23  N   UNL     1       0.414  10.862  21.722  0.00  0.00    +0.000 NA
ATOM     24  C   UNL     1       0.495   9.682  22.365  0.00  0.00    +0.000 A 
ATOM     25  C   UNL     1       0.948   8.510  21.778  0.00  0.00    +0.000 A 
ATOM     26  C   UNL     1       1.357   8.513  20.430  0.00  0.00    +0.000 A 
ENDBRANCH  16  17
ENDBRANCH   5  16
TORSDOF 4
ENDMDL
MODEL 2
REMARK VINA RESULT:      -8.6      0.321      1.002
REMARK  Name = 
REMARK  4 active torsions:
REMARK  status: ('A' for Active; 'I' for Inactive)
REMARK    1  A    between atoms: C_2  and  C_3
REMARK    2  A    between atoms: C_2  and  C_10
REMARK    3  A    between atoms: N_14  and  C_15
REMARK    4  A    between atoms: C_15  and  C_16
REMARK                            x       y       z     vdW  Elec       q    Type
REMARK                         _______ _______ _______ _____ _____    ______ ____
ROOT
ATOM      1  C   UNL     1       4.371   3.384  18.789  0.00  0.00    +0.000 C 
ATOM      2  C   UNL     1       3.278   2.352  18.503  0.00  0.00    +0.000 C 
ATOM      3  C   UNL     1       1.951   3.004  18.138  0.00  0.00    +0.000 C 
ATOM      4  C   UNL     1       1.554   4.092  19.135  0.00  0.00    +0.000 C 
ATOM      5  N   UNL     1       2.614   5.096  19.319  0.00  0.00    +0.000 NA
ATOM      6  C   UNL     1       3.873   4.472  19.751  0.00  0.00    +0.000 C 
ENDROOT
BRANCH   1   8
ATOM      7  O   UNL     1       4.708   3.553  16.380  0.00  0.00    +0.000 OA
ATOM      8  C   UNL     1       4.936   3.998  17.502  0.00  0.00    +0.000 C 
BRANCH   8   9
ATOM      9  C   UNL     1       5.799   5.209  17.594  0.00  0.00    +0.000 A 
ATOM     10  C   UNL     1       6.950   5.141  18.394  0.00  0.00    +0.000 A 
ATOM     11  C   UNL     1       7.767   6.264  18.544  0.00  0.00    +0.000 A 
ATOM     12  C   UNL     1       7.427   7.455  17.905  0.00  0.00    +0.000 A 
ATOM     13 CL   UNL     1       8.423   8.845  18.098  0.00  0.00    +0.000 Cl
ATOM     14  C   UNL     1       6.277   7.534  17.121  0.00  0.00    +0.000 A 
ATOM     15  C   UNL     1       5.460   6.411  16.965  0.00  0.00    +0.000 A 
ENDBRANCH   8   9
ENDBRANCH   1   8
BRANCH   5  16
ATOM     16  C   UNL     1       2.212   6.153  20.270  0.00  0.00    +0.000 C 
BRANCH  16  17
ATOM     17  C   UNL     1       1.914   7.493  19.616  0.00  0.00    +0.000 A 
ATOM     18  C   UNL     1       2.303   7.670  18.271  0.00  0.00    +0.000 A 
ATOM     19  C   UNL     1       2.128   8.892  17.630  0.00  0.00    +0.000 A 
ATOM     20  C   UNL     1       1.552   9.956  18.319  0.00  0.00    +0.000 A 
ATOM     21  C   UNL     1       1.123   9.800  19.646  0.00  0.00    +0.000 A 
ATOM     22  C   UNL     1       0.521  10.850  20.346  0.00  0.00    +0.000 A 
ATOM     23  N   UNL     1       0.076  10.777  21.621  0.00  0.00    +0.000 NA
ATOM     24  C   UNL     1       0.255   9.596  22.242  0.00  0.00    +0.000 A 
ATOM     25  C   UNL     1       0.845   8.491  21.648  0.00  0.00    +0.000 A 
ATOM     26  C   UNL     1       1.297   8.568  20.316  0.00  0.00    +0.000 A 
ENDBRANCH  16  17
ENDBRANCH   5  16
TORSDOF 4
ENDMDL
MODEL 3
REMARK VINA RESULT:      -7.8      1.745      2.035
REMARK  Name = 
REMARK  4 active torsions:
REMARK  status: ('A' for Active; 'I' for Inactive)
REMARK    1  A    between atoms: C_2  and  C_3
REMARK    2  A    between atoms: C_2  and  C_10
REMARK    3  A    between atoms: N_14  and  C_15
REMARK    4  A    between atoms: C_15  and  C_16
REMARK                            x       y       z     vdW  Elec       q    Type
REMARK                         _______ _______ _______ _____ _____    ______ ____
ROOT
ATOM      1  C   UNL     1       3.590   3.531  19.049  0.00  0.00    +0.000 C 
ATOM      2  C   UNL     1       2.751   2.411  19.671  0.00  0.00    +0.000 C 
ATOM      3  C   UNL     1       1.325   2.857  19.968  0.00  0.00    +0.000 C 
ATOM      4  C   UNL     1       1.286   4.180  20.732  0.00  0.00    +0.000 C 
ATOM      5  N   UNL     1       2.050   5.239  20.054  0.00  0.00    +0.000 NA
ATOM      6  C   UNL     1       3.448   4.838  19.841  0.00  0.00    +0.000 C 
ENDROOT
BRANCH   1   8
ATOM      7  O   UNL     1       2.149   3.549  17.082  0.00  0.00    +0.000 OA
ATOM      8  C   UNL     1       3.262   3.742  17.566  0.00  0.00    +0.000 C 
BRANCH   8   9
ATOM      9  C   UNL     1       4.333   4.220  16.648  0.00  0.00    +0.000 A 
ATOM     10  C   UNL     1       5.058   3.262  15.922  0.00  0.00    +0.000 A 
ATOM     11  C   UNL     1       6.099   3.660  15.080  0.00  0.00    +0.000 A 
ATOM     12  C   UNL     1       6.422   5.011  14.973  0.00  0.00    +0.000 A 
ATOM     13 CL   UNL     1       7.712   5.505  13.947  0.00  0.00    +0.000 Cl
ATOM     14  C   UNL     1       5.716   5.967  15.703  0.00  0.00    +0.000 A 
ATOM     15  C   UNL     1       4.671   5.573  16.543  0.00  0.00    +0.000 A 
ENDBRANCH   8   9
ENDBRANCH   1   8
BRANCH   5  16
ATOM     16  C   UNL     1       1.989   6.519  20.790  0.00  0.00    +0.000 C 
BRANCH  16  17
ATOM     17  C   UNL     1       1.751   7.732  19.904  0.00  0.00    +0.000 A 
ATOM     18  C   UNL     1       2.276   7.704  18.596  0.00  0.00    +0.000 A 
ATOM     19  C   UNL     1       2.160   8.806  17.754  0.00  0.00    +0.000 A 
ATOM     20  C   UNL     1       1.507   9.950  18.202  0.00  0.00    +0.000 A 
ATOM     21  C   UNL     1       0.943   9.995  19.487  0.00  0.00    +0.000 A 
ATOM     22  C   UNL     1       0.263  11.127  19.945  0.00  0.00    +0.000 A 
ATOM     23  N   UNL     1      -0.313  11.245  21.164  0.00  0.00    +0.000 NA
ATOM     24  C   UNL     1      -0.190  10.181  21.979  0.00  0.00    +0.000 A 
ATOM     25  C   UNL     1       0.468   9.010  21.632  0.00  0.00    +0.000 A 
ATOM     26  C   UNL     1       1.055   8.888  20.358  0.00  0.00    +0.000 A 
ENDBRANCH  16  17
ENDBRANCH   5  16
TORSDOF 4
ENDMDL
MODEL 4
REMARK VINA RESULT:      -7.7      2.564      2.944
REMARK  Name = 
REMARK  4 active torsions:
REMARK  status: ('A' for Active; 'I' for Inactive)
REMARK    1  A    between atoms: C_2  and  C_3
REMARK    2  A    between atoms: C_2  and  C_10
REMARK    3  A    between atoms: N_14  and  C_15
REMARK    4  A    between atoms: C_15  and  C_16
REMARK                            x       y       z     vdW  Elec       q    Type
REMARK                         _______ _______ _______ _____ _____    ______ ____
ROOT
ATOM      1  C   UNL     1       4.844   4.725  17.998  0.00  0.00    +0.000 C 
ATOM      2  C   UNL     1       4.037   3.469  17.663  0.00  0.00    +0.000 C 
ATOM      3  C   UNL     1       2.551   3.763  17.507  0.00  0.00    +0.000 C 
ATOM      4  C   UNL     1       2.003   4.576  18.679  0.00  0.00    +0.000 C 
ATOM      5  N   UNL     1       2.773   5.809  18.913  0.00  0.00    +0.000 NA
ATOM      6  C   UNL     1       4.195   5.515  19.144  0.00  0.00    +0.000 C 
ENDROOT
BRANCH   1   8
ATOM      7  O   UNL     1       4.857   6.824  16.757  0.00  0.00    +0.000 OA
ATOM      8  C   UNL     1       5.067   5.613  16.769  0.00  0.00    +0.000 C 
BRANCH   8   9
ATOM      9  C   UNL     1       5.581   4.998  15.513  0.00  0.00    +0.000 A 
ATOM     10  C   UNL     1       6.949   5.123  15.226  0.00  0.00    +0.000 A 
ATOM     11  C   UNL     1       7.467   4.598  14.040  0.00  0.00    +0.000 A 
ATOM     12  C   UNL     1       6.619   3.960  13.138  0.00  0.00    +0.000 A 
ATOM     13 CL   UNL     1       7.251   3.323  11.670  0.00  0.00    +0.000 Cl
ATOM     14  C   UNL     1       5.256   3.844  13.409  0.00  0.00    +0.000 A 
ATOM     15  C   UNL     1       4.734   4.365  14.597  0.00  0.00    +0.000 A 
ENDBRANCH   8   9
ENDBRANCH   1   8
BRANCH   5  16
ATOM     16  C   UNL     1       2.223   6.597  20.035  0.00  0.00    +0.000 C 
BRANCH  16  17
ATOM     17  C   UNL     1       1.784   8.001  19.647  0.00  0.00    +0.000 A 
ATOM     18  C   UNL     1       2.015   8.420  18.321  0.00  0.00    +0.000 A 
ATOM     19  C   UNL     1       1.705   9.714  17.915  0.00  0.00    +0.000 A 
ATOM     20  C   UNL     1       1.150  10.608  18.825  0.00  0.00    +0.000 A 
ATOM     21  C   UNL     1       0.876  10.210  20.142  0.00  0.00    +0.000 A 
ATOM     22  C   UNL     1       0.296  11.087  21.064  0.00  0.00    +0.000 A 
ATOM     23  N   UNL     1      -0.004  10.777  22.346  0.00  0.00    +0.000 NA
ATOM     24  C   UNL     1       0.304   9.527  22.739  0.00  0.00    +0.000 A 
ATOM     25  C   UNL     1       0.887   8.577  21.913  0.00  0.00    +0.000 A 
ATOM     26  C   UNL     1       1.188   8.901  20.575  0.00  0.00    +0.000 A 
ENDBRANCH  16  17
ENDBRANCH   5  16
TORSDOF 4
ENDMDL
MODEL 5
REMARK VINA RESULT:      -7.7      1.665      2.089
REMARK  Name = 
REMARK  4 active torsions:
REMARK  status: ('A' for Active; 'I' for Inactive)
REMARK    1  A    between atoms: C_2  and  C_3
REMARK    2  A    between atoms: C_2  and  C_10
REMARK    3  A    between atoms: N_14  and  C_15
REMARK    4  A    between atoms: C_15  and  C_16
REMARK                            x       y       z     vdW  Elec       q    Type
REMARK                         _______ _______ _______ _____ _____    ______ ____
ROOT
ATOM      1  C   UNL     1       2.817   2.655  20.887  0.00  0.00    +0.000 C 
ATOM      2  C   UNL     1       1.653   2.144  20.034  0.00  0.00    +0.000 C 
ATOM      3  C   UNL     1       1.214   3.162  18.989  0.00  0.00    +0.000 C 
ATOM      4  C   UNL     1       0.998   4.548  19.594  0.00  0.00    +0.000 C 
ATOM      5  N   UNL     1       2.173   5.020  20.344  0.00  0.00    +0.000 NA
ATOM      6  C   UNL     1       2.546   4.075  21.407  0.00  0.00    +0.000 C 
ENDROOT
BRANCH   1   8
ATOM      7  O   UNL     1       5.031   1.761  20.394  0.00  0.00    +0.000 OA
ATOM      8  C   UNL     1       4.154   2.584  20.141  0.00  0.00    +0.000 C 
BRANCH   8   9
ATOM      9  C   UNL     1       4.420   3.546  19.035  0.00  0.00    +0.000 A 
ATOM     10  C   UNL     1       3.977   3.211  17.746  0.00  0.00    +0.000 A 
ATOM     11  C   UNL     1       4.240   4.062  16.671  0.00  0.00    +0.000 A 
ATOM     12  C   UNL     1       4.954   5.240  16.881  0.00  0.00    +0.000 A 
ATOM     13 CL   UNL     1       5.292   6.286  15.557  0.00  0.00    +0.000 Cl
ATOM     14  C   UNL     1       5.411   5.572  18.156  0.00  0.00    +0.000 A 
ATOM     15  C   UNL     1       5.146   4.725  19.235  0.00  0.00    +0.000 A 
ENDBRANCH   8   9
ENDBRANCH   1   8
BRANCH   5  16
ATOM     16  C   UNL     1       1.961   6.369  20.908  0.00  0.00    +0.000 C 
BRANCH  16  17
ATOM     17  C   UNL     1       1.868   7.469  19.862  0.00  0.00    +0.000 A 
ATOM     18  C   UNL     1       2.558   7.281  18.646  0.00  0.00    +0.000 A 
ATOM     19  C   UNL     1       2.578   8.276  17.673  0.00  0.00    +0.000 A 
ATOM     20  C   UNL     1       1.900   9.470  17.895  0.00  0.00    +0.000 A 
ATOM     21  C   UNL     1       1.176   9.673  19.080  0.00  0.00    +0.000 A 
ATOM     22  C   UNL     1       0.470  10.858  19.309  0.00  0.00    +0.000 A 
ATOM     23  N   UNL     1      -0.256  11.125  20.419  0.00  0.00    +0.000 NA
ATOM     24  C   UNL     1      -0.265  10.165  21.363  0.00  0.00    +0.000 A 
ATOM     25  C   UNL     1       0.404   8.956  21.245  0.00  0.00    +0.000 A 
ATOM     26  C   UNL     1       1.148   8.678  20.082  0.00  0.00    +0.000 A 
ENDBRANCH  16  17
ENDBRANCH   5  16
TORSDOF 4
ENDMDL
MODEL 6
REMARK VINA RESULT:      -7.6      3.270      5.652
REMARK  Name = 
REMARK  4 active torsions:
REMARK  status: ('A' for Active; 'I' for Inactive)
REMARK    1  A    between atoms: C_2  and  C_3
REMARK    2  A    between atoms: C_2  and  C_10
REMARK    3  A    between atoms: N_14  and  C_15
REMARK    4  A    between atoms: C_15  and  C_16
REMARK                            x       y       z     vdW  Elec       q    Type
REMARK                         _______ _______ _______ _____ _____    ______ ____
ROOT
ATOM      1  C   UNL     1       7.305   6.308  16.960  0.00  0.00    +0.000 C 
ATOM      2  C   UNL     1       7.854   6.401  18.385  0.00  0.00    +0.000 C 
ATOM      3  C   UNL     1       6.947   5.716  19.398  0.00  0.00    +0.000 C 
ATOM      4  C   UNL     1       5.490   6.153  19.249  0.00  0.00    +0.000 C 
ATOM      5  N   UNL     1       4.991   5.977  17.876  0.00  0.00    +0.000 NA
ATOM      6  C   UNL     1       5.823   6.706  16.907  0.00  0.00    +0.000 C 
ENDROOT
BRANCH   1   8
ATOM      7  O   UNL     1       8.250   4.063  16.847  0.00  0.00    +0.000 OA
ATOM      8  C   UNL     1       7.529   4.922  16.344  0.00  0.00    +0.000 C 
BRANCH   8   9
ATOM      9  C   UNL     1       6.834   4.571  15.074  0.00  0.00    +0.000 A 
ATOM     10  C   UNL     1       5.602   3.904  15.157  0.00  0.00    +0.000 A 
ATOM     11  C   UNL     1       4.933   3.518  13.993  0.00  0.00    +0.000 A 
ATOM     12  C   UNL     1       5.501   3.788  12.749  0.00  0.00    +0.000 A 
ATOM     13 CL   UNL     1       4.687   3.302  11.313  0.00  0.00    +0.000 Cl
ATOM     14  C   UNL     1       6.731   4.436  12.659  0.00  0.00    +0.000 A 
ATOM     15  C   UNL     1       7.401   4.828  13.821  0.00  0.00    +0.000 A 
ENDBRANCH   8   9
ENDBRANCH   1   8
BRANCH   5  16
ATOM     16  C   UNL     1       3.577   6.383  17.747  0.00  0.00    +0.000 C 
BRANCH  16  17
ATOM     17  C   UNL     1       2.646   5.705  18.740  0.00  0.00    +0.000 A 
ATOM     18  C   UNL     1       2.125   6.486  19.793  0.00  0.00    +0.000 A 
ATOM     19  C   UNL     1       1.326   5.917  20.779  0.00  0.00    +0.000 A 
ATOM     20  C   UNL     1       1.024   4.560  20.724  0.00  0.00    +0.000 A 
ATOM     21  C   UNL     1       1.498   3.764  19.670  0.00  0.00    +0.000 A 
ATOM     22  C   UNL     1       1.186   2.403  19.586  0.00  0.00    +0.000 A 
ATOM     23  N   UNL     1       1.597   1.573  18.600  0.00  0.00    +0.000 NA
ATOM     24  C   UNL     1       2.378   2.124  17.652  0.00  0.00    +0.000 A 
ATOM     25  C   UNL     1       2.757   3.459  17.640  0.00  0.00    +0.000 A 
ATOM     26  C   UNL     1       2.316   4.322  18.662  0.00  0.00    +0.000 A 
ENDBRANCH  16  17
ENDBRANCH   5  16
TORSDOF 4
ENDMDL
MODEL 7
REMARK VINA RESULT:      -7.6      1.843      2.027
REMARK  Name = 
REMARK  4 active torsions:
REMARK  status: ('A' for Active; 'I' for Inactive)
REMARK    1  A    between atoms: C_2  and  C_3
REMARK    2  A    between atoms: C_2  and  C_10
REMARK    3  A    between atoms: N_14  and  C_15
REMARK    4  A    between atoms: C_15  and  C_16
REMARK                            x       y       z     vdW  Elec       q    Type
REMARK                         _______ _______ _______ _____ _____    ______ ____
ROOT
ATOM      1  C   UNL     1       3.262   3.621  19.135  0.00  0.00    +0.000 C 
ATOM      2  C   UNL     1       2.188   2.722  19.749  0.00  0.00    +0.000 C 
ATOM      3  C   UNL     1       0.874   3.461  19.970  0.00  0.00    +0.000 C 
ATOM      4  C   UNL     1       1.081   4.791  20.694  0.00  0.00    +0.000 C 
ATOM      5  N   UNL     1       2.073   5.646  20.021  0.00  0.00    +0.000 NA
ATOM      6  C   UNL     1       3.365   4.958  19.882  0.00  0.00    +0.000 C 
ENDROOT
BRANCH   1   8
ATOM      7  O   UNL     1       1.947   3.741  17.085  0.00  0.00    +0.000 OA
ATOM      8  C   UNL     1       3.042   3.841  17.633  0.00  0.00    +0.000 C 
BRANCH   8   9
ATOM      9  C   UNL     1       4.203   4.210  16.776  0.00  0.00    +0.000 A 
ATOM     10  C   UNL     1       4.449   5.572  16.546  0.00  0.00    +0.000 A 
ATOM     11  C   UNL     1       5.501   5.965  15.716  0.00  0.00    +0.000 A 
ATOM     12  C   UNL     1       6.298   4.998  15.107  0.00  0.00    +0.000 A 
ATOM     13 CL   UNL     1       7.587   5.476  14.072  0.00  0.00    +0.000 Cl
ATOM     14  C   UNL     1       6.051   3.642  15.318  0.00  0.00    +0.000 A 
ATOM     15  C   UNL     1       5.002   3.245  16.152  0.00  0.00    +0.000 A 
ENDBRANCH   8   9
ENDBRANCH   1   8
BRANCH   5  16
ATOM     16  C   UNL     1       2.249   6.936  20.718  0.00  0.00    +0.000 C 
BRANCH  16  17
ATOM     17  C   UNL     1       1.691   8.130  19.959  0.00  0.00    +0.000 A 
ATOM     18  C   UNL     1       2.058   8.281  18.606  0.00  0.00    +0.000 A 
ATOM     19  C   UNL     1       1.645   9.387  17.870  0.00  0.00    +0.000 A 
ATOM     20  C   UNL     1       0.847  10.356  18.472  0.00  0.00    +0.000 A 
ATOM     21  C   UNL     1       0.436  10.216  19.806  0.00  0.00    +0.000 A 
ATOM     22  C   UNL     1      -0.385  11.168  20.420  0.00  0.00    +0.000 A 
ATOM     23  N   UNL     1      -0.829  11.101  21.696  0.00  0.00    +0.000 NA
ATOM     24  C   UNL     1      -0.419  10.035  22.408  0.00  0.00    +0.000 A 
ATOM     25  C   UNL     1       0.400   9.035  21.905  0.00  0.00    +0.000 A 
ATOM     26  C   UNL     1       0.850   9.103  20.571  0.00  0.00    +0.000 A 
ENDBRANCH  16  17
ENDBRANCH   5  16
TORSDOF 4
ENDMDL
MODEL 8
REMARK VINA RESULT:      -7.5      1.750      2.034
REMARK  Name = 
REMARK  4 active torsions:
REMARK  status: ('A' for Active; 'I' for Inactive)
REMARK    1  A    between atoms: C_2  and  C_3
REMARK    2  A    between atoms: C_2  and  C_10
REMARK    3  A    between atoms: N_14  and  C_15
REMARK    4  A    between atoms: C_15  and  C_16
REMARK                            x       y       z     vdW  Elec       q    Type
REMARK                         _______ _______ _______ _____ _____    ______ ____
ROOT
ATOM      1  C   UNL     1       4.449   3.764  18.951  0.00  0.00    +0.000 C 
ATOM      2  C   UNL     1       3.961   2.467  19.601  0.00  0.00    +0.000 C 
ATOM      3  C   UNL     1       2.479   2.519  19.949  0.00  0.00    +0.000 C 
ATOM      4  C   UNL     1       2.115   3.790  20.714  0.00  0.00    +0.000 C 
ATOM      5  N   UNL     1       2.545   5.009  20.010  0.00  0.00    +0.000 NA
ATOM      6  C   UNL     1       3.991   4.994  19.747  0.00  0.00    +0.000 C 
ENDROOT
BRANCH   1   8
ATOM      7  O   UNL     1       2.875   3.689  17.090  0.00  0.00    +0.000 OA
ATOM      8  C   UNL     1       4.026   3.866  17.480  0.00  0.00    +0.000 C 
BRANCH   8   9
ATOM      9  C   UNL     1       5.049   4.213  16.455  0.00  0.00    +0.000 A 
ATOM     10  C   UNL     1       5.829   5.361  16.660  0.00  0.00    +0.000 A 
ATOM     11  C   UNL     1       6.772   5.748  15.704  0.00  0.00    +0.000 A 
ATOM     12  C   UNL     1       6.926   4.996  14.542  0.00  0.00    +0.000 A 
ATOM     13 CL   UNL     1       8.077   5.477  13.356  0.00  0.00    +0.000 Cl
ATOM     14  C   UNL     1       6.144   3.863  14.324  0.00  0.00    +0.000 A 
ATOM     15  C   UNL     1       5.203   3.470  15.279  0.00  0.00    +0.000 A 
ENDBRANCH   8   9
ENDBRANCH   1   8
BRANCH   5  16
ATOM     16  C   UNL     1       2.170   6.233  20.748  0.00  0.00    +0.000 C 
BRANCH  16  17
ATOM     17  C   UNL     1       1.905   7.436  19.857  0.00  0.00    +0.000 A 
ATOM     18  C   UNL     1       2.336   7.370  18.516  0.00  0.00    +0.000 A 
ATOM     19  C   UNL     1       2.193   8.460  17.663  0.00  0.00    +0.000 A 
ATOM     20  C   UNL     1       1.607   9.631  18.133  0.00  0.00    +0.000 A 
ATOM     21  C   UNL     1       1.135   9.715  19.452  0.00  0.00    +0.000 A 
ATOM     22  C   UNL     1       0.522  10.875  19.934  0.00  0.00    +0.000 A 
ATOM     23  N   UNL     1       0.037  11.032  21.187  0.00  0.00    +0.000 NA
ATOM     24  C   UNL     1       0.185   9.980  22.013  0.00  0.00    +0.000 A 
ATOM     25  C   UNL     1       0.783   8.783  21.644  0.00  0.00    +0.000 A 
ATOM     26  C   UNL     1       1.277   8.621  20.335  0.00  0.00    +0.000 A 
ENDBRANCH  16  17
ENDBRANCH   5  16
TORSDOF 4
ENDMDL
MODEL 9
REMARK VINA RESULT:      -7.5      2.797      5.943
REMARK  Name = 
REMARK  4 active torsions:
REMARK  status: ('A' for Active; 'I' for Inactive)
REMARK    1  A    between atoms: C_2  and  C_3
REMARK    2  A    between atoms: C_2  and  C_10
REMARK    3  A    between atoms: N_14  and  C_15
REMARK    4  A    between atoms: C_15  and  C_16
REMARK                            x       y       z     vdW  Elec       q    Type
REMARK                         _______ _______ _______ _____ _____    ______ ____
ROOT
ATOM      1  C   UNL     1       1.482   4.826  19.035  0.00  0.00    +0.000 C 
ATOM      2  C   UNL     1       0.962   3.759  20.001  0.00  0.00    +0.000 C 
ATOM      3  C   UNL     1       2.053   2.785  20.426  0.00  0.00    +0.000 C 
ATOM      4  C   UNL     1       2.828   2.235  19.229  0.00  0.00    +0.000 C 
ATOM      5  N   UNL     1       3.366   3.305  18.372  0.00  0.00    +0.000 NA
ATOM      6  C   UNL     1       2.298   4.197  17.897  0.00  0.00    +0.000 C 
ENDROOT
BRANCH   1   8
ATOM      7  O   UNL     1       3.191   5.679  20.551  0.00  0.00    +0.000 OA
ATOM      8  C   UNL     1       2.284   5.916  19.756  0.00  0.00    +0.000 C 
BRANCH   8   9
ATOM      9  C   UNL     1       1.973   7.346  19.482  0.00  0.00    +0.000 A 
ATOM     10  C   UNL     1       1.362   8.097  20.498  0.00  0.00    +0.000 A 
ATOM     11  C   UNL     1       1.014   9.431  20.272  0.00  0.00    +0.000 A 
ATOM     12  C   UNL     1       1.265  10.009  19.030  0.00  0.00    +0.000 A 
ATOM     13 CL   UNL     1       0.826  11.648  18.742  0.00  0.00    +0.000 Cl
ATOM     14  C   UNL     1       1.858   9.265  18.010  0.00  0.00    +0.000 A 
ATOM     15  C   UNL     1       2.211   7.931  18.234  0.00  0.00    +0.000 A 
ENDBRANCH   8   9
ENDBRANCH   1   8
BRANCH   5  16
ATOM     16  C   UNL     1       4.129   2.763  17.230  0.00  0.00    +0.000 C 
BRANCH  16  17
ATOM     17  C   UNL     1       5.072   3.767  16.584  0.00  0.00    +0.000 A 
ATOM     18  C   UNL     1       5.117   3.816  15.175  0.00  0.00    +0.000 A 
ATOM     19  C   UNL     1       6.007   4.657  14.516  0.00  0.00    +0.000 A 
ATOM     20  C   UNL     1       6.861   5.472  15.253  0.00  0.00    +0.000 A 
ATOM     21  C   UNL     1       6.815   5.472  16.656  0.00  0.00    +0.000 A 
ATOM     22  C   UNL     1       7.648   6.302  17.413  0.00  0.00    +0.000 A 
ATOM     23  N   UNL     1       7.659   6.364  18.764  0.00  0.00    +0.000 NA
ATOM     24  C   UNL     1       6.803   5.542  19.400  0.00  0.00    +0.000 A 
ATOM     25  C   UNL     1       5.937   4.674  18.752  0.00  0.00    +0.000 A 
ATOM     26  C   UNL     1       5.922   4.621  17.344  0.00  0.00    +0.000 A 
ENDBRANCH  16  17
ENDBRANCH   5  16
TORSDOF 4
ENDMDL
