MODEL 1
REMARK VINA RESULT:      -7.8      0.000      0.000
REMARK  Name = 
REMARK  9 active torsions:
REMARK  status: ('A' for Active; 'I' for Inactive)
REMARK    1  A    between atoms: C_1  and  C_2
REMARK    2  A    between atoms: C_2  and  C_3
REMARK    3  A    between atoms: C_3  and  N_4
REMARK    4  A    between atoms: N_4  and  C_22
REMARK    5  A    between atoms: C_5  and  C_7
REMARK    6  A    between atoms: C_7  and  C_8
REMARK    7  A    between atoms: C_8  and  N_9
REMARK    8  A    between atoms: C_13  and  C_15
REMARK    9  A    between atoms: C_26  and  C_27
REMARK                            x       y       z     vdW  Elec       q    Type
REMARK                         _______ _______ _______ _____ _____    ______ ____
ROOT
ATOM      1  N   UNL     1       2.471   6.142  20.127  0.00  0.00    +0.000 N 
ATOM      2  C   UNL     1       2.048   7.484  20.094  0.00  0.00    +0.000 C 
ATOM      3  O   UNL     1       2.397   8.284  19.220  0.00  0.00    +0.000 OA
ENDROOT
BRANCH   1   4
ATOM      4  C   UNL     1       3.338   5.669  19.093  0.00  0.00    +0.000 A 
ATOM      5  C   UNL     1       2.838   5.462  17.805  0.00  0.00    +0.000 A 
ATOM      6  C   UNL     1       3.681   5.059  16.761  0.00  0.00    +0.000 A 
ATOM      7  C   UNL     1       5.041   4.817  16.986  0.00  0.00    +0.000 A 
ATOM      8  C   UNL     1       5.981   4.366  15.950  0.00  0.00    +0.000 A 
ATOM      9  C   UNL     1       5.569   4.169  14.516  0.00  0.00    +0.000 C 
ATOM     10  C   UNL     1       7.252   4.136  16.310  0.00  0.00    +0.000 A 
ATOM     11  C   UNL     1       7.761   4.307  17.676  0.00  0.00    +0.000 A 
ATOM     12  O   UNL     1       8.930   4.059  17.947  0.00  0.00    +0.000 OA
ATOM     13  O   UNL     1       6.863   4.769  18.622  0.00  0.00    +0.000 OA
ATOM     14  C   UNL     1       5.516   5.016  18.285  0.00  0.00    +0.000 A 
ATOM     15  C   UNL     1       4.697   5.454  19.331  0.00  0.00    +0.000 A 
ENDBRANCH   1   4
BRANCH   1  16
ATOM     16  C   UNL     1       2.106   5.153  21.164  0.00  0.00    +0.000 C 
BRANCH  16  18
ATOM     17  C   UNL     1       1.373   2.687  21.277  0.00  0.00    +0.000 C 
ATOM     18  C   UNL     1       1.130   4.063  20.671  0.00  0.00    +0.000 C 
ENDBRANCH  16  18
ENDBRANCH   1  16
BRANCH   2  19
ATOM     19  C   UNL     1       1.002   7.905  21.113  0.00  0.00    +0.000 C 
BRANCH  19  20
ATOM     20  C   UNL     1       1.190   9.343  21.622  0.00  0.00    +0.000 C 
BRANCH  20  21
ATOM     21  N   UNL     1      -0.109  10.006  21.873  0.00  0.00    +0.000 NA
ATOM     22  C   UNL     1      -0.022  11.480  21.737  0.00  0.00    +0.000 C 
ATOM     23  C   UNL     1       0.038  12.013  20.288  0.00  0.00    +0.000 C 
ATOM     24  N   UNL     1      -1.002  11.434  19.435  0.00  0.00    +0.000 N 
ATOM     25  C   UNL     1      -1.317  12.111  18.248  0.00  0.00    +0.000 C 
ATOM     26  O   UNL     1      -0.688  13.113  17.907  0.00  0.00    +0.000 OA
ATOM     27  C   UNL     1      -1.132   9.979  19.548  0.00  0.00    +0.000 C 
ATOM     28  C   UNL     1      -1.212   9.524  21.013  0.00  0.00    +0.000 C 
BRANCH  25  29
ATOM     29  C   UNL     1      -2.414  11.599  17.438  0.00  0.00    +0.000 A 
ATOM     30  C   UNL     1      -2.406  10.955  16.212  0.00  0.00    +0.000 A 
ATOM     31  C   UNL     1      -3.758  10.726  15.858  0.00  0.00    +0.000 A 
ATOM     32  C   UNL     1      -4.513  11.273  16.866  0.00  0.00    +0.000 A 
ATOM     33  O   UNL     1      -3.713  11.809  17.822  0.00  0.00    +0.000 OA
ENDBRANCH  25  29
ENDBRANCH  20  21
ENDBRANCH  19  20
ENDBRANCH   2  19
TORSDOF 7
ENDMDL
MODEL 2
REMARK VINA RESULT:      -7.7      2.385      3.285
REMARK  Name = 
REMARK  9 active torsions:
REMARK  status: ('A' for Active; 'I' for Inactive)
REMARK    1  A    between atoms: C_1  and  C_2
REMARK    2  A    between atoms: C_2  and  C_3
REMARK    3  A    between atoms: C_3  and  N_4
REMARK    4  A    between atoms: N_4  and  C_22
REMARK    5  A    between atoms: C_5  and  C_7
REMARK    6  A    between atoms: C_7  and  C_8
REMARK    7  A    between atoms: C_8  and  N_9
REMARK    8  A    between atoms: C_13  and  C_15
REMARK    9  A    between atoms: C_26  and  C_27
REMARK                            x       y       z     vdW  Elec       q    Type
REMARK                         _______ _______ _______ _____ _____    ______ ____
ROOT
ATOM      1  N   UNL     1       2.279   6.113  20.138  0.00  0.00    +0.000 N 
ATOM      2  C   UNL     1       1.866   7.458  20.138  0.00  0.00    +0.000 C 
ATOM      3  O   UNL     1       2.246   8.284  19.302  0.00  0.00    +0.000 OA
ENDROOT
BRANCH   1   4
ATOM      4  C   UNL     1       3.173   5.668  19.113  0.00  0.00    +0.000 A 
ATOM      5  C   UNL     1       2.701   5.472  17.813  0.00  0.00    +0.000 A 
ATOM      6  C   UNL     1       3.569   5.098  16.780  0.00  0.00    +0.000 A 
ATOM      7  C   UNL     1       4.928   4.873  17.027  0.00  0.00    +0.000 A 
ATOM      8  C   UNL     1       5.895   4.452  16.003  0.00  0.00    +0.000 A 
ATOM      9  C   UNL     1       5.513   4.269  14.559  0.00  0.00    +0.000 C 
ATOM     10  C   UNL     1       7.162   4.236  16.383  0.00  0.00    +0.000 A 
ATOM     11  C   UNL     1       7.643   4.395  17.761  0.00  0.00    +0.000 A 
ATOM     12  O   UNL     1       8.810   4.161  18.051  0.00  0.00    +0.000 OA
ATOM     13  O   UNL     1       6.720   4.829  18.697  0.00  0.00    +0.000 OA
ATOM     14  C   UNL     1       5.376   5.060  18.338  0.00  0.00    +0.000 A 
ATOM     15  C   UNL     1       4.530   5.471  19.374  0.00  0.00    +0.000 A 
ENDBRANCH   1   4
BRANCH   1  16
ATOM     16  C   UNL     1       1.877   5.092  21.129  0.00  0.00    +0.000 C 
BRANCH  16  18
ATOM     17  C   UNL     1       1.661   2.560  20.710  0.00  0.00    +0.000 C 
ATOM     18  C   UNL     1       1.039   3.940  20.535  0.00  0.00    +0.000 C 
ENDBRANCH  16  18
ENDBRANCH   1  16
BRANCH   2  19
ATOM     19  C   UNL     1       0.794   7.853  21.139  0.00  0.00    +0.000 C 
BRANCH  19  20
ATOM     20  C   UNL     1       0.846   9.336  21.537  0.00  0.00    +0.000 C 
BRANCH  20  21
ATOM     21  N   UNL     1      -0.206  10.120  20.853  0.00  0.00    +0.000 NA
ATOM     22  C   UNL     1      -1.006  10.932  21.801  0.00  0.00    +0.000 C 
ATOM     23  C   UNL     1      -0.317  12.209  22.331  0.00  0.00    +0.000 C 
ATOM     24  N   UNL     1       0.267  13.017  21.258  0.00  0.00    +0.000 N 
ATOM     25  C   UNL     1       0.552  14.361  21.542  0.00  0.00    +0.000 C 
ATOM     26  O   UNL     1       0.383  14.817  22.672  0.00  0.00    +0.000 OA
ATOM     27  C   UNL     1       1.056  12.252  20.290  0.00  0.00    +0.000 C 
ATOM     28  C   UNL     1       0.299  11.013  19.787  0.00  0.00    +0.000 C 
BRANCH  25  29
ATOM     29  C   UNL     1       1.044  15.200  20.458  0.00  0.00    +0.000 A 
ATOM     30  C   UNL     1       0.376  15.789  19.398  0.00  0.00    +0.000 A 
ATOM     31  C   UNL     1       1.351  16.452  18.613  0.00  0.00    +0.000 A 
ATOM     32  C   UNL     1       2.559  16.203  19.217  0.00  0.00    +0.000 A 
ATOM     33  O   UNL     1       2.387  15.442  20.327  0.00  0.00    +0.000 OA
ENDBRANCH  25  29
ENDBRANCH  20  21
ENDBRANCH  19  20
ENDBRANCH   2  19
TORSDOF 7
ENDMDL
MODEL 3
REMARK VINA RESULT:      -7.7      2.228      3.111
REMARK  Name = 
REMARK  9 active torsions:
REMARK  status: ('A' for Active; 'I' for Inactive)
REMARK    1  A    between atoms: C_1  and  C_2
REMARK    2  A    between atoms: C_2  and  C_3
REMARK    3  A    between atoms: C_3  and  N_4
REMARK    4  A    between atoms: N_4  and  C_22
REMARK    5  A    between atoms: C_5  and  C_7
REMARK    6  A    between atoms: C_7  and  C_8
REMARK    7  A    between atoms: C_8  and  N_9
REMARK    8  A    between atoms: C_13  and  C_15
REMARK    9  A    between atoms: C_26  and  C_27
REMARK                            x       y       z     vdW  Elec       q    Type
REMARK                         _______ _______ _______ _____ _____    ______ ____
ROOT
ATOM      1  N   UNL     1       2.259   6.155  20.184  0.00  0.00    +0.000 N 
ATOM      2  C   UNL     1       1.833   7.497  20.194  0.00  0.00    +0.000 C 
ATOM      3  O   UNL     1       2.194   8.329  19.357  0.00  0.00    +0.000 OA
ENDROOT
BRANCH   1   4
ATOM      4  C   UNL     1       3.144   5.723  19.146  0.00  0.00    +0.000 A 
ATOM      5  C   UNL     1       2.666   5.569  17.843  0.00  0.00    +0.000 A 
ATOM      6  C   UNL     1       3.527   5.207  16.798  0.00  0.00    +0.000 A 
ATOM      7  C   UNL     1       4.882   4.955  17.036  0.00  0.00    +0.000 A 
ATOM      8  C   UNL     1       5.839   4.545  16.000  0.00  0.00    +0.000 A 
ATOM      9  C   UNL     1       5.453   4.406  14.552  0.00  0.00    +0.000 C 
ATOM     10  C   UNL     1       7.104   4.299  16.371  0.00  0.00    +0.000 A 
ATOM     11  C   UNL     1       7.590   4.414  17.752  0.00  0.00    +0.000 A 
ATOM     12  O   UNL     1       8.754   4.154  18.032  0.00  0.00    +0.000 OA
ATOM     13  O   UNL     1       6.676   4.839  18.700  0.00  0.00    +0.000 OA
ATOM     14  C   UNL     1       5.335   5.101  18.350  0.00  0.00    +0.000 A 
ATOM     15  C   UNL     1       4.498   5.497  19.398  0.00  0.00    +0.000 A 
ENDBRANCH   1   4
BRANCH   1  16
ATOM     16  C   UNL     1       1.880   5.127  21.177  0.00  0.00    +0.000 C 
BRANCH  16  18
ATOM     17  C   UNL     1       1.487   2.583  21.219  0.00  0.00    +0.000 C 
ATOM     18  C   UNL     1       1.140   3.916  20.570  0.00  0.00    +0.000 C 
ENDBRANCH  16  18
ENDBRANCH   1  16
BRANCH   2  19
ATOM     19  C   UNL     1       0.770   7.877  21.211  0.00  0.00    +0.000 C 
BRANCH  19  20
ATOM     20  C   UNL     1       0.096   9.226  20.914  0.00  0.00    +0.000 C 
BRANCH  20  21
ATOM     21  N   UNL     1       0.592  10.292  21.813  0.00  0.00    +0.000 NA
ATOM     22  C   UNL     1       0.997  11.508  21.069  0.00  0.00    +0.000 C 
ATOM     23  C   UNL     1      -0.160  12.395  20.560  0.00  0.00    +0.000 C 
ATOM     24  N   UNL     1      -1.147  12.682  21.603  0.00  0.00    +0.000 N 
ATOM     25  C   UNL     1      -2.003  13.775  21.403  0.00  0.00    +0.000 C 
ATOM     26  O   UNL     1      -1.969  14.419  20.354  0.00  0.00    +0.000 OA
ATOM     27  C   UNL     1      -1.567  11.508  22.373  0.00  0.00    +0.000 C 
ATOM     28  C   UNL     1      -0.364  10.689  22.868  0.00  0.00    +0.000 C 
BRANCH  25  29
ATOM     29  C   UNL     1      -2.924  14.128  22.474  0.00  0.00    +0.000 A 
ATOM     30  C   UNL     1      -2.706  14.789  23.671  0.00  0.00    +0.000 A 
ATOM     31  C   UNL     1      -3.944  14.815  24.359  0.00  0.00    +0.000 A 
ATOM     32  C   UNL     1      -4.836  14.141  23.562  0.00  0.00    +0.000 A 
ATOM     33  O   UNL     1      -4.231  13.716  22.424  0.00  0.00    +0.000 OA
ENDBRANCH  25  29
ENDBRANCH  20  21
ENDBRANCH  19  20
ENDBRANCH   2  19
TORSDOF 7
ENDMDL
MODEL 4
REMARK VINA RESULT:      -7.6      3.680      5.160
REMARK  Name = 
REMARK  9 active torsions:
REMARK  status: ('A' for Active; 'I' for Inactive)
REMARK    1  A    between atoms: C_1  and  C_2
REMARK    2  A    between atoms: C_2  and  C_3
REMARK    3  A    between atoms: C_3  and  N_4
REMARK    4  A    between atoms: N_4  and  C_22
REMARK    5  A    between atoms: C_5  and  C_7
REMARK    6  A    between atoms: C_7  and  C_8
REMARK    7  A    between atoms: C_8  and  N_9
REMARK    8  A    between atoms: C_13  and  C_15
REMARK    9  A    between atoms: C_26  and  C_27
REMARK                            x       y       z     vdW  Elec       q    Type
REMARK                         _______ _______ _______ _____ _____    ______ ____
ROOT
ATOM      1  N   UNL     1       1.281   9.242  19.704  0.00  0.00    +0.000 N 
ATOM      2  C   UNL     1       1.054   9.686  21.020  0.00  0.00    +0.000 C 
ATOM      3  O   UNL     1       1.278   8.994  22.017  0.00  0.00    +0.000 OA
ENDROOT
BRANCH   1   4
ATOM      4  C   UNL     1       1.811   7.929  19.503  0.00  0.00    +0.000 A 
ATOM      5  C   UNL     1       2.540   7.641  18.347  0.00  0.00    +0.000 A 
ATOM      6  C   UNL     1       3.122   6.381  18.157  0.00  0.00    +0.000 A 
ATOM      7  C   UNL     1       2.960   5.363  19.102  0.00  0.00    +0.000 A 
ATOM      8  C   UNL     1       3.515   4.009  18.962  0.00  0.00    +0.000 A 
ATOM      9  C   UNL     1       4.367   3.603  17.789  0.00  0.00    +0.000 C 
ATOM     10  C   UNL     1       3.253   3.117  19.927  0.00  0.00    +0.000 A 
ATOM     11  C   UNL     1       2.444   3.410  21.117  0.00  0.00    +0.000 A 
ATOM     12  O   UNL     1       2.221   2.544  21.954  0.00  0.00    +0.000 OA
ATOM     13  O   UNL     1       1.966   4.702  21.242  0.00  0.00    +0.000 OA
ATOM     14  C   UNL     1       2.214   5.668  20.245  0.00  0.00    +0.000 A 
ATOM     15  C   UNL     1       1.658   6.932  20.468  0.00  0.00    +0.000 A 
ENDBRANCH   1   4
BRANCH   1  16
ATOM     16  C   UNL     1       1.004  10.019  18.477  0.00  0.00    +0.000 C 
BRANCH  16  18
ATOM     17  C   UNL     1      -1.552  10.312  18.353  0.00  0.00    +0.000 C 
ATOM     18  C   UNL     1      -0.317   9.632  17.777  0.00  0.00    +0.000 C 
ENDBRANCH  16  18
ENDBRANCH   1  16
BRANCH   2  19
ATOM     19  C   UNL     1       0.646  11.139  21.199  0.00  0.00    +0.000 C 
BRANCH  19  20
ATOM     20  C   UNL     1      -0.481  11.334  22.226  0.00  0.00    +0.000 C 
BRANCH  20  21
ATOM     21  N   UNL     1      -0.912  12.748  22.298  0.00  0.00    +0.000 NA
ATOM     22  C   UNL     1      -1.414  13.248  20.996  0.00  0.00    +0.000 C 
ATOM     23  C   UNL     1      -2.830  12.775  20.601  0.00  0.00    +0.000 C 
ATOM     24  N   UNL     1      -3.802  12.957  21.681  0.00  0.00    +0.000 N 
ATOM     25  C   UNL     1      -5.162  12.956  21.336  0.00  0.00    +0.000 C 
ATOM     26  O   UNL     1      -5.519  12.738  20.178  0.00  0.00    +0.000 OA
ATOM     27  C   UNL     1      -3.342  12.487  22.991  0.00  0.00    +0.000 C 
ATOM     28  C   UNL     1      -1.939  13.017  23.327  0.00  0.00    +0.000 C 
BRANCH  25  29
ATOM     29  C   UNL     1      -6.135  13.230  22.384  0.00  0.00    +0.000 A 
ATOM     30  C   UNL     1      -6.493  14.419  22.995  0.00  0.00    +0.000 A 
ATOM     31  C   UNL     1      -7.452  14.101  23.987  0.00  0.00    +0.000 A 
ATOM     32  C   UNL     1      -7.598  12.736  23.951  0.00  0.00    +0.000 A 
ATOM     33  O   UNL     1      -6.804  12.198  22.992  0.00  0.00    +0.000 OA
ENDBRANCH  25  29
ENDBRANCH  20  21
ENDBRANCH  19  20
ENDBRANCH   2  19
TORSDOF 7
ENDMDL
MODEL 5
REMARK VINA RESULT:      -7.4      3.520      5.015
REMARK  Name = 
REMARK  9 active torsions:
REMARK  status: ('A' for Active; 'I' for Inactive)
REMARK    1  A    between atoms: C_1  and  C_2
REMARK    2  A    between atoms: C_2  and  C_3
REMARK    3  A    between atoms: C_3  and  N_4
REMARK    4  A    between atoms: N_4  and  C_22
REMARK    5  A    between atoms: C_5  and  C_7
REMARK    6  A    between atoms: C_7  and  C_8
REMARK    7  A    between atoms: C_8  and  N_9
REMARK    8  A    between atoms: C_13  and  C_15
REMARK    9  A    between atoms: C_26  and  C_27
REMARK                            x       y       z     vdW  Elec       q    Type
REMARK                         _______ _______ _______ _____ _____    ______ ____
ROOT
ATOM      1  N   UNL     1       1.051   9.219  19.754  0.00  0.00    +0.000 N 
ATOM      2  C   UNL     1       0.175   9.916  18.900  0.00  0.00    +0.000 C 
ATOM      3  O   UNL     1       0.117   9.721  17.682  0.00  0.00    +0.000 OA
ENDROOT
BRANCH   1   4
ATOM      4  C   UNL     1       1.910   8.223  19.193  0.00  0.00    +0.000 A 
ATOM      5  C   UNL     1       2.590   8.480  18.001  0.00  0.00    +0.000 A 
ATOM      6  C   UNL     1       3.484   7.545  17.465  0.00  0.00    +0.000 A 
ATOM      7  C   UNL     1       3.697   6.311  18.089  0.00  0.00    +0.000 A 
ATOM      8  C   UNL     1       4.596   5.269  17.574  0.00  0.00    +0.000 A 
ATOM      9  C   UNL     1       5.425   5.459  16.333  0.00  0.00    +0.000 C 
ATOM     10  C   UNL     1       4.679   4.116  18.253  0.00  0.00    +0.000 A 
ATOM     11  C   UNL     1       3.924   3.831  19.480  0.00  0.00    +0.000 A 
ATOM     12  O   UNL     1       4.026   2.748  20.043  0.00  0.00    +0.000 OA
ATOM     13  O   UNL     1       3.114   4.844  19.963  0.00  0.00    +0.000 OA
ATOM     14  C   UNL     1       2.995   6.069  19.274  0.00  0.00    +0.000 A 
ATOM     15  C   UNL     1       2.126   7.006  19.843  0.00  0.00    +0.000 A 
ENDBRANCH   1   4
BRANCH   1  16
ATOM     16  C   UNL     1       1.179   9.434  21.212  0.00  0.00    +0.000 C 
BRANCH  16  18
ATOM     17  C   UNL     1      -0.323   9.643  23.293  0.00  0.00    +0.000 C 
ATOM     18  C   UNL     1       0.009   8.853  22.034  0.00  0.00    +0.000 C 
ENDBRANCH  16  18
ENDBRANCH   1  16
BRANCH   2  19
ATOM     19  C   UNL     1      -0.833  10.847  19.553  0.00  0.00    +0.000 C 
BRANCH  19  20
ATOM     20  C   UNL     1      -2.259  10.686  19.001  0.00  0.00    +0.000 C 
BRANCH  20  21
ATOM     21  N   UNL     1      -2.909  11.997  18.784  0.00  0.00    +0.000 NA
ATOM     22  C   UNL     1      -4.173  11.876  18.018  0.00  0.00    +0.000 C 
ATOM     23  C   UNL     1      -5.384  11.340  18.812  0.00  0.00    +0.000 C 
ATOM     24  N   UNL     1      -5.570  12.034  20.088  0.00  0.00    +0.000 N 
ATOM     25  C   UNL     1      -6.828  11.938  20.701  0.00  0.00    +0.000 C 
ATOM     26  O   UNL     1      -7.715  11.236  20.215  0.00  0.00    +0.000 OA
ATOM     27  C   UNL     1      -4.342  12.187  20.873  0.00  0.00    +0.000 C 
ATOM     28  C   UNL     1      -3.189  12.748  20.027  0.00  0.00    +0.000 C 
BRANCH  25  29
ATOM     29  C   UNL     1      -7.055  12.700  21.921  0.00  0.00    +0.000 A 
ATOM     30  C   UNL     1      -7.234  14.058  22.117  0.00  0.00    +0.000 A 
ATOM     31  C   UNL     1      -7.360  14.261  23.513  0.00  0.00    +0.000 A 
ATOM     32  C   UNL     1      -7.216  13.024  24.091  0.00  0.00    +0.000 A 
ATOM     33  O   UNL     1      -7.025  12.074  23.141  0.00  0.00    +0.000 OA
ENDBRANCH  25  29
ENDBRANCH  20  21
ENDBRANCH  19  20
ENDBRANCH   2  19
TORSDOF 7
ENDMDL
MODEL 6
REMARK VINA RESULT:      -7.4      2.841      4.259
REMARK  Name = 
REMARK  9 active torsions:
REMARK  status: ('A' for Active; 'I' for Inactive)
REMARK    1  A    between atoms: C_1  and  C_2
REMARK    2  A    between atoms: C_2  and  C_3
REMARK    3  A    between atoms: C_3  and  N_4
REMARK    4  A    between atoms: N_4  and  C_22
REMARK    5  A    between atoms: C_5  and  C_7
REMARK    6  A    between atoms: C_7  and  C_8
REMARK    7  A    between atoms: C_8  and  N_9
REMARK    8  A    between atoms: C_13  and  C_15
REMARK    9  A    between atoms: C_26  and  C_27
REMARK                            x       y       z     vdW  Elec       q    Type
REMARK                         _______ _______ _______ _____ _____    ______ ____
ROOT
ATOM      1  N   UNL     1       1.727   8.572  19.518  0.00  0.00    +0.000 N 
ATOM      2  C   UNL     1       1.293   9.643  18.715  0.00  0.00    +0.000 C 
ATOM      3  O   UNL     1       1.450   9.681  17.491  0.00  0.00    +0.000 OA
ENDROOT
BRANCH   1   4
ATOM      4  C   UNL     1       2.371   7.460  18.890  0.00  0.00    +0.000 A 
ATOM      5  C   UNL     1       3.333   7.679  17.901  0.00  0.00    +0.000 A 
ATOM      6  C   UNL     1       4.022   6.608  17.317  0.00  0.00    +0.000 A 
ATOM      7  C   UNL     1       3.742   5.287  17.680  0.00  0.00    +0.000 A 
ATOM      8  C   UNL     1       4.401   4.112  17.093  0.00  0.00    +0.000 A 
ATOM      9  C   UNL     1       5.494   4.228  16.065  0.00  0.00    +0.000 C 
ATOM     10  C   UNL     1       4.012   2.898  17.507  0.00  0.00    +0.000 A 
ATOM     11  C   UNL     1       2.965   2.671  18.512  0.00  0.00    +0.000 A 
ATOM     12  O   UNL     1       2.637   1.535  18.832  0.00  0.00    +0.000 OA
ATOM     13  O   UNL     1       2.388   3.795  19.075  0.00  0.00    +0.000 OA
ATOM     14  C   UNL     1       2.766   5.090  18.661  0.00  0.00    +0.000 A 
ATOM     15  C   UNL     1       2.095   6.148  19.282  0.00  0.00    +0.000 A 
ENDBRANCH   1   4
BRANCH   1  16
ATOM     16  C   UNL     1       1.589   8.490  20.988  0.00  0.00    +0.000 C 
BRANCH  16  18
ATOM     17  C   UNL     1      -0.348   9.107  22.569  0.00  0.00    +0.000 C 
ATOM     18  C   UNL     1       0.152   8.186  21.464  0.00  0.00    +0.000 C 
ENDBRANCH  16  18
ENDBRANCH   1  16
BRANCH   2  19
ATOM     19  C   UNL     1       0.470  10.727  19.393  0.00  0.00    +0.000 C 
BRANCH  19  20
ATOM     20  C   UNL     1      -1.038  10.605  19.124  0.00  0.00    +0.000 C 
BRANCH  20  21
ATOM     21  N   UNL     1      -1.564  11.798  18.424  0.00  0.00    +0.000 NA
ATOM     22  C   UNL     1      -2.440  11.439  17.284  0.00  0.00    +0.000 C 
ATOM     23  C   UNL     1      -3.860  10.960  17.660  0.00  0.00    +0.000 C 
ATOM     24  N   UNL     1      -4.520  11.859  18.609  0.00  0.00    +0.000 N 
ATOM     25  C   UNL     1      -5.917  11.775  18.716  0.00  0.00    +0.000 C 
ATOM     26  O   UNL     1      -6.548  10.927  18.085  0.00  0.00    +0.000 OA
ATOM     27  C   UNL     1      -3.685  12.251  19.747  0.00  0.00    +0.000 C 
ATOM     28  C   UNL     1      -2.299  12.739  19.297  0.00  0.00    +0.000 C 
BRANCH  25  29
ATOM     29  C   UNL     1      -6.595  12.726  19.586  0.00  0.00    +0.000 A 
ATOM     30  C   UNL     1      -6.792  14.090  19.453  0.00  0.00    +0.000 A 
ATOM     31  C   UNL     1      -7.468  14.525  20.618  0.00  0.00    +0.000 A 
ATOM     32  C   UNL     1      -7.615  13.413  21.410  0.00  0.00    +0.000 A 
ATOM     33  O   UNL     1      -7.085  12.322  20.801  0.00  0.00    +0.000 OA
ENDBRANCH  25  29
ENDBRANCH  20  21
ENDBRANCH  19  20
ENDBRANCH   2  19
TORSDOF 7
ENDMDL
MODEL 7
REMARK VINA RESULT:      -7.3      3.606      5.033
REMARK  Name = 
REMARK  9 active torsions:
REMARK  status: ('A' for Active; 'I' for Inactive)
REMARK    1  A    between atoms: C_1  and  C_2
REMARK    2  A    between atoms: C_2  and  C_3
REMARK    3  A    between atoms: C_3  and  N_4
REMARK    4  A    between atoms: N_4  and  C_22
REMARK    5  A    between atoms: C_5  and  C_7
REMARK    6  A    between atoms: C_7  and  C_8
REMARK    7  A    between atoms: C_8  and  N_9
REMARK    8  A    between atoms: C_13  and  C_15
REMARK    9  A    between atoms: C_26  and  C_27
REMARK                            x       y       z     vdW  Elec       q    Type
REMARK                         _______ _______ _______ _____ _____    ______ ____
ROOT
ATOM      1  N   UNL     1       1.306   9.138  19.827  0.00  0.00    +0.000 N 
ATOM      2  C   UNL     1       0.994   9.621  21.112  0.00  0.00    +0.000 C 
ATOM      3  O   UNL     1       1.112   8.945  22.138  0.00  0.00    +0.000 OA
ENDROOT
BRANCH   1   4
ATOM      4  C   UNL     1       1.798   7.802  19.696  0.00  0.00    +0.000 A 
ATOM      5  C   UNL     1       1.489   6.847  20.668  0.00  0.00    +0.000 A 
ATOM      6  C   UNL     1       1.908   5.517  20.530  0.00  0.00    +0.000 A 
ATOM      7  C   UNL     1       2.677   5.114  19.434  0.00  0.00    +0.000 A 
ATOM      8  C   UNL     1       3.177   3.747  19.234  0.00  0.00    +0.000 A 
ATOM      9  C   UNL     1       2.856   2.623  20.182  0.00  0.00    +0.000 C 
ATOM     10  C   UNL     1       3.936   3.504  18.156  0.00  0.00    +0.000 A 
ATOM     11  C   UNL     1       4.299   4.522  17.163  0.00  0.00    +0.000 A 
ATOM     12  O   UNL     1       5.016   4.243  16.209  0.00  0.00    +0.000 OA
ATOM     13  O   UNL     1       3.784   5.792  17.356  0.00  0.00    +0.000 OA
ATOM     14  C   UNL     1       2.987   6.089  18.481  0.00  0.00    +0.000 A 
ATOM     15  C   UNL     1       2.546   7.413  18.583  0.00  0.00    +0.000 A 
ENDBRANCH   1   4
BRANCH   1  16
ATOM     16  C   UNL     1       1.156   9.895  18.566  0.00  0.00    +0.000 C 
BRANCH  16  18
ATOM     17  C   UNL     1      -1.365  10.352  18.307  0.00  0.00    +0.000 C 
ATOM     18  C   UNL     1      -0.150   9.586  17.803  0.00  0.00    +0.000 C 
ENDBRANCH  16  18
ENDBRANCH   1  16
BRANCH   2  19
ATOM     19  C   UNL     1       0.630  11.093  21.228  0.00  0.00    +0.000 C 
BRANCH  19  20
ATOM     20  C   UNL     1      -0.499  11.364  22.234  0.00  0.00    +0.000 C 
BRANCH  20  21
ATOM     21  N   UNL     1      -0.920  12.783  22.209  0.00  0.00    +0.000 NA
ATOM     22  C   UNL     1      -1.508  13.171  20.905  0.00  0.00    +0.000 C 
ATOM     23  C   UNL     1      -2.949  12.677  20.650  0.00  0.00    +0.000 C 
ATOM     24  N   UNL     1      -3.845  12.962  21.773  0.00  0.00    +0.000 N 
ATOM     25  C   UNL     1      -5.225  12.944  21.521  0.00  0.00    +0.000 C 
ATOM     26  O   UNL     1      -5.660  12.627  20.414  0.00  0.00    +0.000 OA
ATOM     27  C   UNL     1      -3.298  12.606  23.085  0.00  0.00    +0.000 C 
ATOM     28  C   UNL     1      -1.874  13.151  23.277  0.00  0.00    +0.000 C 
BRANCH  25  29
ATOM     29  C   UNL     1      -6.124  13.318  22.604  0.00  0.00    +0.000 A 
ATOM     30  C   UNL     1      -7.011  12.555  23.345  0.00  0.00    +0.000 A 
ATOM     31  C   UNL     1      -7.672  13.438  24.234  0.00  0.00    +0.000 A 
ATOM     32  C   UNL     1      -7.178  14.690  23.962  0.00  0.00    +0.000 A 
ATOM     33  O   UNL     1      -6.248  14.632  22.976  0.00  0.00    +0.000 OA
ENDBRANCH  25  29
ENDBRANCH  20  21
ENDBRANCH  19  20
ENDBRANCH   2  19
TORSDOF 7
ENDMDL
MODEL 8
REMARK VINA RESULT:      -7.3      2.836      4.448
REMARK  Name = 
REMARK  9 active torsions:
REMARK  status: ('A' for Active; 'I' for Inactive)
REMARK    1  A    between atoms: C_1  and  C_2
REMARK    2  A    between atoms: C_2  and  C_3
REMARK    3  A    between atoms: C_3  and  N_4
REMARK    4  A    between atoms: N_4  and  C_22
REMARK    5  A    between atoms: C_5  and  C_7
REMARK    6  A    between atoms: C_7  and  C_8
REMARK    7  A    between atoms: C_8  and  N_9
REMARK    8  A    between atoms: C_13  and  C_15
REMARK    9  A    between atoms: C_26  and  C_27
REMARK                            x       y       z     vdW  Elec       q    Type
REMARK                         _______ _______ _______ _____ _____    ______ ____
ROOT
ATOM      1  N   UNL     1       1.223   8.776  19.785  0.00  0.00    +0.000 N 
ATOM      2  C   UNL     1       1.182   9.959  19.022  0.00  0.00    +0.000 C 
ATOM      3  O   UNL     1       1.871  10.139  18.014  0.00  0.00    +0.000 OA
ENDROOT
BRANCH   1   4
ATOM      4  C   UNL     1       2.094   7.720  19.370  0.00  0.00    +0.000 A 
ATOM      5  C   UNL     1       2.196   6.558  20.138  0.00  0.00    +0.000 A 
ATOM      6  C   UNL     1       2.994   5.485  19.720  0.00  0.00    +0.000 A 
ATOM      7  C   UNL     1       3.740   5.560  18.539  0.00  0.00    +0.000 A 
ATOM      8  C   UNL     1       4.621   4.490  18.050  0.00  0.00    +0.000 A 
ATOM      9  C   UNL     1       4.762   3.172  18.761  0.00  0.00    +0.000 C 
ATOM     10  C   UNL     1       5.309   4.707  16.920  0.00  0.00    +0.000 A 
ATOM     11  C   UNL     1       5.237   5.950  16.142  0.00  0.00    +0.000 A 
ATOM     12  O   UNL     1       5.909   6.097  15.128  0.00  0.00    +0.000 OA
ATOM     13  O   UNL     1       4.372   6.926  16.606  0.00  0.00    +0.000 OA
ATOM     14  C   UNL     1       3.635   6.738  17.794  0.00  0.00    +0.000 A 
ATOM     15  C   UNL     1       2.815   7.804  18.177  0.00  0.00    +0.000 A 
ENDBRANCH   1   4
BRANCH   1  16
ATOM     16  C   UNL     1       0.441   8.520  21.014  0.00  0.00    +0.000 C 
BRANCH  16  18
ATOM     17  C   UNL     1      -0.079   9.735  23.224  0.00  0.00    +0.000 C 
ATOM     18  C   UNL     1       0.994   9.235  22.265  0.00  0.00    +0.000 C 
ENDBRANCH  16  18
ENDBRANCH   1  16
BRANCH   2  19
ATOM     19  C   UNL     1       0.130  10.988  19.399  0.00  0.00    +0.000 C 
BRANCH  19  20
ATOM     20  C   UNL     1      -1.280  10.629  18.903  0.00  0.00    +0.000 C 
BRANCH  20  21
ATOM     21  N   UNL     1      -1.991  11.816  18.378  0.00  0.00    +0.000 NA
ATOM     22  C   UNL     1      -2.955  11.465  17.308  0.00  0.00    +0.000 C 
ATOM     23  C   UNL     1      -4.271  10.813  17.785  0.00  0.00    +0.000 C 
ATOM     24  N   UNL     1      -4.899  11.556  18.880  0.00  0.00    +0.000 N 
ATOM     25  C   UNL     1      -6.261  11.321  19.125  0.00  0.00    +0.000 C 
ATOM     26  O   UNL     1      -6.879  10.468  18.488  0.00  0.00    +0.000 OA
ATOM     27  C   UNL     1      -3.979  11.935  19.955  0.00  0.00    +0.000 C 
ATOM     28  C   UNL     1      -2.706  12.600  19.409  0.00  0.00    +0.000 C 
BRANCH  25  29
ATOM     29  C   UNL     1      -6.920  12.121  20.148  0.00  0.00    +0.000 A 
ATOM     30  C   UNL     1      -7.399  13.419  20.109  0.00  0.00    +0.000 A 
ATOM     31  C   UNL     1      -7.898  13.714  21.401  0.00  0.00    +0.000 A 
ATOM     32  C   UNL     1      -7.664  12.595  22.163  0.00  0.00    +0.000 A 
ATOM     33  O   UNL     1      -7.068  11.629  21.420  0.00  0.00    +0.000 OA
ENDBRANCH  25  29
ENDBRANCH  20  21
ENDBRANCH  19  20
ENDBRANCH   2  19
TORSDOF 7
ENDMDL
MODEL 9
REMARK VINA RESULT:      -7.3      4.323      6.804
REMARK  Name = 
REMARK  9 active torsions:
REMARK  status: ('A' for Active; 'I' for Inactive)
REMARK    1  A    between atoms: C_1  and  C_2
REMARK    2  A    between atoms: C_2  and  C_3
REMARK    3  A    between atoms: C_3  and  N_4
REMARK    4  A    between atoms: N_4  and  C_22
REMARK    5  A    between atoms: C_5  and  C_7
REMARK    6  A    between atoms: C_7  and  C_8
REMARK    7  A    between atoms: C_8  and  N_9
REMARK    8  A    between atoms: C_13  and  C_15
REMARK    9  A    between atoms: C_26  and  C_27
REMARK                            x       y       z     vdW  Elec       q    Type
REMARK                         _______ _______ _______ _____ _____    ______ ____
ROOT
ATOM      1  N   UNL     1       0.261  10.651  19.627  0.00  0.00    +0.000 N 
ATOM      2  C   UNL     1       0.438  11.290  20.869  0.00  0.00    +0.000 C 
ATOM      3  O   UNL     1       1.208  10.877  21.741  0.00  0.00    +0.000 OA
ENDROOT
BRANCH   1   4
ATOM      4  C   UNL     1       1.018   9.469  19.348  0.00  0.00    +0.000 A 
ATOM      5  C   UNL     1       1.797   9.398  18.192  0.00  0.00    +0.000 A 
ATOM      6  C   UNL     1       2.596   8.278  17.928  0.00  0.00    +0.000 A 
ATOM      7  C   UNL     1       2.608   7.182  18.798  0.00  0.00    +0.000 A 
ATOM      8  C   UNL     1       3.396   5.961  18.576  0.00  0.00    +0.000 A 
ATOM      9  C   UNL     1       4.317   5.797  17.398  0.00  0.00    +0.000 C 
ATOM     10  C   UNL     1       3.287   4.970  19.472  0.00  0.00    +0.000 A 
ATOM     11  C   UNL     1       2.428   5.029  20.661  0.00  0.00    +0.000 A 
ATOM     12  O   UNL     1       2.354   4.079  21.431  0.00  0.00    +0.000 OA
ATOM     13  O   UNL     1       1.727   6.205  20.865  0.00  0.00    +0.000 OA
ATOM     14  C   UNL     1       1.809   7.268  19.942  0.00  0.00    +0.000 A 
ATOM     15  C   UNL     1       1.035   8.395  20.239  0.00  0.00    +0.000 A 
ENDBRANCH   1   4
BRANCH   1  16
ATOM     16  C   UNL     1      -0.666  11.087  18.562  0.00  0.00    +0.000 C 
BRANCH  16  18
ATOM     17  C   UNL     1      -2.266  10.051  16.831  0.00  0.00    +0.000 C 
ATOM     18  C   UNL     1      -1.812  10.091  18.284  0.00  0.00    +0.000 C 
ENDBRANCH  16  18
ENDBRANCH   1  16
BRANCH   2  19
ATOM     19  C   UNL     1      -0.258  12.627  21.064  0.00  0.00    +0.000 C 
BRANCH  19  20
ATOM     20  C   UNL     1       0.689  13.831  20.937  0.00  0.00    +0.000 C 
BRANCH  20  21
ATOM     21  N   UNL     1       1.059  14.087  19.528  0.00  0.00    +0.000 NA
ATOM     22  C   UNL     1       1.050  15.533  19.199  0.00  0.00    +0.000 C 
ATOM     23  C   UNL     1       2.256  16.343  19.724  0.00  0.00    +0.000 C 
ATOM     24  N   UNL     1       3.537  15.707  19.410  0.00  0.00    +0.000 N 
ATOM     25  C   UNL     1       4.687  16.508  19.460  0.00  0.00    +0.000 C 
ATOM     26  O   UNL     1       4.624  17.682  19.825  0.00  0.00    +0.000 OA
ATOM     27  C   UNL     1       3.586  14.273  19.707  0.00  0.00    +0.000 C 
ATOM     28  C   UNL     1       2.370  13.529  19.133  0.00  0.00    +0.000 C 
BRANCH  25  29
ATOM     29  C   UNL     1       5.955  15.913  19.059  0.00  0.00    +0.000 A 
ATOM     30  C   UNL     1       6.358  15.381  17.846  0.00  0.00    +0.000 A 
ATOM     31  C   UNL     1       7.674  14.890  18.028  0.00  0.00    +0.000 A 
ATOM     32  C   UNL     1       7.985  15.116  19.346  0.00  0.00    +0.000 A 
ATOM     33  O   UNL     1       6.953  15.727  19.981  0.00  0.00    +0.000 OA
ENDBRANCH  25  29
ENDBRANCH  20  21
ENDBRANCH  19  20
ENDBRANCH   2  19
TORSDOF 7
ENDMDL
