MODEL 1
REMARK VINA RESULT:      -8.4      0.000      0.000
REMARK  Name = 
REMARK  6 active torsions:
REMARK  status: ('A' for Active; 'I' for Inactive)
REMARK    1  A    between atoms: C_1  and  N_2
REMARK    2  A    between atoms: N_2  and  C_3
REMARK    3  A    between atoms: C_5  and  C_6
REMARK    4  A    between atoms: C_8  and  N_9
REMARK    5  A    between atoms: N_9  and  C_10
REMARK    6  A    between atoms: C_21  and  C_22
REMARK                            x       y       z     vdW  Elec       q    Type
REMARK                         _______ _______ _______ _____ _____    ______ ____
ROOT
ATOM      1  C   UNL     1       3.276   5.117  19.108  0.00  0.00    +0.000 A 
ATOM      2  C   UNL     1       2.500   6.200  19.463  0.00  0.00    +0.000 A 
ATOM      3  C   UNL     1       1.603   6.037  20.500  0.00  0.00    +0.000 A 
ATOM      4  N   UNL     1       1.543   4.896  21.203  0.00  0.00    +0.000 NA
ATOM      5  C   UNL     1       2.386   3.907  20.847  0.00  0.00    +0.000 A 
ATOM      6  C   UNL     1       2.442   2.673  21.686  0.00  0.00    +0.000 C 
ATOM      7  N   UNL     1       3.231   3.965  19.804  0.00  0.00    +0.000 NA
ENDROOT
BRANCH   1  10
ATOM      8  C   UNL     1       6.116   6.234  16.830  0.00  0.00    +0.000 A 
ATOM      9  C   UNL     1       5.152   6.183  17.847  0.00  0.00    +0.000 A 
ATOM     10  C   UNL     1       4.216   5.135  17.967  0.00  0.00    +0.000 A 
ATOM     11  C   UNL     1       4.240   4.130  16.987  0.00  0.00    +0.000 A 
ATOM     12  C   UNL     1       5.146   4.184  15.925  0.00  0.00    +0.000 A 
ATOM     13  C   UNL     1       6.065   5.230  15.843  0.00  0.00    +0.000 A 
ATOM     14 CL   UNL     1       7.180   5.234  14.519  0.00  0.00    +0.000 Cl
BRANCH   8  16
ATOM     15  C   UNL     1       7.871   7.569  17.882  0.00  0.00    +0.000 C 
ATOM     16  N   UNL     1       7.024   7.307  16.729  0.00  0.00    +0.000 N 
ATOM     17  H   UNL     1       7.551   7.238  15.856  0.00  0.00    +0.000 HD
ENDBRANCH   8  16
ENDBRANCH   1  10
BRANCH   3  18
ATOM     18  N   UNL     1       0.834   7.144  20.874  0.00  0.00    +0.000 N 
ATOM     19  H   UNL     1       0.279   6.979  21.705  0.00  0.00    +0.000 HD
BRANCH  18  20
ATOM     20  C   UNL     1       1.496   8.452  20.923  0.00  0.00    +0.000 C 
ATOM     21  C   UNL     1       1.641   8.948  22.375  0.00  0.00    +0.000 C 
ATOM     22  C   UNL     1       0.315   9.393  22.985  0.00  0.00    +0.000 C 
ATOM     23  C   UNL     1      -0.359  10.489  22.166  0.00  0.00    +0.000 C 
ATOM     24  C   UNL     1      -0.252  10.313  20.674  0.00  0.00    +0.000 A 
ATOM     25  C   UNL     1      -1.030  11.140  19.847  0.00  0.00    +0.000 A 
ATOM     26  C   UNL     1      -0.907  11.082  18.459  0.00  0.00    +0.000 A 
ATOM     27  C   UNL     1      -0.005  10.196  17.880  0.00  0.00    +0.000 A 
ATOM     28  C   UNL     1       0.761   9.358  18.689  0.00  0.00    +0.000 A 
ATOM     29  C   UNL     1       0.656   9.409  20.090  0.00  0.00    +0.000 A 
ENDBRANCH  18  20
ENDBRANCH   3  18
TORSDOF 4
ENDMDL
MODEL 2
REMARK VINA RESULT:      -8.2      1.076      2.233
REMARK  Name = 
REMARK  6 active torsions:
REMARK  status: ('A' for Active; 'I' for Inactive)
REMARK    1  A    between atoms: C_1  and  N_2
REMARK    2  A    between atoms: N_2  and  C_3
REMARK    3  A    between atoms: C_5  and  C_6
REMARK    4  A    between atoms: C_8  and  N_9
REMARK    5  A    between atoms: N_9  and  C_10
REMARK    6  A    between atoms: C_21  and  C_22
REMARK                            x       y       z     vdW  Elec       q    Type
REMARK                         _______ _______ _______ _____ _____    ______ ____
ROOT
ATOM      1  C   UNL     1       3.334   5.718  18.865  0.00  0.00    +0.000 A 
ATOM      2  C   UNL     1       2.962   6.990  19.245  0.00  0.00    +0.000 A 
ATOM      3  C   UNL     1       1.990   7.113  20.218  0.00  0.00    +0.000 A 
ATOM      4  N   UNL     1       1.481   6.039  20.840  0.00  0.00    +0.000 NA
ATOM      5  C   UNL     1       1.946   4.831  20.468  0.00  0.00    +0.000 A 
ATOM      6  C   UNL     1       1.502   3.624  21.226  0.00  0.00    +0.000 C 
ATOM      7  N   UNL     1       2.835   4.629  19.479  0.00  0.00    +0.000 NA
ENDROOT
BRANCH   1  10
ATOM      8  C   UNL     1       6.439   6.034  16.683  0.00  0.00    +0.000 A 
ATOM      9  C   UNL     1       5.444   6.267  17.644  0.00  0.00    +0.000 A 
ATOM     10  C   UNL     1       4.303   5.449  17.781  0.00  0.00    +0.000 A 
ATOM     11  C   UNL     1       4.156   4.385  16.877  0.00  0.00    +0.000 A 
ATOM     12  C   UNL     1       5.097   4.165  15.868  0.00  0.00    +0.000 A 
ATOM     13  C   UNL     1       6.219   4.987  15.767  0.00  0.00    +0.000 A 
ATOM     14 CL   UNL     1       7.364   4.653  14.513  0.00  0.00    +0.000 Cl
BRANCH   8  16
ATOM     15  C   UNL     1       7.810   7.807  17.655  0.00  0.00    +0.000 C 
ATOM     16  N   UNL     1       7.557   6.884  16.560  0.00  0.00    +0.000 N 
ATOM     17  H   UNL     1       8.382   6.341  16.299  0.00  0.00    +0.000 HD
ENDBRANCH   8  16
ENDBRANCH   1  10
BRANCH   3  18
ATOM     18  N   UNL     1       1.632   8.404  20.620  0.00  0.00    +0.000 N 
ATOM     19  H   UNL     1       2.407   9.055  20.600  0.00  0.00    +0.000 HD
BRANCH  18  20
ATOM     20  C   UNL     1       0.423   8.993  20.033  0.00  0.00    +0.000 C 
ATOM     21  C   UNL     1       0.693   9.514  18.608  0.00  0.00    +0.000 C 
ATOM     22  C   UNL     1       1.540  10.783  18.591  0.00  0.00    +0.000 C 
ATOM     23  C   UNL     1       0.909  11.909  19.406  0.00  0.00    +0.000 C 
ATOM     24  C   UNL     1       0.263  11.467  20.692  0.00  0.00    +0.000 A 
ATOM     25  C   UNL     1      -0.139  12.452  21.610  0.00  0.00    +0.000 A 
ATOM     26  C   UNL     1      -0.822  12.106  22.776  0.00  0.00    +0.000 A 
ATOM     27  C   UNL     1      -1.111  10.772  23.039  0.00  0.00    +0.000 A 
ATOM     28  C   UNL     1      -0.704   9.784  22.145  0.00  0.00    +0.000 A 
ATOM     29  C   UNL     1      -0.023  10.115  20.960  0.00  0.00    +0.000 A 
ENDBRANCH  18  20
ENDBRANCH   3  18
TORSDOF 4
ENDMDL
MODEL 3
REMARK VINA RESULT:      -8.1      2.883      7.429
REMARK  Name = 
REMARK  6 active torsions:
REMARK  status: ('A' for Active; 'I' for Inactive)
REMARK    1  A    between atoms: C_1  and  N_2
REMARK    2  A    between atoms: N_2  and  C_3
REMARK    3  A    between atoms: C_5  and  C_6
REMARK    4  A    between atoms: C_8  and  N_9
REMARK    5  A    between atoms: N_9  and  C_10
REMARK    6  A    between atoms: C_21  and  C_22
REMARK                            x       y       z     vdW  Elec       q    Type
REMARK                         _______ _______ _______ _____ _____    ______ ____
ROOT
ATOM      1  C   UNL     1       2.010   6.784  19.847  0.00  0.00    +0.000 A 
ATOM      2  C   UNL     1       2.701   6.518  18.685  0.00  0.00    +0.000 A 
ATOM      3  C   UNL     1       3.144   5.227  18.479  0.00  0.00    +0.000 A 
ATOM      4  N   UNL     1       2.842   4.238  19.334  0.00  0.00    +0.000 NA
ATOM      5  C   UNL     1       2.099   4.557  20.411  0.00  0.00    +0.000 A 
ATOM      6  C   UNL     1       1.633   3.464  21.313  0.00  0.00    +0.000 C 
ATOM      7  N   UNL     1       1.696   5.803  20.715  0.00  0.00    +0.000 NA
ENDROOT
BRANCH   1  10
ATOM      8  C   UNL     1       0.998  10.440  19.514  0.00  0.00    +0.000 A 
ATOM      9  C   UNL     1       1.484   9.152  19.247  0.00  0.00    +0.000 A 
ATOM     10  C   UNL     1       1.551   8.138  20.225  0.00  0.00    +0.000 A 
ATOM     11  C   UNL     1       1.149   8.468  21.529  0.00  0.00    +0.000 A 
ATOM     12  C   UNL     1       0.721   9.760  21.842  0.00  0.00    +0.000 A 
ATOM     13  C   UNL     1       0.657  10.736  20.848  0.00  0.00    +0.000 A 
ATOM     14 CL   UNL     1       0.096  12.313  21.289  0.00  0.00    +0.000 Cl
BRANCH   8  16
ATOM     15  C   UNL     1       2.182  12.201  18.305  0.00  0.00    +0.000 C 
ATOM     16  N   UNL     1       0.964  11.436  18.517  0.00  0.00    +0.000 N 
ATOM     17  H   UNL     1       0.580  11.051  17.652  0.00  0.00    +0.000 HD
ENDBRANCH   8  16
ENDBRANCH   1  10
BRANCH   3  18
ATOM     18  N   UNL     1       3.824   4.955  17.287  0.00  0.00    +0.000 N 
ATOM     19  H   UNL     1       3.917   5.766  16.689  0.00  0.00    +0.000 HD
BRANCH  18  20
ATOM     20  C   UNL     1       5.082   4.205  17.373  0.00  0.00    +0.000 C 
ATOM     21  C   UNL     1       5.952   4.711  18.540  0.00  0.00    +0.000 C 
ATOM     22  C   UNL     1       6.573   6.079  18.268  0.00  0.00    +0.000 C 
ATOM     23  C   UNL     1       7.417   6.087  16.998  0.00  0.00    +0.000 C 
ATOM     24  C   UNL     1       6.839   5.296  15.854  0.00  0.00    +0.000 A 
ATOM     25  C   UNL     1       7.425   5.431  14.585  0.00  0.00    +0.000 A 
ATOM     26  C   UNL     1       6.989   4.658  13.509  0.00  0.00    +0.000 A 
ATOM     27  C   UNL     1       5.960   3.739  13.689  0.00  0.00    +0.000 A 
ATOM     28  C   UNL     1       5.360   3.606  14.940  0.00  0.00    +0.000 A 
ATOM     29  C   UNL     1       5.793   4.372  16.037  0.00  0.00    +0.000 A 
ENDBRANCH  18  20
ENDBRANCH   3  18
TORSDOF 4
ENDMDL
MODEL 4
REMARK VINA RESULT:      -7.9      3.726      8.152
REMARK  Name = 
REMARK  6 active torsions:
REMARK  status: ('A' for Active; 'I' for Inactive)
REMARK    1  A    between atoms: C_1  and  N_2
REMARK    2  A    between atoms: N_2  and  C_3
REMARK    3  A    between atoms: C_5  and  C_6
REMARK    4  A    between atoms: C_8  and  N_9
REMARK    5  A    between atoms: N_9  and  C_10
REMARK    6  A    between atoms: C_21  and  C_22
REMARK                            x       y       z     vdW  Elec       q    Type
REMARK                         _______ _______ _______ _____ _____    ______ ____
ROOT
ATOM      1  C   UNL     1      -0.168   9.616  18.785  0.00  0.00    +0.000 A 
ATOM      2  C   UNL     1       0.719   8.967  17.954  0.00  0.00    +0.000 A 
ATOM      3  C   UNL     1       1.871   8.453  18.517  0.00  0.00    +0.000 A 
ATOM      4  N   UNL     1       2.087   8.503  19.840  0.00  0.00    +0.000 NA
ATOM      5  C   UNL     1       1.140   9.086  20.600  0.00  0.00    +0.000 A 
ATOM      6  C   UNL     1       1.281   9.043  22.085  0.00  0.00    +0.000 C 
ATOM      7  N   UNL     1       0.031   9.673  20.116  0.00  0.00    +0.000 NA
ENDROOT
BRANCH   1  10
ATOM      8  C   UNL     1      -3.208  10.365  16.617  0.00  0.00    +0.000 A 
ATOM      9  C   UNL     1      -2.007   9.831  17.107  0.00  0.00    +0.000 A 
ATOM     10  C   UNL     1      -1.397  10.278  18.297  0.00  0.00    +0.000 A 
ATOM     11  C   UNL     1      -2.014  11.336  18.984  0.00  0.00    +0.000 A 
ATOM     12  C   UNL     1      -3.176  11.932  18.489  0.00  0.00    +0.000 A 
ATOM     13  C   UNL     1      -3.758  11.459  17.313  0.00  0.00    +0.000 A 
ATOM     14 CL   UNL     1      -5.211  12.220  16.759  0.00  0.00    +0.000 Cl
BRANCH   8  16
ATOM     15  C   UNL     1      -3.022  10.138  14.192  0.00  0.00    +0.000 C 
ATOM     16  N   UNL     1      -3.779   9.908  15.412  0.00  0.00    +0.000 N 
ATOM     17  H   UNL     1      -4.083   8.938  15.515  0.00  0.00    +0.000 HD
ENDBRANCH   8  16
ENDBRANCH   1  10
BRANCH   3  18
ATOM     18  N   UNL     1       2.759   7.774  17.676  0.00  0.00    +0.000 N 
ATOM     19  H   UNL     1       3.217   8.382  17.009  0.00  0.00    +0.000 HD
BRANCH  18  20
ATOM     20  C   UNL     1       3.710   6.843  18.294  0.00  0.00    +0.000 C 
ATOM     21  C   UNL     1       5.077   6.893  17.586  0.00  0.00    +0.000 C 
ATOM     22  C   UNL     1       5.055   6.240  16.207  0.00  0.00    +0.000 C 
ATOM     23  C   UNL     1       4.592   4.787  16.263  0.00  0.00    +0.000 C 
ATOM     24  C   UNL     1       3.464   4.524  17.225  0.00  0.00    +0.000 A 
ATOM     25  C   UNL     1       2.824   3.274  17.178  0.00  0.00    +0.000 A 
ATOM     26  C   UNL     1       1.833   2.943  18.101  0.00  0.00    +0.000 A 
ATOM     27  C   UNL     1       1.469   3.858  19.084  0.00  0.00    +0.000 A 
ATOM     28  C   UNL     1       2.085   5.107  19.132  0.00  0.00    +0.000 A 
ATOM     29  C   UNL     1       3.091   5.454  18.214  0.00  0.00    +0.000 A 
ENDBRANCH  18  20
ENDBRANCH   3  18
TORSDOF 4
ENDMDL
MODEL 5
REMARK VINA RESULT:      -7.8      3.728      8.345
REMARK  Name = 
REMARK  6 active torsions:
REMARK  status: ('A' for Active; 'I' for Inactive)
REMARK    1  A    between atoms: C_1  and  N_2
REMARK    2  A    between atoms: N_2  and  C_3
REMARK    3  A    between atoms: C_5  and  C_6
REMARK    4  A    between atoms: C_8  and  N_9
REMARK    5  A    between atoms: N_9  and  C_10
REMARK    6  A    between atoms: C_21  and  C_22
REMARK                            x       y       z     vdW  Elec       q    Type
REMARK                         _______ _______ _______ _____ _____    ______ ____
ROOT
ATOM      1  C   UNL     1      -0.261   9.637  18.714  0.00  0.00    +0.000 A 
ATOM      2  C   UNL     1       0.629   8.971  17.899  0.00  0.00    +0.000 A 
ATOM      3  C   UNL     1       1.798   8.503  18.467  0.00  0.00    +0.000 A 
ATOM      4  N   UNL     1       2.029   8.612  19.784  0.00  0.00    +0.000 NA
ATOM      5  C   UNL     1       1.080   9.208  20.532  0.00  0.00    +0.000 A 
ATOM      6  C   UNL     1       1.240   9.230  22.015  0.00  0.00    +0.000 C 
ATOM      7  N   UNL     1      -0.046   9.753  20.039  0.00  0.00    +0.000 NA
ENDROOT
BRANCH   1  10
ATOM      8  C   UNL     1      -3.304  11.919  18.550  0.00  0.00    +0.000 A 
ATOM      9  C   UNL     1      -2.156  11.242  18.986  0.00  0.00    +0.000 A 
ATOM     10  C   UNL     1      -1.508  10.254  18.216  0.00  0.00    +0.000 A 
ATOM     11  C   UNL     1      -2.080   9.918  16.979  0.00  0.00    +0.000 A 
ATOM     12  C   UNL     1      -3.260  10.527  16.544  0.00  0.00    +0.000 A 
ATOM     13  C   UNL     1      -3.869  11.508  17.327  0.00  0.00    +0.000 A 
ATOM     14 CL   UNL     1      -5.316  12.247  16.728  0.00  0.00    +0.000 Cl
BRANCH   8  16
ATOM     15  C   UNL     1      -4.965  12.416  20.271  0.00  0.00    +0.000 C 
ATOM     16  N   UNL     1      -3.938  12.887  19.354  0.00  0.00    +0.000 N 
ATOM     17  H   UNL     1      -3.239  13.476  19.809  0.00  0.00    +0.000 HD
ENDBRANCH   8  16
ENDBRANCH   1  10
BRANCH   3  18
ATOM     18  N   UNL     1       2.688   7.806  17.644  0.00  0.00    +0.000 N 
ATOM     19  H   UNL     1       3.140   8.398  16.958  0.00  0.00    +0.000 HD
BRANCH  18  20
ATOM     20  C   UNL     1       3.648   6.901  18.286  0.00  0.00    +0.000 C 
ATOM     21  C   UNL     1       5.022   6.965  17.592  0.00  0.00    +0.000 C 
ATOM     22  C   UNL     1       5.027   6.293  16.222  0.00  0.00    +0.000 C 
ATOM     23  C   UNL     1       4.589   4.833  16.294  0.00  0.00    +0.000 C 
ATOM     24  C   UNL     1       3.455   4.563  17.247  0.00  0.00    +0.000 A 
ATOM     25  C   UNL     1       2.838   3.302  17.212  0.00  0.00    +0.000 A 
ATOM     26  C   UNL     1       1.843   2.966  18.129  0.00  0.00    +0.000 A 
ATOM     27  C   UNL     1       1.452   3.888  19.094  0.00  0.00    +0.000 A 
ATOM     28  C   UNL     1       2.045   5.149  19.131  0.00  0.00    +0.000 A 
ATOM     29  C   UNL     1       3.055   5.501  18.219  0.00  0.00    +0.000 A 
ENDBRANCH  18  20
ENDBRANCH   3  18
TORSDOF 4
ENDMDL
MODEL 6
REMARK VINA RESULT:      -7.7      2.726      7.584
REMARK  Name = 
REMARK  6 active torsions:
REMARK  status: ('A' for Active; 'I' for Inactive)
REMARK    1  A    between atoms: C_1  and  N_2
REMARK    2  A    between atoms: N_2  and  C_3
REMARK    3  A    between atoms: C_5  and  C_6
REMARK    4  A    between atoms: C_8  and  N_9
REMARK    5  A    between atoms: N_9  and  C_10
REMARK    6  A    between atoms: C_21  and  C_22
REMARK                            x       y       z     vdW  Elec       q    Type
REMARK                         _______ _______ _______ _____ _____    ______ ____
ROOT
ATOM      1  C   UNL     1       2.146   6.921  19.335  0.00  0.00    +0.000 A 
ATOM      2  C   UNL     1       2.752   6.453  18.189  0.00  0.00    +0.000 A 
ATOM      3  C   UNL     1       3.235   5.159  18.197  0.00  0.00    +0.000 A 
ATOM      4  N   UNL     1       3.048   4.349  19.250  0.00  0.00    +0.000 NA
ATOM      5  C   UNL     1       2.380   4.851  20.306  0.00  0.00    +0.000 A 
ATOM      6  C   UNL     1       2.037   3.943  21.440  0.00  0.00    +0.000 C 
ATOM      7  N   UNL     1       1.948   6.121  20.399  0.00  0.00    +0.000 NA
ENDROOT
BRANCH   1  10
ATOM      8  C   UNL     1       0.672  10.042  20.944  0.00  0.00    +0.000 A 
ATOM      9  C   UNL     1       1.095   8.726  20.706  0.00  0.00    +0.000 A 
ATOM     10  C   UNL     1       1.659   8.309  19.483  0.00  0.00    +0.000 A 
ATOM     11  C   UNL     1       1.752   9.261  18.455  0.00  0.00    +0.000 A 
ATOM     12  C   UNL     1       1.281  10.563  18.638  0.00  0.00    +0.000 A 
ATOM     13  C   UNL     1       0.737  10.945  19.864  0.00  0.00    +0.000 A 
ATOM     14 CL   UNL     1       0.191  12.578  20.042  0.00  0.00    +0.000 Cl
BRANCH   8  16
ATOM     15  C   UNL     1       0.074   9.420  23.229  0.00  0.00    +0.000 C 
ATOM     16  N   UNL     1       0.093  10.419  22.172  0.00  0.00    +0.000 N 
ATOM     17  H   UNL     1       0.476  11.315  22.479  0.00  0.00    +0.000 HD
ENDBRANCH   8  16
ENDBRANCH   1  10
BRANCH   3  18
ATOM     18  N   UNL     1       3.828   4.678  17.025  0.00  0.00    +0.000 N 
ATOM     19  H   UNL     1       3.815   5.351  16.269  0.00  0.00    +0.000 HD
BRANCH  18  20
ATOM     20  C   UNL     1       5.137   4.025  17.139  0.00  0.00    +0.000 C 
ATOM     21  C   UNL     1       5.935   4.584  18.332  0.00  0.00    +0.000 C 
ATOM     22  C   UNL     1       6.458   5.997  18.087  0.00  0.00    +0.000 C 
ATOM     23  C   UNL     1       7.331   6.081  16.839  0.00  0.00    +0.000 C 
ATOM     24  C   UNL     1       6.844   5.259  15.675  0.00  0.00    +0.000 A 
ATOM     25  C   UNL     1       7.451   5.450  14.422  0.00  0.00    +0.000 A 
ATOM     26  C   UNL     1       7.102   4.657  13.330  0.00  0.00    +0.000 A 
ATOM     27  C   UNL     1       6.141   3.661  13.476  0.00  0.00    +0.000 A 
ATOM     28  C   UNL     1       5.521   3.471  14.710  0.00  0.00    +0.000 A 
ATOM     29  C   UNL     1       5.867   4.257  15.824  0.00  0.00    +0.000 A 
ENDBRANCH  18  20
ENDBRANCH   3  18
TORSDOF 4
ENDMDL
MODEL 7
REMARK VINA RESULT:      -7.5      3.911      7.557
REMARK  Name = 
REMARK  6 active torsions:
REMARK  status: ('A' for Active; 'I' for Inactive)
REMARK    1  A    between atoms: C_1  and  N_2
REMARK    2  A    between atoms: N_2  and  C_3
REMARK    3  A    between atoms: C_5  and  C_6
REMARK    4  A    between atoms: C_8  and  N_9
REMARK    5  A    between atoms: N_9  and  C_10
REMARK    6  A    between atoms: C_21  and  C_22
REMARK                            x       y       z     vdW  Elec       q    Type
REMARK                         _______ _______ _______ _____ _____    ______ ____
ROOT
ATOM      1  C   UNL     1       1.226  10.773  19.701  0.00  0.00    +0.000 A 
ATOM      2  C   UNL     1       1.721   9.768  18.899  0.00  0.00    +0.000 A 
ATOM      3  C   UNL     1       1.652   8.473  19.372  0.00  0.00    +0.000 A 
ATOM      4  N   UNL     1       1.046   8.183  20.533  0.00  0.00    +0.000 NA
ATOM      5  C   UNL     1       0.518   9.209  21.228  0.00  0.00    +0.000 A 
ATOM      6  C   UNL     1      -0.278   8.913  22.456  0.00  0.00    +0.000 C 
ATOM      7  N   UNL     1       0.613  10.500  20.868  0.00  0.00    +0.000 NA
ENDROOT
BRANCH   1  10
ATOM      8  C   UNL     1       2.527  14.008  18.169  0.00  0.00    +0.000 A 
ATOM      9  C   UNL     1       2.409  12.678  18.598  0.00  0.00    +0.000 A 
ATOM     10  C   UNL     1       1.312  12.207  19.347  0.00  0.00    +0.000 A 
ATOM     11  C   UNL     1       0.325  13.138  19.707  0.00  0.00    +0.000 A 
ATOM     12  C   UNL     1       0.444  14.484  19.351  0.00  0.00    +0.000 A 
ATOM     13  C   UNL     1       1.538  14.914  18.600  0.00  0.00    +0.000 A 
ATOM     14 CL   UNL     1       1.622  16.588  18.167  0.00  0.00    +0.000 Cl
BRANCH   8  16
ATOM     15  C   UNL     1       4.844  14.781  18.197  0.00  0.00    +0.000 C 
ATOM     16  N   UNL     1       3.648  14.450  17.438  0.00  0.00    +0.000 N 
ATOM     17  H   UNL     1       3.833  13.812  16.662  0.00  0.00    +0.000 HD
ENDBRANCH   8  16
ENDBRANCH   1  10
BRANCH   3  18
ATOM     18  N   UNL     1       2.133   7.452  18.546  0.00  0.00    +0.000 N 
ATOM     19  H   UNL     1       2.443   7.785  17.642  0.00  0.00    +0.000 HD
BRANCH  18  20
ATOM     20  C   UNL     1       3.088   6.498  19.122  0.00  0.00    +0.000 C 
ATOM     21  C   UNL     1       4.419   6.507  18.346  0.00  0.00    +0.000 C 
ATOM     22  C   UNL     1       4.310   5.848  16.973  0.00  0.00    +0.000 C 
ATOM     23  C   UNL     1       3.812   4.409  17.062  0.00  0.00    +0.000 C 
ATOM     24  C   UNL     1       2.727   4.182  18.081  0.00  0.00    +0.000 A 
ATOM     25  C   UNL     1       2.052   2.949  18.076  0.00  0.00    +0.000 A 
ATOM     26  C   UNL     1       1.101   2.650  19.050  0.00  0.00    +0.000 A 
ATOM     27  C   UNL     1       0.811   3.579  20.043  0.00  0.00    +0.000 A 
ATOM     28  C   UNL     1       1.461   4.812  20.052  0.00  0.00    +0.000 A 
ATOM     29  C   UNL     1       2.430   5.127  19.082  0.00  0.00    +0.000 A 
ENDBRANCH  18  20
ENDBRANCH   3  18
TORSDOF 4
ENDMDL
MODEL 8
REMARK VINA RESULT:      -7.5      3.992      8.756
REMARK  Name = 
REMARK  6 active torsions:
REMARK  status: ('A' for Active; 'I' for Inactive)
REMARK    1  A    between atoms: C_1  and  N_2
REMARK    2  A    between atoms: N_2  and  C_3
REMARK    3  A    between atoms: C_5  and  C_6
REMARK    4  A    between atoms: C_8  and  N_9
REMARK    5  A    between atoms: N_9  and  C_10
REMARK    6  A    between atoms: C_21  and  C_22
REMARK                            x       y       z     vdW  Elec       q    Type
REMARK                         _______ _______ _______ _____ _____    ______ ____
ROOT
ATOM      1  C   UNL     1       0.588  10.645  19.826  0.00  0.00    +0.000 A 
ATOM      2  C   UNL     1       0.830   9.335  19.473  0.00  0.00    +0.000 A 
ATOM      3  C   UNL     1       1.688   9.100  18.417  0.00  0.00    +0.000 A 
ATOM      4  N   UNL     1       2.338  10.102  17.806  0.00  0.00    +0.000 NA
ATOM      5  C   UNL     1       2.109  11.351  18.254  0.00  0.00    +0.000 A 
ATOM      6  C   UNL     1       2.910  12.477  17.690  0.00  0.00    +0.000 C 
ATOM      7  N   UNL     1       1.232  11.663  19.225  0.00  0.00    +0.000 NA
ENDROOT
BRANCH   1  10
ATOM      8  C   UNL     1      -2.365  12.342  21.530  0.00  0.00    +0.000 A 
ATOM      9  C   UNL     1      -1.382  11.973  20.599  0.00  0.00    +0.000 A 
ATOM     10  C   UNL     1      -0.369  11.034  20.884  0.00  0.00    +0.000 A 
ATOM     11  C   UNL     1      -0.336  10.488  22.177  0.00  0.00    +0.000 A 
ATOM     12  C   UNL     1      -1.261  10.883  23.146  0.00  0.00    +0.000 A 
ATOM     13  C   UNL     1      -2.256  11.807  22.828  0.00  0.00    +0.000 A 
ATOM     14 CL   UNL     1      -3.391  12.241  24.062  0.00  0.00    +0.000 Cl
BRANCH   8  16
ATOM     15  C   UNL     1      -4.445  12.869  20.361  0.00  0.00    +0.000 C 
ATOM     16  N   UNL     1      -3.351  13.299  21.218  0.00  0.00    +0.000 N 
ATOM     17  H   UNL     1      -3.673  13.760  22.072  0.00  0.00    +0.000 HD
ENDBRANCH   8  16
ENDBRANCH   1  10
BRANCH   3  18
ATOM     18  N   UNL     1       1.951   7.769  18.076  0.00  0.00    +0.000 N 
ATOM     19  H   UNL     1       2.049   7.627  17.078  0.00  0.00    +0.000 HD
BRANCH  18  20
ATOM     20  C   UNL     1       3.001   7.067  18.822  0.00  0.00    +0.000 C 
ATOM     21  C   UNL     1       4.311   7.004  18.013  0.00  0.00    +0.000 C 
ATOM     22  C   UNL     1       4.239   6.030  16.841  0.00  0.00    +0.000 C 
ATOM     23  C   UNL     1       3.878   4.616  17.287  0.00  0.00    +0.000 C 
ATOM     24  C   UNL     1       2.838   4.546  18.373  0.00  0.00    +0.000 A 
ATOM     25  C   UNL     1       2.281   3.295  18.685  0.00  0.00    +0.000 A 
ATOM     26  C   UNL     1       1.379   3.156  19.740  0.00  0.00    +0.000 A 
ATOM     27  C   UNL     1       1.022   4.268  20.496  0.00  0.00    +0.000 A 
ATOM     28  C   UNL     1       1.556   5.518  20.188  0.00  0.00    +0.000 A 
ATOM     29  C   UNL     1       2.472   5.674  19.133  0.00  0.00    +0.000 A 
ENDBRANCH  18  20
ENDBRANCH   3  18
TORSDOF 4
ENDMDL
MODEL 9
REMARK VINA RESULT:      -7.5      2.718      6.913
REMARK  Name = 
REMARK  6 active torsions:
REMARK  status: ('A' for Active; 'I' for Inactive)
REMARK    1  A    between atoms: C_1  and  N_2
REMARK    2  A    between atoms: N_2  and  C_3
REMARK    3  A    between atoms: C_5  and  C_6
REMARK    4  A    between atoms: C_8  and  N_9
REMARK    5  A    between atoms: N_9  and  C_10
REMARK    6  A    between atoms: C_21  and  C_22
REMARK                            x       y       z     vdW  Elec       q    Type
REMARK                         _______ _______ _______ _____ _____    ______ ____
ROOT
ATOM      1  C   UNL     1       3.856   6.190  18.152  0.00  0.00    +0.000 A 
ATOM      2  C   UNL     1       4.167   5.179  19.036  0.00  0.00    +0.000 A 
ATOM      3  C   UNL     1       4.998   4.169  18.594  0.00  0.00    +0.000 A 
ATOM      4  N   UNL     1       5.558   4.206  17.375  0.00  0.00    +0.000 NA
ATOM      5  C   UNL     1       5.268   5.263  16.593  0.00  0.00    +0.000 A 
ATOM      6  C   UNL     1       5.974   5.407  15.286  0.00  0.00    +0.000 C 
ATOM      7  N   UNL     1       4.412   6.244  16.927  0.00  0.00    +0.000 NA
ENDROOT
BRANCH   1  10
ATOM      8  C   UNL     1       1.415   8.344  20.128  0.00  0.00    +0.000 A 
ATOM      9  C   UNL     1       2.267   7.305  19.725  0.00  0.00    +0.000 A 
ATOM     10  C   UNL     1       2.918   7.286  18.474  0.00  0.00    +0.000 A 
ATOM     11  C   UNL     1       2.652   8.343  17.589  0.00  0.00    +0.000 A 
ATOM     12  C   UNL     1       1.758   9.360  17.934  0.00  0.00    +0.000 A 
ATOM     13  C   UNL     1       1.140   9.353  19.184  0.00  0.00    +0.000 A 
ATOM     14 CL   UNL     1       0.060  10.651  19.567  0.00  0.00    +0.000 Cl
BRANCH   8  16
ATOM     15  C   UNL     1       1.329   9.150  22.432  0.00  0.00    +0.000 C 
ATOM     16  N   UNL     1       0.765   8.321  21.378  0.00  0.00    +0.000 N 
ATOM     17  H   UNL     1      -0.238   8.465  21.253  0.00  0.00    +0.000 HD
ENDBRANCH   8  16
ENDBRANCH   1  10
BRANCH   3  18
ATOM     18  N   UNL     1       5.331   3.157  19.500  0.00  0.00    +0.000 N 
ATOM     19  H   UNL     1       5.606   3.512  20.407  0.00  0.00    +0.000 HD
BRANCH  18  20
ATOM     20  C   UNL     1       4.412   2.021  19.626  0.00  0.00    +0.000 C 
ATOM     21  C   UNL     1       4.356   1.204  18.321  0.00  0.00    +0.000 C 
ATOM     22  C   UNL     1       3.605   1.922  17.203  0.00  0.00    +0.000 C 
ATOM     23  C   UNL     1       2.180   2.286  17.606  0.00  0.00    +0.000 C 
ATOM     24  C   UNL     1       2.032   2.768  19.026  0.00  0.00    +0.000 A 
ATOM     25  C   UNL     1       0.808   3.337  19.414  0.00  0.00    +0.000 A 
ATOM     26  C   UNL     1       0.585   3.720  20.736  0.00  0.00    +0.000 A 
ATOM     27  C   UNL     1       1.583   3.537  21.688  0.00  0.00    +0.000 A 
ATOM     28  C   UNL     1       2.807   2.987  21.313  0.00  0.00    +0.000 A 
ATOM     29  C   UNL     1       3.047   2.589  19.985  0.00  0.00    +0.000 A 
ENDBRANCH  18  20
ENDBRANCH   3  18
TORSDOF 4
ENDMDL
