MODEL 1
REMARK VINA RESULT:      -8.9      0.000      0.000
REMARK  Name = 
REMARK  6 active torsions:
REMARK  status: ('A' for Active; 'I' for Inactive)
REMARK    1  A    between atoms: C_1  and  C_2
REMARK    2  A    between atoms: N_4  and  C_5
REMARK    3  A    between atoms: C_8  and  C_9
REMARK    4  A    between atoms: N_13  and  C_14
REMARK    5  A    between atoms: C_14  and  C_15
REMARK    6  A    between atoms: C_14  and  C_16
REMARK                            x       y       z     vdW  Elec       q    Type
REMARK                         _______ _______ _______ _____ _____    ______ ____
ROOT
ATOM      1  C   UNL     1       2.343   7.245  19.299  0.00  0.00    +0.000 A 
ATOM      2  C   UNL     1       3.198   6.872  18.269  0.00  0.00    +0.000 A 
ATOM      3  C   UNL     1       3.574   5.515  18.457  0.00  0.00    +0.000 A 
ATOM      4  C   UNL     1       4.356   4.573  17.766  0.00  0.00    +0.000 A 
ATOM      5  N   UNL     1       4.998   4.889  16.570  0.00  0.00    +0.000 N 
ATOM      6  N   UNL     1       4.467   3.335  18.306  0.00  0.00    +0.000 NA
ATOM      7  C   UNL     1       3.828   3.068  19.464  0.00  0.00    +0.000 A 
ATOM      8  N   UNL     1       3.061   3.890  20.199  0.00  0.00    +0.000 NA
ATOM      9  C   UNL     1       2.972   5.104  19.632  0.00  0.00    +0.000 A 
ATOM     10  N   UNL     1       2.246   6.148  20.131  0.00  0.00    +0.000 N 
ATOM     11  H   UNL     1       5.020   5.875  16.356  0.00  0.00    +0.000 HD
ATOM     12  H   UNL     1       1.708   6.097  20.984  0.00  0.00    +0.000 HD
ENDROOT
BRANCH   1  16
ATOM     13  C   UNL     1       0.394  11.003  19.969  0.00  0.00    +0.000 A 
ATOM     14  C   UNL     1       0.936  10.697  18.720  0.00  0.00    +0.000 A 
ATOM     15  C   UNL     1       1.545   9.459  18.485  0.00  0.00    +0.000 A 
ATOM     16  C   UNL     1       1.622   8.500  19.497  0.00  0.00    +0.000 A 
ATOM     17  C   UNL     1       1.058   8.801  20.745  0.00  0.00    +0.000 A 
ATOM     18  C   UNL     1       0.462  10.044  20.984  0.00  0.00    +0.000 A 
BRANCH  13  22
ATOM     19  C   UNL     1      -0.567  14.415  21.248  0.00  0.00    +0.000 C 
ATOM     20  C   UNL     1       0.381  13.268  21.009  0.00  0.00    +0.000 C 
ATOM     21  O   UNL     1       1.526  13.302  21.447  0.00  0.00    +0.000 OA
ATOM     22  N   UNL     1      -0.195  12.247  20.274  0.00  0.00    +0.000 N 
ATOM     23  H   UNL     1      -1.101  12.429  19.861  0.00  0.00    +0.000 HD
ENDBRANCH  13  22
ENDBRANCH   1  16
BRANCH   5  24
ATOM     24  C   UNL     1       6.182   4.126  16.198  0.00  0.00    +0.000 C 
ATOM     25  C   UNL     1       7.422   4.584  16.978  0.00  0.00    +0.000 C 
BRANCH  24  26
ATOM     26  C   UNL     1       6.438   4.264  14.698  0.00  0.00    +0.000 A 
ATOM     27  C   UNL     1       5.708   3.481  13.792  0.00  0.00    +0.000 A 
ATOM     28  C   UNL     1       5.998   3.509  12.424  0.00  0.00    +0.000 A 
ATOM     29  C   UNL     1       7.015   4.330  11.942  0.00  0.00    +0.000 A 
ATOM     30  C   UNL     1       7.728   5.139  12.821  0.00  0.00    +0.000 A 
ATOM     31  C   UNL     1       7.439   5.114  14.189  0.00  0.00    +0.000 A 
ENDBRANCH  24  26
ENDBRANCH   5  24
TORSDOF 4
ENDMDL
MODEL 2
REMARK VINA RESULT:      -8.9      0.521      1.047
REMARK  Name = 
REMARK  6 active torsions:
REMARK  status: ('A' for Active; 'I' for Inactive)
REMARK    1  A    between atoms: C_1  and  C_2
REMARK    2  A    between atoms: N_4  and  C_5
REMARK    3  A    between atoms: C_8  and  C_9
REMARK    4  A    between atoms: N_13  and  C_14
REMARK    5  A    between atoms: C_14  and  C_15
REMARK    6  A    between atoms: C_14  and  C_16
REMARK                            x       y       z     vdW  Elec       q    Type
REMARK                         _______ _______ _______ _____ _____    ______ ____
ROOT
ATOM      1  C   UNL     1       2.336   6.987  19.677  0.00  0.00    +0.000 A 
ATOM      2  C   UNL     1       3.208   6.697  18.635  0.00  0.00    +0.000 A 
ATOM      3  C   UNL     1       3.583   5.330  18.721  0.00  0.00    +0.000 A 
ATOM      4  C   UNL     1       4.378   4.446  17.970  0.00  0.00    +0.000 A 
ATOM      5  N   UNL     1       5.039   4.856  16.814  0.00  0.00    +0.000 N 
ATOM      6  N   UNL     1       4.483   3.169  18.412  0.00  0.00    +0.000 NA
ATOM      7  C   UNL     1       3.825   2.811  19.534  0.00  0.00    +0.000 A 
ATOM      8  N   UNL     1       3.044   3.571  20.320  0.00  0.00    +0.000 NA
ATOM      9  C   UNL     1       2.962   4.826  19.850  0.00  0.00    +0.000 A 
ATOM     10  N   UNL     1       2.227   5.827  20.418  0.00  0.00    +0.000 N 
ATOM     11  H   UNL     1       5.063   5.857  16.679  0.00  0.00    +0.000 HD
ATOM     12  H   UNL     1       1.675   5.709  21.255  0.00  0.00    +0.000 HD
ENDROOT
BRANCH   1  16
ATOM     13  C   UNL     1       0.041  10.528  20.425  0.00  0.00    +0.000 A 
ATOM     14  C   UNL     1       0.231   9.581  21.432  0.00  0.00    +0.000 A 
ATOM     15  C   UNL     1       1.007   8.438  21.204  0.00  0.00    +0.000 A 
ATOM     16  C   UNL     1       1.609   8.222  19.963  0.00  0.00    +0.000 A 
ATOM     17  C   UNL     1       1.433   9.185  18.960  0.00  0.00    +0.000 A 
ATOM     18  C   UNL     1       0.646  10.320  19.183  0.00  0.00    +0.000 A 
BRANCH  13  22
ATOM     19  C   UNL     1      -1.541  13.825  21.334  0.00  0.00    +0.000 C 
ATOM     20  C   UNL     1      -0.406  12.839  21.247  0.00  0.00    +0.000 C 
ATOM     21  O   UNL     1       0.689  13.102  21.733  0.00  0.00    +0.000 OA
ATOM     22  N   UNL     1      -0.762  11.677  20.585  0.00  0.00    +0.000 N 
ATOM     23  H   UNL     1      -1.658  11.669  20.115  0.00  0.00    +0.000 HD
ENDBRANCH  13  22
ENDBRANCH   1  16
BRANCH   5  24
ATOM     24  C   UNL     1       6.230   4.126  16.402  0.00  0.00    +0.000 C 
ATOM     25  C   UNL     1       7.483   4.615  17.142  0.00  0.00    +0.000 C 
BRANCH  24  26
ATOM     26  C   UNL     1       6.434   4.272  14.895  0.00  0.00    +0.000 A 
ATOM     27  C   UNL     1       5.651   3.517  14.009  0.00  0.00    +0.000 A 
ATOM     28  C   UNL     1       5.891   3.553  12.632  0.00  0.00    +0.000 A 
ATOM     29  C   UNL     1       6.910   4.352  12.120  0.00  0.00    +0.000 A 
ATOM     30  C   UNL     1       7.675   5.134  12.979  0.00  0.00    +0.000 A 
ATOM     31  C   UNL     1       7.436   5.102  14.356  0.00  0.00    +0.000 A 
ENDBRANCH  24  26
ENDBRANCH   5  24
TORSDOF 4
ENDMDL
MODEL 3
REMARK VINA RESULT:      -8.8      1.003      1.003
REMARK  Name = 
REMARK  6 active torsions:
REMARK  status: ('A' for Active; 'I' for Inactive)
REMARK    1  A    between atoms: C_1  and  C_2
REMARK    2  A    between atoms: N_4  and  C_5
REMARK    3  A    between atoms: C_8  and  C_9
REMARK    4  A    between atoms: N_13  and  C_14
REMARK    5  A    between atoms: C_14  and  C_15
REMARK    6  A    between atoms: C_14  and  C_16
REMARK                            x       y       z     vdW  Elec       q    Type
REMARK                         _______ _______ _______ _____ _____    ______ ____
ROOT
ATOM      1  C   UNL     1       2.318   7.212  19.392  0.00  0.00    +0.000 A 
ATOM      2  C   UNL     1       3.183   6.856  18.364  0.00  0.00    +0.000 A 
ATOM      3  C   UNL     1       3.559   5.497  18.535  0.00  0.00    +0.000 A 
ATOM      4  C   UNL     1       4.350   4.567  17.838  0.00  0.00    +0.000 A 
ATOM      5  N   UNL     1       5.003   4.902  16.653  0.00  0.00    +0.000 N 
ATOM      6  N   UNL     1       4.458   3.322  18.361  0.00  0.00    +0.000 NA
ATOM      7  C   UNL     1       3.808   3.036  19.508  0.00  0.00    +0.000 A 
ATOM      8  N   UNL     1       3.032   3.846  20.248  0.00  0.00    +0.000 NA
ATOM      9  C   UNL     1       2.947   5.067  19.699  0.00  0.00    +0.000 A 
ATOM     10  N   UNL     1       2.214   6.103  20.206  0.00  0.00    +0.000 N 
ATOM     11  H   UNL     1       5.025   5.892  16.454  0.00  0.00    +0.000 HD
ATOM     12  H   UNL     1       1.668   6.039  21.053  0.00  0.00    +0.000 HD
ENDROOT
BRANCH   1  16
ATOM     13  C   UNL     1       0.361  10.962  20.085  0.00  0.00    +0.000 A 
ATOM     14  C   UNL     1       0.832  10.632  18.813  0.00  0.00    +0.000 A 
ATOM     15  C   UNL     1       1.443   9.396  18.573  0.00  0.00    +0.000 A 
ATOM     16  C   UNL     1       1.593   8.463  19.602  0.00  0.00    +0.000 A 
ATOM     17  C   UNL     1       1.100   8.789  20.873  0.00  0.00    +0.000 A 
ATOM     18  C   UNL     1       0.503  10.031  21.117  0.00  0.00    +0.000 A 
BRANCH  13  22
ATOM     19  C   UNL     1      -1.766  14.053  20.429  0.00  0.00    +0.000 C 
ATOM     20  C   UNL     1      -1.498  12.623  20.042  0.00  0.00    +0.000 C 
ATOM     21  O   UNL     1      -2.359  11.955  19.478  0.00  0.00    +0.000 OA
ATOM     22  N   UNL     1      -0.226  12.206  20.394  0.00  0.00    +0.000 N 
ATOM     23  H   UNL     1       0.316  12.826  20.984  0.00  0.00    +0.000 HD
ENDBRANCH  13  22
ENDBRANCH   1  16
BRANCH   5  24
ATOM     24  C   UNL     1       6.192   4.147  16.282  0.00  0.00    +0.000 C 
ATOM     25  C   UNL     1       7.430   4.616  17.057  0.00  0.00    +0.000 C 
BRANCH  24  26
ATOM     26  C   UNL     1       6.444   4.281  14.781  0.00  0.00    +0.000 A 
ATOM     27  C   UNL     1       5.692   3.517  13.876  0.00  0.00    +0.000 A 
ATOM     28  C   UNL     1       5.977   3.541  12.508  0.00  0.00    +0.000 A 
ATOM     29  C   UNL     1       7.009   4.340  12.021  0.00  0.00    +0.000 A 
ATOM     30  C   UNL     1       7.744   5.131  12.899  0.00  0.00    +0.000 A 
ATOM     31  C   UNL     1       7.461   5.110  14.268  0.00  0.00    +0.000 A 
ENDBRANCH  24  26
ENDBRANCH   5  24
TORSDOF 4
ENDMDL
MODEL 4
REMARK VINA RESULT:      -8.8      1.124      1.142
REMARK  Name = 
REMARK  6 active torsions:
REMARK  status: ('A' for Active; 'I' for Inactive)
REMARK    1  A    between atoms: C_1  and  C_2
REMARK    2  A    between atoms: N_4  and  C_5
REMARK    3  A    between atoms: C_8  and  C_9
REMARK    4  A    between atoms: N_13  and  C_14
REMARK    5  A    between atoms: C_14  and  C_15
REMARK    6  A    between atoms: C_14  and  C_16
REMARK                            x       y       z     vdW  Elec       q    Type
REMARK                         _______ _______ _______ _____ _____    ______ ____
ROOT
ATOM      1  C   UNL     1       2.283   6.756  19.555  0.00  0.00    +0.000 A 
ATOM      2  C   UNL     1       3.247   6.563  18.573  0.00  0.00    +0.000 A 
ATOM      3  C   UNL     1       3.484   5.170  18.434  0.00  0.00    +0.000 A 
ATOM      4  C   UNL     1       4.282   4.352  17.615  0.00  0.00    +0.000 A 
ATOM      5  N   UNL     1       5.114   4.887  16.633  0.00  0.00    +0.000 N 
ATOM      6  N   UNL     1       4.216   3.013  17.814  0.00  0.00    +0.000 NA
ATOM      7  C   UNL     1       3.396   2.534  18.773  0.00  0.00    +0.000 A 
ATOM      8  N   UNL     1       2.597   3.224  19.603  0.00  0.00    +0.000 NA
ATOM      9  C   UNL     1       2.686   4.544  19.376  0.00  0.00    +0.000 A 
ATOM     10  N   UNL     1       1.980   5.503  20.045  0.00  0.00    +0.000 N 
ATOM     11  H   UNL     1       5.244   5.886  16.695  0.00  0.00    +0.000 HD
ATOM     12  H   UNL     1       1.321   5.298  20.783  0.00  0.00    +0.000 HD
ENDROOT
BRANCH   1  16
ATOM     13  C   UNL     1       0.582  10.450  20.910  0.00  0.00    +0.000 A 
ATOM     14  C   UNL     1       0.899  10.267  19.563  0.00  0.00    +0.000 A 
ATOM     15  C   UNL     1       1.424   9.051  19.108  0.00  0.00    +0.000 A 
ATOM     16  C   UNL     1       1.641   7.994  19.994  0.00  0.00    +0.000 A 
ATOM     17  C   UNL     1       1.303   8.174  21.342  0.00  0.00    +0.000 A 
ATOM     18  C   UNL     1       0.792   9.393  21.799  0.00  0.00    +0.000 A 
BRANCH  13  22
ATOM     19  C   UNL     1      -1.147  13.234  22.770  0.00  0.00    +0.000 C 
ATOM     20  C   UNL     1      -0.693  11.812  22.562  0.00  0.00    +0.000 C 
ATOM     21  O   UNL     1      -1.018  10.931  23.351  0.00  0.00    +0.000 OA
ATOM     22  N   UNL     1       0.088  11.664  21.430  0.00  0.00    +0.000 N 
ATOM     23  H   UNL     1       0.389  12.510  20.962  0.00  0.00    +0.000 HD
ENDBRANCH  13  22
ENDBRANCH   1  16
BRANCH   5  24
ATOM     24  C   UNL     1       6.276   4.114  16.216  0.00  0.00    +0.000 C 
ATOM     25  C   UNL     1       7.546   4.546  16.962  0.00  0.00    +0.000 C 
BRANCH  24  26
ATOM     26  C   UNL     1       6.487   4.267  14.710  0.00  0.00    +0.000 A 
ATOM     27  C   UNL     1       5.717   3.508  13.817  0.00  0.00    +0.000 A 
ATOM     28  C   UNL     1       5.964   3.549  12.442  0.00  0.00    +0.000 A 
ATOM     29  C   UNL     1       6.979   4.360  11.938  0.00  0.00    +0.000 A 
ATOM     30  C   UNL     1       7.731   5.147  12.804  0.00  0.00    +0.000 A 
ATOM     31  C   UNL     1       7.485   5.108  14.180  0.00  0.00    +0.000 A 
ENDBRANCH  24  26
ENDBRANCH   5  24
TORSDOF 4
ENDMDL
MODEL 5
REMARK VINA RESULT:      -8.4      1.293      1.824
REMARK  Name = 
REMARK  6 active torsions:
REMARK  status: ('A' for Active; 'I' for Inactive)
REMARK    1  A    between atoms: C_1  and  C_2
REMARK    2  A    between atoms: N_4  and  C_5
REMARK    3  A    between atoms: C_8  and  C_9
REMARK    4  A    between atoms: N_13  and  C_14
REMARK    5  A    between atoms: C_14  and  C_15
REMARK    6  A    between atoms: C_14  and  C_16
REMARK                            x       y       z     vdW  Elec       q    Type
REMARK                         _______ _______ _______ _____ _____    ______ ____
ROOT
ATOM      1  C   UNL     1       2.275   6.973  19.794  0.00  0.00    +0.000 A 
ATOM      2  C   UNL     1       3.190   6.691  18.787  0.00  0.00    +0.000 A 
ATOM      3  C   UNL     1       3.545   5.318  18.864  0.00  0.00    +0.000 A 
ATOM      4  C   UNL     1       4.363   4.438  18.134  0.00  0.00    +0.000 A 
ATOM      5  N   UNL     1       5.080   4.860  17.016  0.00  0.00    +0.000 N 
ATOM      6  N   UNL     1       4.433   3.153  18.557  0.00  0.00    +0.000 NA
ATOM      7  C   UNL     1       3.722   2.782  19.643  0.00  0.00    +0.000 A 
ATOM      8  N   UNL     1       2.915   3.539  20.406  0.00  0.00    +0.000 NA
ATOM      9  C   UNL     1       2.869   4.802  19.955  0.00  0.00    +0.000 A 
ATOM     10  N   UNL     1       2.120   5.802  20.508  0.00  0.00    +0.000 N 
ATOM     11  H   UNL     1       5.121   5.863  16.901  0.00  0.00    +0.000 HD
ATOM     12  H   UNL     1       1.530   5.676  21.318  0.00  0.00    +0.000 HD
ENDROOT
BRANCH   1  16
ATOM     13  C   UNL     1      -0.008  10.531  20.496  0.00  0.00    +0.000 A 
ATOM     14  C   UNL     1       0.090   9.546  21.480  0.00  0.00    +0.000 A 
ATOM     15  C   UNL     1       0.861   8.397  21.269  0.00  0.00    +0.000 A 
ATOM     16  C   UNL     1       1.551   8.212  20.069  0.00  0.00    +0.000 A 
ATOM     17  C   UNL     1       1.467   9.212  19.091  0.00  0.00    +0.000 A 
ATOM     18  C   UNL     1       0.685  10.355  19.296  0.00  0.00    +0.000 A 
BRANCH  13  22
ATOM     19  C   UNL     1      -2.453  13.385  20.215  0.00  0.00    +0.000 C 
ATOM     20  C   UNL     1      -1.910  12.021  19.880  0.00  0.00    +0.000 C 
ATOM     21  O   UNL     1      -2.443  11.330  19.018  0.00  0.00    +0.000 OA
ATOM     22  N   UNL     1      -0.800  11.689  20.637  0.00  0.00    +0.000 N 
ATOM     23  H   UNL     1      -0.568  12.302  21.409  0.00  0.00    +0.000 HD
ENDBRANCH  13  22
ENDBRANCH   1  16
BRANCH   5  24
ATOM     24  C   UNL     1       6.280   4.123  16.645  0.00  0.00    +0.000 C 
ATOM     25  C   UNL     1       7.529   4.679  17.342  0.00  0.00    +0.000 C 
BRANCH  24  26
ATOM     26  C   UNL     1       6.473   4.173  15.130  0.00  0.00    +0.000 A 
ATOM     27  C   UNL     1       7.500   4.957  14.584  0.00  0.00    +0.000 A 
ATOM     28  C   UNL     1       7.629   5.105  13.200  0.00  0.00    +0.000 A 
ATOM     29  C   UNL     1       6.741   4.462  12.341  0.00  0.00    +0.000 A 
ATOM     30  C   UNL     1       5.737   3.652  12.863  0.00  0.00    +0.000 A 
ATOM     31  C   UNL     1       5.606   3.501  14.246  0.00  0.00    +0.000 A 
ENDBRANCH  24  26
ENDBRANCH   5  24
TORSDOF 4
ENDMDL
MODEL 6
REMARK VINA RESULT:      -8.4      1.103      1.325
REMARK  Name = 
REMARK  6 active torsions:
REMARK  status: ('A' for Active; 'I' for Inactive)
REMARK    1  A    between atoms: C_1  and  C_2
REMARK    2  A    between atoms: N_4  and  C_5
REMARK    3  A    between atoms: C_8  and  C_9
REMARK    4  A    between atoms: N_13  and  C_14
REMARK    5  A    between atoms: C_14  and  C_15
REMARK    6  A    between atoms: C_14  and  C_16
REMARK                            x       y       z     vdW  Elec       q    Type
REMARK                         _______ _______ _______ _____ _____    ______ ____
ROOT
ATOM      1  C   UNL     1       1.805   7.349  20.443  0.00  0.00    +0.000 A 
ATOM      2  C   UNL     1       2.817   7.197  19.503  0.00  0.00    +0.000 A 
ATOM      3  C   UNL     1       3.195   5.828  19.459  0.00  0.00    +0.000 A 
ATOM      4  C   UNL     1       4.098   5.048  18.715  0.00  0.00    +0.000 A 
ATOM      5  N   UNL     1       4.907   5.605  17.726  0.00  0.00    +0.000 N 
ATOM      6  N   UNL     1       4.159   3.724  18.995  0.00  0.00    +0.000 NA
ATOM      7  C   UNL     1       3.358   3.223  19.959  0.00  0.00    +0.000 A 
ATOM      8  N   UNL     1       2.465   3.876  20.721  0.00  0.00    +0.000 NA
ATOM      9  C   UNL     1       2.432   5.182  20.414  0.00  0.00    +0.000 A 
ATOM     10  N   UNL     1       1.611   6.103  21.002  0.00  0.00    +0.000 N 
ATOM     11  H   UNL     1       4.935   6.615  17.730  0.00  0.00    +0.000 HD
ATOM     12  H   UNL     1       0.950   5.877  21.732  0.00  0.00    +0.000 HD
ENDROOT
BRANCH   1  16
ATOM     13  C   UNL     1      -0.299  10.928  21.508  0.00  0.00    +0.000 A 
ATOM     14  C   UNL     1       0.045  10.677  20.179  0.00  0.00    +0.000 A 
ATOM     15  C   UNL     1       0.704   9.495  19.820  0.00  0.00    +0.000 A 
ATOM     16  C   UNL     1       1.029   8.539  20.786  0.00  0.00    +0.000 A 
ATOM     17  C   UNL     1       0.663   8.785  22.116  0.00  0.00    +0.000 A 
ATOM     18  C   UNL     1       0.018   9.973  22.477  0.00  0.00    +0.000 A 
BRANCH  13  22
ATOM     19  C   UNL     1      -1.252  14.378  22.688  0.00  0.00    +0.000 C 
ATOM     20  C   UNL     1      -0.317  13.347  22.113  0.00  0.00    +0.000 C 
ATOM     21  O   UNL     1       0.848  13.634  21.855  0.00  0.00    +0.000 OA
ATOM     22  N   UNL     1      -0.926  12.117  21.933  0.00  0.00    +0.000 N 
ATOM     23  H   UNL     1      -1.930  12.077  22.057  0.00  0.00    +0.000 HD
ENDBRANCH  13  22
ENDBRANCH   1  16
BRANCH   5  24
ATOM     24  C   UNL     1       6.153   4.931  17.391  0.00  0.00    +0.000 C 
ATOM     25  C   UNL     1       7.376   5.711  17.892  0.00  0.00    +0.000 C 
BRANCH  24  26
ATOM     26  C   UNL     1       6.251   4.740  15.878  0.00  0.00    +0.000 A 
ATOM     27  C   UNL     1       5.231   4.061  15.194  0.00  0.00    +0.000 A 
ATOM     28  C   UNL     1       5.348   3.780  13.830  0.00  0.00    +0.000 A 
ATOM     29  C   UNL     1       6.480   4.184  13.126  0.00  0.00    +0.000 A 
ATOM     30  C   UNL     1       7.486   4.889  13.780  0.00  0.00    +0.000 A 
ATOM     31  C   UNL     1       7.372   5.173  15.144  0.00  0.00    +0.000 A 
ENDBRANCH  24  26
ENDBRANCH   5  24
TORSDOF 4
ENDMDL
MODEL 7
REMARK VINA RESULT:      -8.4      0.560      1.400
REMARK  Name = 
REMARK  6 active torsions:
REMARK  status: ('A' for Active; 'I' for Inactive)
REMARK    1  A    between atoms: C_1  and  C_2
REMARK    2  A    between atoms: N_4  and  C_5
REMARK    3  A    between atoms: C_8  and  C_9
REMARK    4  A    between atoms: N_13  and  C_14
REMARK    5  A    between atoms: C_14  and  C_15
REMARK    6  A    between atoms: C_14  and  C_16
REMARK                            x       y       z     vdW  Elec       q    Type
REMARK                         _______ _______ _______ _____ _____    ______ ____
ROOT
ATOM      1  C   UNL     1       2.359   7.416  18.903  0.00  0.00    +0.000 A 
ATOM      2  C   UNL     1       3.299   7.028  17.956  0.00  0.00    +0.000 A 
ATOM      3  C   UNL     1       3.527   5.632  18.085  0.00  0.00    +0.000 A 
ATOM      4  C   UNL     1       4.302   4.664  17.422  0.00  0.00    +0.000 A 
ATOM      5  N   UNL     1       5.113   4.992  16.338  0.00  0.00    +0.000 N 
ATOM      6  N   UNL     1       4.235   3.390  17.878  0.00  0.00    +0.000 NA
ATOM      7  C   UNL     1       3.435   3.113  18.929  0.00  0.00    +0.000 A 
ATOM      8  N   UNL     1       2.659   3.957  19.628  0.00  0.00    +0.000 NA
ATOM      9  C   UNL     1       2.749   5.207  19.147  0.00  0.00    +0.000 A 
ATOM     10  N   UNL     1       2.062   6.283  19.633  0.00  0.00    +0.000 N 
ATOM     11  H   UNL     1       5.250   5.983  16.203  0.00  0.00    +0.000 HD
ATOM     12  H   UNL     1       1.420   6.231  20.411  0.00  0.00    +0.000 HD
ENDROOT
BRANCH   1  16
ATOM     13  C   UNL     1       0.363  11.177  19.395  0.00  0.00    +0.000 A 
ATOM     14  C   UNL     1       0.330  10.218  20.409  0.00  0.00    +0.000 A 
ATOM     15  C   UNL     1       1.006   9.001  20.268  0.00  0.00    +0.000 A 
ATOM     16  C   UNL     1       1.733   8.720  19.109  0.00  0.00    +0.000 A 
ATOM     17  C   UNL     1       1.782   9.693  18.101  0.00  0.00    +0.000 A 
ATOM     18  C   UNL     1       1.093  10.904  18.236  0.00  0.00    +0.000 A 
BRANCH  13  22
ATOM     19  C   UNL     1      -0.932  14.649  20.081  0.00  0.00    +0.000 C 
ATOM     20  C   UNL     1       0.106  13.557  20.092  0.00  0.00    +0.000 C 
ATOM     21  O   UNL     1       1.199  13.739  20.617  0.00  0.00    +0.000 OA
ATOM     22  N   UNL     1      -0.331  12.402  19.466  0.00  0.00    +0.000 N 
ATOM     23  H   UNL     1      -1.203  12.456  18.954  0.00  0.00    +0.000 HD
ENDBRANCH  13  22
ENDBRANCH   1  16
BRANCH   5  24
ATOM     24  C   UNL     1       6.262   4.143  16.053  0.00  0.00    +0.000 C 
ATOM     25  C   UNL     1       7.496   4.562  16.864  0.00  0.00    +0.000 C 
BRANCH  24  26
ATOM     26  C   UNL     1       6.588   4.194  14.560  0.00  0.00    +0.000 A 
ATOM     27  C   UNL     1       7.532   5.115  14.084  0.00  0.00    +0.000 A 
ATOM     28  C   UNL     1       7.768   5.255  12.713  0.00  0.00    +0.000 A 
ATOM     29  C   UNL     1       7.073   4.468  11.799  0.00  0.00    +0.000 A 
ATOM     30  C   UNL     1       6.157   3.524  12.254  0.00  0.00    +0.000 A 
ATOM     31  C   UNL     1       5.920   3.381  13.624  0.00  0.00    +0.000 A 
ENDBRANCH  24  26
ENDBRANCH   5  24
TORSDOF 4
ENDMDL
MODEL 8
REMARK VINA RESULT:      -8.3      1.058      1.767
REMARK  Name = 
REMARK  6 active torsions:
REMARK  status: ('A' for Active; 'I' for Inactive)
REMARK    1  A    between atoms: C_1  and  C_2
REMARK    2  A    between atoms: N_4  and  C_5
REMARK    3  A    between atoms: C_8  and  C_9
REMARK    4  A    between atoms: N_13  and  C_14
REMARK    5  A    between atoms: C_14  and  C_15
REMARK    6  A    between atoms: C_14  and  C_16
REMARK                            x       y       z     vdW  Elec       q    Type
REMARK                         _______ _______ _______ _____ _____    ______ ____
ROOT
ATOM      1  C   UNL     1       1.930   7.288  20.370  0.00  0.00    +0.000 A 
ATOM      2  C   UNL     1       2.944   7.066  19.446  0.00  0.00    +0.000 A 
ATOM      3  C   UNL     1       3.229   5.675  19.406  0.00  0.00    +0.000 A 
ATOM      4  C   UNL     1       4.088   4.835  18.677  0.00  0.00    +0.000 A 
ATOM      5  N   UNL     1       4.949   5.334  17.702  0.00  0.00    +0.000 N 
ATOM      6  N   UNL     1       4.053   3.509  18.957  0.00  0.00    +0.000 NA
ATOM      7  C   UNL     1       3.204   3.064  19.907  0.00  0.00    +0.000 A 
ATOM      8  N   UNL     1       2.346   3.778  20.656  0.00  0.00    +0.000 NA
ATOM      9  C   UNL     1       2.407   5.083  20.349  0.00  0.00    +0.000 A 
ATOM     10  N   UNL     1       1.642   6.058  20.924  0.00  0.00    +0.000 N 
ATOM     11  H   UNL     1       5.046   6.340  17.706  0.00  0.00    +0.000 HD
ATOM     12  H   UNL     1       0.956   5.878  21.643  0.00  0.00    +0.000 HD
ENDROOT
BRANCH   1  16
ATOM     13  C   UNL     1      -0.293  10.837  21.281  0.00  0.00    +0.000 A 
ATOM     14  C   UNL     1       0.076   9.951  22.295  0.00  0.00    +0.000 A 
ATOM     15  C   UNL     1       0.830   8.807  22.008  0.00  0.00    +0.000 A 
ATOM     16  C   UNL     1       1.232   8.528  20.700  0.00  0.00    +0.000 A 
ATOM     17  C   UNL     1       0.877   9.430  19.688  0.00  0.00    +0.000 A 
ATOM     18  C   UNL     1       0.111  10.566  19.972  0.00  0.00    +0.000 A 
BRANCH  13  22
ATOM     19  C   UNL     1      -1.771  14.172  22.227  0.00  0.00    +0.000 C 
ATOM     20  C   UNL     1      -0.644  13.199  21.999  0.00  0.00    +0.000 C 
ATOM     21  O   UNL     1       0.515  13.515  22.246  0.00  0.00    +0.000 OA
ATOM     22  N   UNL     1      -1.084  11.983  21.505  0.00  0.00    +0.000 N 
ATOM     23  H   UNL     1      -2.052  11.925  21.216  0.00  0.00    +0.000 HD
ENDBRANCH  13  22
ENDBRANCH   1  16
BRANCH   5  24
ATOM     24  C   UNL     1       6.152   4.576  17.387  0.00  0.00    +0.000 C 
ATOM     25  C   UNL     1       7.411   5.241  17.959  0.00  0.00    +0.000 C 
BRANCH  24  26
ATOM     26  C   UNL     1       6.291   4.429  15.872  0.00  0.00    +0.000 A 
ATOM     27  C   UNL     1       7.402   4.983  15.218  0.00  0.00    +0.000 A 
ATOM     28  C   UNL     1       7.499   4.956  13.823  0.00  0.00    +0.000 A 
ATOM     29  C   UNL     1       6.493   4.366  13.063  0.00  0.00    +0.000 A 
ATOM     30  C   UNL     1       5.400   3.781  13.696  0.00  0.00    +0.000 A 
ATOM     31  C   UNL     1       5.301   3.805  15.090  0.00  0.00    +0.000 A 
ENDBRANCH  24  26
ENDBRANCH   5  24
TORSDOF 4
ENDMDL
MODEL 9
REMARK VINA RESULT:      -8.2      0.998      1.025
REMARK  Name = 
REMARK  6 active torsions:
REMARK  status: ('A' for Active; 'I' for Inactive)
REMARK    1  A    between atoms: C_1  and  C_2
REMARK    2  A    between atoms: N_4  and  C_5
REMARK    3  A    between atoms: C_8  and  C_9
REMARK    4  A    between atoms: N_13  and  C_14
REMARK    5  A    between atoms: C_14  and  C_15
REMARK    6  A    between atoms: C_14  and  C_16
REMARK                            x       y       z     vdW  Elec       q    Type
REMARK                         _______ _______ _______ _____ _____    ______ ____
ROOT
ATOM      1  C   UNL     1       2.348   7.858  18.849  0.00  0.00    +0.000 A 
ATOM      2  C   UNL     1       3.174   7.336  17.861  0.00  0.00    +0.000 A 
ATOM      3  C   UNL     1       3.526   6.007  18.217  0.00  0.00    +0.000 A 
ATOM      4  C   UNL     1       4.274   4.965  17.640  0.00  0.00    +0.000 A 
ATOM      5  N   UNL     1       4.897   5.109  16.402  0.00  0.00    +0.000 N 
ATOM      6  N   UNL     1       4.372   3.806  18.334  0.00  0.00    +0.000 NA
ATOM      7  C   UNL     1       3.751   3.706  19.529  0.00  0.00    +0.000 A 
ATOM      8  N   UNL     1       3.016   4.633  20.164  0.00  0.00    +0.000 NA
ATOM      9  C   UNL     1       2.940   5.765  19.446  0.00  0.00    +0.000 A 
ATOM     10  N   UNL     1       2.246   6.881  19.818  0.00  0.00    +0.000 N 
ATOM     11  H   UNL     1       4.935   6.059  16.061  0.00  0.00    +0.000 HD
ATOM     12  H   UNL     1       1.725   6.954  20.680  0.00  0.00    +0.000 HD
ENDROOT
BRANCH   1  16
ATOM     13  C   UNL     1       0.431  11.680  19.149  0.00  0.00    +0.000 A 
ATOM     14  C   UNL     1       1.468  11.476  18.237  0.00  0.00    +0.000 A 
ATOM     15  C   UNL     1       2.076  10.222  18.111  0.00  0.00    +0.000 A 
ATOM     16  C   UNL     1       1.656   9.145  18.895  0.00  0.00    +0.000 A 
ATOM     17  C   UNL     1       0.601   9.347  19.795  0.00  0.00    +0.000 A 
ATOM     18  C   UNL     1       0.003  10.604  19.931  0.00  0.00    +0.000 A 
BRANCH  13  22
ATOM     19  C   UNL     1      -0.523  15.303  19.552  0.00  0.00    +0.000 C 
ATOM     20  C   UNL     1       0.378  14.172  19.130  0.00  0.00    +0.000 C 
ATOM     21  O   UNL     1       1.485  14.399  18.652  0.00  0.00    +0.000 OA
ATOM     22  N   UNL     1      -0.192  12.930  19.346  0.00  0.00    +0.000 N 
ATOM     23  H   UNL     1      -1.168  12.909  19.611  0.00  0.00    +0.000 HD
ENDBRANCH  13  22
ENDBRANCH   1  16
BRANCH   5  24
ATOM     24  C   UNL     1       6.058   4.278  16.111  0.00  0.00    +0.000 C 
ATOM     25  C   UNL     1       7.289   4.717  16.916  0.00  0.00    +0.000 C 
BRANCH  24  26
ATOM     26  C   UNL     1       6.374   4.332  14.617  0.00  0.00    +0.000 A 
ATOM     27  C   UNL     1       5.676   3.503  13.727  0.00  0.00    +0.000 A 
ATOM     28  C   UNL     1       6.021   3.456  12.372  0.00  0.00    +0.000 A 
ATOM     29  C   UNL     1       7.060   4.245  11.886  0.00  0.00    +0.000 A 
ATOM     30  C   UNL     1       7.742   5.099  12.748  0.00  0.00    +0.000 A 
ATOM     31  C   UNL     1       7.399   5.150  14.102  0.00  0.00    +0.000 A 
ENDBRANCH  24  26
ENDBRANCH   5  24
TORSDOF 4
ENDMDL
