MODEL 1
REMARK VINA RESULT:      -7.0      0.000      0.000
REMARK  Name = 
REMARK  10 active torsions:
REMARK  status: ('A' for Active; 'I' for Inactive)
REMARK    1  A    between atoms: C_1  and  C_2
REMARK    2  A    between atoms: C_2  and  O_3
REMARK    3  A    between atoms: O_3  and  C_4
REMARK    4  A    between atoms: C_4  and  C_5
REMARK    5  A    between atoms: C_5  and  C_6
REMARK    6  A    between atoms: C_6  and  N_7
REMARK    7  A    between atoms: C_8  and  C_10
REMARK    8  A    between atoms: C_10  and  C_11
REMARK    9  A    between atoms: C_13  and  C_14
REMARK   10  A    between atoms: C_18  and  O_19
REMARK                            x       y       z     vdW  Elec       q    Type
REMARK                         _______ _______ _______ _____ _____    ______ ____
ROOT
ATOM      1  C   UNL     1       6.020   4.700  15.969  0.00  0.00    +0.000 C 
ATOM      2  C   UNL     1       4.667   4.777  16.012  0.00  0.00    +0.000 C 
ENDROOT
BRANCH   2   3
ATOM      3  C   UNL     1       3.886   4.815  17.271  0.00  0.00    +0.000 A 
ATOM      4  C   UNL     1       3.429   3.631  17.869  0.00  0.00    +0.000 A 
ATOM      5  C   UNL     1       2.552   3.676  18.964  0.00  0.00    +0.000 A 
ATOM      6 BR   UNL     1       1.868   2.044  19.648  0.00  0.00    +0.000 Br
ATOM      7  C   UNL     1       2.158   4.895  19.501  0.00  0.00    +0.000 A 
ATOM      8  C   UNL     1       2.645   6.080  18.944  0.00  0.00    +0.000 A 
ATOM      9 BR   UNL     1       2.158   7.775  19.643  0.00  0.00    +0.000 Br
ATOM     10  C   UNL     1       3.498   6.042  17.828  0.00  0.00    +0.000 A 
BRANCH   7  11
ATOM     11  O   UNL     1       1.279   4.951  20.553  0.00  0.00    +0.000 OA
ATOM     12  H   UNL     1       1.574   4.308  21.226  0.00  0.00    +0.000 HD
ENDBRANCH   7  11
ENDBRANCH   2   3
BRANCH   1  14
ATOM     13  N   UNL     1       6.232   3.924  13.656  0.00  0.00    +0.000 N 
ATOM     14  C   UNL     1       6.751   4.705  14.668  0.00  0.00    +0.000 C 
ATOM     15  O   UNL     1       7.769   5.372  14.534  0.00  0.00    +0.000 OA
ATOM     16  H   UNL     1       5.392   3.372  13.778  0.00  0.00    +0.000 HD
BRANCH  13  17
ATOM     17  C   UNL     1       6.888   3.872  12.355  0.00  0.00    +0.000 C 
BRANCH  17  18
ATOM     18  C   UNL     1       6.834   2.482  11.715  0.00  0.00    +0.000 C 
BRANCH  18  19
ATOM     19  C   UNL     1       5.403   2.125  11.312  0.00  0.00    +0.000 C 
BRANCH  19  20
ATOM     20  O   UNL     1       4.554   3.264  11.458  0.00  0.00    +0.000 OA
BRANCH  20  22
ATOM     21  C   UNL     1       3.120   4.136   9.738  0.00  0.00    +0.000 C 
ATOM     22  C   UNL     1       3.300   3.075  10.805  0.00  0.00    +0.000 C 
ENDBRANCH  20  22
ENDBRANCH  19  20
ENDBRANCH  18  19
ENDBRANCH  17  18
ENDBRANCH  13  17
ENDBRANCH   1  14
BRANCH   1  23
ATOM     23  C   UNL     1       6.764   4.624  17.293  0.00  0.00    +0.000 C 
ATOM     24  N   UNL     1       7.380   4.561  18.391  0.00  0.00    +0.000 NA
ENDBRANCH   1  23
TORSDOF 9
ENDMDL
MODEL 2
REMARK VINA RESULT:      -6.6      0.872      2.140
REMARK  Name = 
REMARK  10 active torsions:
REMARK  status: ('A' for Active; 'I' for Inactive)
REMARK    1  A    between atoms: C_1  and  C_2
REMARK    2  A    between atoms: C_2  and  O_3
REMARK    3  A    between atoms: O_3  and  C_4
REMARK    4  A    between atoms: C_4  and  C_5
REMARK    5  A    between atoms: C_5  and  C_6
REMARK    6  A    between atoms: C_6  and  N_7
REMARK    7  A    between atoms: C_8  and  C_10
REMARK    8  A    between atoms: C_10  and  C_11
REMARK    9  A    between atoms: C_13  and  C_14
REMARK   10  A    between atoms: C_18  and  O_19
REMARK                            x       y       z     vdW  Elec       q    Type
REMARK                         _______ _______ _______ _____ _____    ______ ____
ROOT
ATOM      1  C   UNL     1       5.981   4.910  15.870  0.00  0.00    +0.000 C 
ATOM      2  C   UNL     1       4.706   4.500  16.077  0.00  0.00    +0.000 C 
ENDROOT
BRANCH   2   3
ATOM      3  C   UNL     1       3.988   4.666  17.363  0.00  0.00    +0.000 A 
ATOM      4  C   UNL     1       3.389   5.889  17.699  0.00  0.00    +0.000 A 
ATOM      5  C   UNL     1       2.856   6.097  18.981  0.00  0.00    +0.000 A 
ATOM      6 BR   UNL     1       2.174   7.814  19.415  0.00  0.00    +0.000 Br
ATOM      7  C   UNL     1       2.874   5.077  19.925  0.00  0.00    +0.000 A 
ATOM      8  C   UNL     1       3.425   3.839  19.586  0.00  0.00    +0.000 A 
ATOM      9 BR   UNL     1       3.464   2.402  20.824  0.00  0.00    +0.000 Br
ATOM     10  C   UNL     1       3.988   3.636  18.315  0.00  0.00    +0.000 A 
BRANCH   7  11
ATOM     11  O   UNL     1       2.382   5.279  21.190  0.00  0.00    +0.000 OA
ATOM     12  H   UNL     1       1.879   6.116  21.187  0.00  0.00    +0.000 HD
ENDBRANCH   7  11
ENDBRANCH   2   3
BRANCH   1  14
ATOM     13  N   UNL     1       6.091   3.811  13.684  0.00  0.00    +0.000 N 
ATOM     14  C   UNL     1       6.635   4.748  14.539  0.00  0.00    +0.000 C 
ATOM     15  O   UNL     1       7.616   5.421  14.247  0.00  0.00    +0.000 OA
ATOM     16  H   UNL     1       5.283   3.257  13.937  0.00  0.00    +0.000 HD
BRANCH  13  17
ATOM     17  C   UNL     1       6.673   3.592  12.365  0.00  0.00    +0.000 C 
BRANCH  17  18
ATOM     18  C   UNL     1       5.941   2.511  11.564  0.00  0.00    +0.000 C 
BRANCH  18  19
ATOM     19  C   UNL     1       4.433   2.763  11.562  0.00  0.00    +0.000 C 
BRANCH  19  20
ATOM     20  O   UNL     1       4.121   3.863  10.706  0.00  0.00    +0.000 OA
BRANCH  20  22
ATOM     21  C   UNL     1       2.739   4.729   8.941  0.00  0.00    +0.000 C 
ATOM     22  C   UNL     1       2.909   3.645   9.987  0.00  0.00    +0.000 C 
ENDBRANCH  20  22
ENDBRANCH  19  20
ENDBRANCH  18  19
ENDBRANCH  17  18
ENDBRANCH  13  17
ENDBRANCH   1  14
BRANCH   1  23
ATOM     23  C   UNL     1       6.713   5.551  17.038  0.00  0.00    +0.000 C 
ATOM     24  N   UNL     1       7.320   6.083  18.007  0.00  0.00    +0.000 NA
ENDBRANCH   1  23
TORSDOF 9
ENDMDL
MODEL 3
REMARK VINA RESULT:      -6.2      1.023      1.602
REMARK  Name = 
REMARK  10 active torsions:
REMARK  status: ('A' for Active; 'I' for Inactive)
REMARK    1  A    between atoms: C_1  and  C_2
REMARK    2  A    between atoms: C_2  and  O_3
REMARK    3  A    between atoms: O_3  and  C_4
REMARK    4  A    between atoms: C_4  and  C_5
REMARK    5  A    between atoms: C_5  and  C_6
REMARK    6  A    between atoms: C_6  and  N_7
REMARK    7  A    between atoms: C_8  and  C_10
REMARK    8  A    between atoms: C_10  and  C_11
REMARK    9  A    between atoms: C_13  and  C_14
REMARK   10  A    between atoms: C_18  and  O_19
REMARK                            x       y       z     vdW  Elec       q    Type
REMARK                         _______ _______ _______ _____ _____    ______ ____
ROOT
ATOM      1  C   UNL     1       5.983   4.915  16.366  0.00  0.00    +0.000 C 
ATOM      2  C   UNL     1       4.629   4.911  16.310  0.00  0.00    +0.000 C 
ENDROOT
BRANCH   2   3
ATOM      3  C   UNL     1       3.757   4.850  17.507  0.00  0.00    +0.000 A 
ATOM      4  C   UNL     1       3.227   3.628  17.948  0.00  0.00    +0.000 A 
ATOM      5  C   UNL     1       2.273   3.592  18.977  0.00  0.00    +0.000 A 
ATOM      6 BR   UNL     1       1.500   1.923  19.442  0.00  0.00    +0.000 Br
ATOM      7  C   UNL     1       1.870   4.764  19.605  0.00  0.00    +0.000 A 
ATOM      8  C   UNL     1       2.427   5.982  19.206  0.00  0.00    +0.000 A 
ATOM      9 BR   UNL     1       1.932   7.615  20.037  0.00  0.00    +0.000 Br
ATOM     10  C   UNL     1       3.360   6.027  18.156  0.00  0.00    +0.000 A 
BRANCH   7  11
ATOM     11  O   UNL     1       0.917   4.744  20.591  0.00  0.00    +0.000 OA
ATOM     12  H   UNL     1       0.040   4.765  20.162  0.00  0.00    +0.000 HD
ENDBRANCH   7  11
ENDBRANCH   2   3
BRANCH   1  14
ATOM     13  N   UNL     1       6.325   4.376  14.001  0.00  0.00    +0.000 N 
ATOM     14  C   UNL     1       6.805   5.018  15.125  0.00  0.00    +0.000 C 
ATOM     15  O   UNL     1       7.860   5.641  15.132  0.00  0.00    +0.000 OA
ATOM     16  H   UNL     1       5.455   3.859  14.007  0.00  0.00    +0.000 HD
BRANCH  13  17
ATOM     17  C   UNL     1       7.071   4.427  12.749  0.00  0.00    +0.000 C 
BRANCH  17  18
ATOM     18  C   UNL     1       6.892   3.167  11.898  0.00  0.00    +0.000 C 
BRANCH  18  19
ATOM     19  C   UNL     1       5.422   2.966  11.526  0.00  0.00    +0.000 C 
BRANCH  19  20
ATOM     20  O   UNL     1       5.146   1.576  11.353  0.00  0.00    +0.000 OA
BRANCH  20  22
ATOM     21  C   UNL     1       6.080  -0.638  11.326  0.00  0.00    +0.000 C 
ATOM     22  C   UNL     1       6.330   0.834  11.066  0.00  0.00    +0.000 C 
ENDBRANCH  20  22
ENDBRANCH  19  20
ENDBRANCH  18  19
ENDBRANCH  17  18
ENDBRANCH  13  17
ENDBRANCH   1  14
BRANCH   1  23
ATOM     23  C   UNL     1       6.632   4.825  17.738  0.00  0.00    +0.000 C 
ATOM     24  N   UNL     1       7.169   4.751  18.876  0.00  0.00    +0.000 NA
ENDBRANCH   1  23
TORSDOF 9
ENDMDL
MODEL 4
REMARK VINA RESULT:      -6.0      1.389      2.463
REMARK  Name = 
REMARK  10 active torsions:
REMARK  status: ('A' for Active; 'I' for Inactive)
REMARK    1  A    between atoms: C_1  and  C_2
REMARK    2  A    between atoms: C_2  and  O_3
REMARK    3  A    between atoms: O_3  and  C_4
REMARK    4  A    between atoms: C_4  and  C_5
REMARK    5  A    between atoms: C_5  and  C_6
REMARK    6  A    between atoms: C_6  and  N_7
REMARK    7  A    between atoms: C_8  and  C_10
REMARK    8  A    between atoms: C_10  and  C_11
REMARK    9  A    between atoms: C_13  and  C_14
REMARK   10  A    between atoms: C_18  and  O_19
REMARK                            x       y       z     vdW  Elec       q    Type
REMARK                         _______ _______ _______ _____ _____    ______ ____
ROOT
ATOM      1  C   UNL     1       5.906   5.195  17.041  0.00  0.00    +0.000 C 
ATOM      2  C   UNL     1       4.583   5.391  16.825  0.00  0.00    +0.000 C 
ENDROOT
BRANCH   2   3
ATOM      3  C   UNL     1       3.617   5.733  17.895  0.00  0.00    +0.000 A 
ATOM      4  C   UNL     1       3.056   7.017  17.974  0.00  0.00    +0.000 A 
ATOM      5  C   UNL     1       2.274   7.389  19.079  0.00  0.00    +0.000 A 
ATOM      6 BR   UNL     1       1.651   9.178  19.189  0.00  0.00    +0.000 Br
ATOM      7  C   UNL     1       2.008   6.477  20.092  0.00  0.00    +0.000 A 
ATOM      8  C   UNL     1       2.521   5.180  20.001  0.00  0.00    +0.000 A 
ATOM      9 BR   UNL     1       2.176   3.884  21.343  0.00  0.00    +0.000 Br
ATOM     10  C   UNL     1       3.330   4.812  18.913  0.00  0.00    +0.000 A 
BRANCH   7  11
ATOM     11  O   UNL     1       1.269   6.839  21.190  0.00  0.00    +0.000 OA
ATOM     12  H   UNL     1       0.578   7.463  20.895  0.00  0.00    +0.000 HD
ENDBRANCH   7  11
ENDBRANCH   2   3
BRANCH   1  14
ATOM     13  N   UNL     1       6.379   5.159  14.638  0.00  0.00    +0.000 N 
ATOM     14  C   UNL     1       6.834   4.890  15.913  0.00  0.00    +0.000 C 
ATOM     15  O   UNL     1       7.941   4.414  16.135  0.00  0.00    +0.000 OA
ATOM     16  H   UNL     1       5.461   5.548  14.466  0.00  0.00    +0.000 HD
BRANCH  13  17
ATOM     17  C   UNL     1       7.225   4.888  13.482  0.00  0.00    +0.000 C 
BRANCH  17  18
ATOM     18  C   UNL     1       6.703   3.735  12.619  0.00  0.00    +0.000 C 
BRANCH  18  19
ATOM     19  C   UNL     1       5.180   3.632  12.713  0.00  0.00    +0.000 C 
BRANCH  19  20
ATOM     20  O   UNL     1       4.657   3.024  11.531  0.00  0.00    +0.000 OA
BRANCH  20  22
ATOM     21  C   UNL     1       2.818   3.253  10.000  0.00  0.00    +0.000 C 
ATOM     22  C   UNL     1       3.944   3.962  10.727  0.00  0.00    +0.000 C 
ENDBRANCH  20  22
ENDBRANCH  19  20
ENDBRANCH  18  19
ENDBRANCH  17  18
ENDBRANCH  13  17
ENDBRANCH   1  14
BRANCH   1  23
ATOM     23  C   UNL     1       6.411   5.310  18.471  0.00  0.00    +0.000 C 
ATOM     24  N   UNL     1       6.829   5.406  19.656  0.00  0.00    +0.000 NA
ENDBRANCH   1  23
TORSDOF 9
ENDMDL
MODEL 5
REMARK VINA RESULT:      -6.0      5.038      7.316
REMARK  Name = 
REMARK  10 active torsions:
REMARK  status: ('A' for Active; 'I' for Inactive)
REMARK    1  A    between atoms: C_1  and  C_2
REMARK    2  A    between atoms: C_2  and  O_3
REMARK    3  A    between atoms: O_3  and  C_4
REMARK    4  A    between atoms: C_4  and  C_5
REMARK    5  A    between atoms: C_5  and  C_6
REMARK    6  A    between atoms: C_6  and  N_7
REMARK    7  A    between atoms: C_8  and  C_10
REMARK    8  A    between atoms: C_10  and  C_11
REMARK    9  A    between atoms: C_13  and  C_14
REMARK   10  A    between atoms: C_18  and  O_19
REMARK                            x       y       z     vdW  Elec       q    Type
REMARK                         _______ _______ _______ _____ _____    ______ ____
ROOT
ATOM      1  C   UNL     1       2.339   7.661  18.561  0.00  0.00    +0.000 C 
ATOM      2  C   UNL     1       1.933   8.634  17.710  0.00  0.00    +0.000 C 
ENDROOT
BRANCH   2   3
ATOM      3  C   UNL     1       1.072   9.771  18.114  0.00  0.00    +0.000 A 
ATOM      4  C   UNL     1      -0.321   9.708  17.964  0.00  0.00    +0.000 A 
ATOM      5  C   UNL     1      -1.118  10.841  18.189  0.00  0.00    +0.000 A 
ATOM      6 BR   UNL     1      -2.980  10.726  17.846  0.00  0.00    +0.000 Br
ATOM      7  C   UNL     1      -0.542  12.035  18.607  0.00  0.00    +0.000 A 
ATOM      8  C   UNL     1       0.840  12.097  18.806  0.00  0.00    +0.000 A 
ATOM      9 BR   UNL     1       1.683  13.692  19.394  0.00  0.00    +0.000 Br
ATOM     10  C   UNL     1       1.645  10.974  18.552  0.00  0.00    +0.000 A 
BRANCH   7  11
ATOM     11  O   UNL     1      -1.307  13.156  18.802  0.00  0.00    +0.000 OA
ATOM     12  H   UNL     1      -2.031  13.144  18.146  0.00  0.00    +0.000 HD
ENDBRANCH   7  11
ENDBRANCH   2   3
BRANCH   1  14
ATOM     13  N   UNL     1       2.644   5.355  17.794  0.00  0.00    +0.000 N 
ATOM     14  C   UNL     1       3.238   6.562  18.102  0.00  0.00    +0.000 C 
ATOM     15  O   UNL     1       4.446   6.745  18.021  0.00  0.00    +0.000 OA
ATOM     16  H   UNL     1       1.645   5.212  17.869  0.00  0.00    +0.000 HD
BRANCH  13  17
ATOM     17  C   UNL     1       3.453   4.230  17.340  0.00  0.00    +0.000 C 
BRANCH  17  18
ATOM     18  C   UNL     1       2.715   2.891  17.427  0.00  0.00    +0.000 C 
BRANCH  18  19
ATOM     19  C   UNL     1       2.141   2.678  18.828  0.00  0.00    +0.000 C 
BRANCH  19  20
ATOM     20  O   UNL     1       3.073   3.127  19.813  0.00  0.00    +0.000 OA
BRANCH  20  22
ATOM     21  C   UNL     1       1.025   4.105  20.605  0.00  0.00    +0.000 C 
ATOM     22  C   UNL     1       2.413   3.621  20.977  0.00  0.00    +0.000 C 
ENDBRANCH  20  22
ENDBRANCH  19  20
ENDBRANCH  18  19
ENDBRANCH  17  18
ENDBRANCH  13  17
ENDBRANCH   1  14
BRANCH   1  23
ATOM     23  C   UNL     1       1.857   7.737  20.001  0.00  0.00    +0.000 C 
ATOM     24  N   UNL     1       1.457   7.801  21.195  0.00  0.00    +0.000 NA
ENDBRANCH   1  23
TORSDOF 9
ENDMDL
MODEL 6
REMARK VINA RESULT:      -6.0      5.320      7.914
REMARK  Name = 
REMARK  10 active torsions:
REMARK  status: ('A' for Active; 'I' for Inactive)
REMARK    1  A    between atoms: C_1  and  C_2
REMARK    2  A    between atoms: C_2  and  O_3
REMARK    3  A    between atoms: O_3  and  C_4
REMARK    4  A    between atoms: C_4  and  C_5
REMARK    5  A    between atoms: C_5  and  C_6
REMARK    6  A    between atoms: C_6  and  N_7
REMARK    7  A    between atoms: C_8  and  C_10
REMARK    8  A    between atoms: C_10  and  C_11
REMARK    9  A    between atoms: C_13  and  C_14
REMARK   10  A    between atoms: C_18  and  O_19
REMARK                            x       y       z     vdW  Elec       q    Type
REMARK                         _______ _______ _______ _____ _____    ______ ____
ROOT
ATOM      1  C   UNL     1       1.973   8.707  18.695  0.00  0.00    +0.000 C 
ATOM      2  C   UNL     1       2.669   8.042  17.741  0.00  0.00    +0.000 C 
ENDROOT
BRANCH   2   3
ATOM      3  C   UNL     1       3.210   6.674  17.923  0.00  0.00    +0.000 A 
ATOM      4  C   UNL     1       4.589   6.429  17.835  0.00  0.00    +0.000 A 
ATOM      5  C   UNL     1       5.084   5.116  17.841  0.00  0.00    +0.000 A 
ATOM      6 BR   UNL     1       6.945   4.845  17.592  0.00  0.00    +0.000 Br
ATOM      7  C   UNL     1       4.218   4.038  17.978  0.00  0.00    +0.000 A 
ATOM      8  C   UNL     1       2.847   4.272  18.115  0.00  0.00    +0.000 A 
ATOM      9 BR   UNL     1       1.616   2.843  18.323  0.00  0.00    +0.000 Br
ATOM     10  C   UNL     1       2.343   5.583  18.078  0.00  0.00    +0.000 A 
BRANCH   7  11
ATOM     11  O   UNL     1       4.688   2.749  17.956  0.00  0.00    +0.000 OA
ATOM     12  H   UNL     1       4.205   2.242  18.637  0.00  0.00    +0.000 HD
ENDBRANCH   7  11
ENDBRANCH   2   3
BRANCH   1  14
ATOM     13  N   UNL     1       0.086  10.268  18.730  0.00  0.00    +0.000 N 
ATOM     14  C   UNL     1       1.420  10.069  18.436  0.00  0.00    +0.000 C 
ATOM     15  O   UNL     1       2.135  10.949  17.973  0.00  0.00    +0.000 OA
ATOM     16  H   UNL     1      -0.498   9.533  19.108  0.00  0.00    +0.000 HD
BRANCH  13  17
ATOM     17  C   UNL     1      -0.531  11.570  18.504  0.00  0.00    +0.000 C 
BRANCH  17  18
ATOM     18  C   UNL     1      -1.927  11.467  17.882  0.00  0.00    +0.000 C 
BRANCH  18  19
ATOM     19  C   UNL     1      -2.193  10.050  17.374  0.00  0.00    +0.000 C 
BRANCH  19  20
ATOM     20  O   UNL     1      -3.297  10.053  16.469  0.00  0.00    +0.000 OA
BRANCH  20  22
ATOM     21  C   UNL     1      -3.493   9.999  14.074  0.00  0.00    +0.000 C 
ATOM     22  C   UNL     1      -3.001  10.779  15.278  0.00  0.00    +0.000 C 
ENDBRANCH  20  22
ENDBRANCH  19  20
ENDBRANCH  18  19
ENDBRANCH  17  18
ENDBRANCH  13  17
ENDBRANCH   1  14
BRANCH   1  23
ATOM     23  C   UNL     1       1.766   8.011  20.031  0.00  0.00    +0.000 C 
ATOM     24  N   UNL     1       1.594   7.433  21.138  0.00  0.00    +0.000 NA
ENDBRANCH   1  23
TORSDOF 9
ENDMDL
MODEL 7
REMARK VINA RESULT:      -5.9      5.777      8.092
REMARK  Name = 
REMARK  10 active torsions:
REMARK  status: ('A' for Active; 'I' for Inactive)
REMARK    1  A    between atoms: C_1  and  C_2
REMARK    2  A    between atoms: C_2  and  O_3
REMARK    3  A    between atoms: O_3  and  C_4
REMARK    4  A    between atoms: C_4  and  C_5
REMARK    5  A    between atoms: C_5  and  C_6
REMARK    6  A    between atoms: C_6  and  N_7
REMARK    7  A    between atoms: C_8  and  C_10
REMARK    8  A    between atoms: C_10  and  C_11
REMARK    9  A    between atoms: C_13  and  C_14
REMARK   10  A    between atoms: C_18  and  O_19
REMARK                            x       y       z     vdW  Elec       q    Type
REMARK                         _______ _______ _______ _____ _____    ______ ____
ROOT
ATOM      1  C   UNL     1       1.686   8.112  20.069  0.00  0.00    +0.000 C 
ATOM      2  C   UNL     1       1.392   8.786  18.931  0.00  0.00    +0.000 C 
ENDROOT
BRANCH   2   3
ATOM      3  C   UNL     1       0.829  10.158  18.911  0.00  0.00    +0.000 A 
ATOM      4  C   UNL     1      -0.558  10.366  18.924  0.00  0.00    +0.000 A 
ATOM      5  C   UNL     1      -1.090  11.652  18.738  0.00  0.00    +0.000 A 
ATOM      6 BR   UNL     1      -2.974  11.850  18.638  0.00  0.00    +0.000 Br
ATOM      7  C   UNL     1      -0.248  12.746  18.581  0.00  0.00    +0.000 A 
ATOM      8  C   UNL     1       1.136  12.558  18.615  0.00  0.00    +0.000 A 
ATOM      9 BR   UNL     1       2.337  14.014  18.426  0.00  0.00    +0.000 Br
ATOM     10  C   UNL     1       1.674  11.269  18.770  0.00  0.00    +0.000 A 
BRANCH   7  11
ATOM     11  O   UNL     1      -0.757  14.002  18.370  0.00  0.00    +0.000 OA
ATOM     12  H   UNL     1      -0.033  14.568  18.039  0.00  0.00    +0.000 HD
ENDBRANCH   7  11
ENDBRANCH   2   3
BRANCH   1  14
ATOM     13  N   UNL     1       1.797   5.816  20.915  0.00  0.00    +0.000 N 
ATOM     14  C   UNL     1       2.287   6.747  20.022  0.00  0.00    +0.000 C 
ATOM     15  O   UNL     1       3.182   6.494  19.226  0.00  0.00    +0.000 OA
ATOM     16  H   UNL     1       1.060   6.037  21.573  0.00  0.00    +0.000 HD
BRANCH  13  17
ATOM     17  C   UNL     1       2.333   4.460  20.933  0.00  0.00    +0.000 C 
BRANCH  17  18
ATOM     18  C   UNL     1       1.244   3.388  20.827  0.00  0.00    +0.000 C 
BRANCH  18  19
ATOM     19  C   UNL     1       1.223   2.773  19.427  0.00  0.00    +0.000 C 
BRANCH  19  20
ATOM     20  O   UNL     1       1.353   3.797  18.440  0.00  0.00    +0.000 OA
BRANCH  20  22
ATOM     21  C   UNL     1       2.955   2.123  17.800  0.00  0.00    +0.000 C 
ATOM     22  C   UNL     1       2.322   3.455  17.450  0.00  0.00    +0.000 C 
ENDBRANCH  20  22
ENDBRANCH  19  20
ENDBRANCH  18  19
ENDBRANCH  17  18
ENDBRANCH  13  17
ENDBRANCH   1  14
BRANCH   1  23
ATOM     23  C   UNL     1       1.394   8.801  21.393  0.00  0.00    +0.000 C 
ATOM     24  N   UNL     1       1.152   9.373  22.490  0.00  0.00    +0.000 NA
ENDBRANCH   1  23
TORSDOF 9
ENDMDL
MODEL 8
REMARK VINA RESULT:      -5.9      5.311      7.280
REMARK  Name = 
REMARK  10 active torsions:
REMARK  status: ('A' for Active; 'I' for Inactive)
REMARK    1  A    between atoms: C_1  and  C_2
REMARK    2  A    between atoms: C_2  and  O_3
REMARK    3  A    between atoms: O_3  and  C_4
REMARK    4  A    between atoms: C_4  and  C_5
REMARK    5  A    between atoms: C_5  and  C_6
REMARK    6  A    between atoms: C_6  and  N_7
REMARK    7  A    between atoms: C_8  and  C_10
REMARK    8  A    between atoms: C_10  and  C_11
REMARK    9  A    between atoms: C_13  and  C_14
REMARK   10  A    between atoms: C_18  and  O_19
REMARK                            x       y       z     vdW  Elec       q    Type
REMARK                         _______ _______ _______ _____ _____    ______ ____
ROOT
ATOM      1  C   UNL     1       2.483   7.779  18.626  0.00  0.00    +0.000 C 
ATOM      2  C   UNL     1       2.045   8.730  17.766  0.00  0.00    +0.000 C 
ENDROOT
BRANCH   2   3
ATOM      3  C   UNL     1       1.027   9.748  18.116  0.00  0.00    +0.000 A 
ATOM      4  C   UNL     1      -0.333   9.524  17.854  0.00  0.00    +0.000 A 
ATOM      5  C   UNL     1      -1.275  10.550  18.032  0.00  0.00    +0.000 A 
ATOM      6 BR   UNL     1      -3.078  10.225  17.539  0.00  0.00    +0.000 Br
ATOM      7  C   UNL     1      -0.879  11.793  18.512  0.00  0.00    +0.000 A 
ATOM      8  C   UNL     1       0.465  12.013  18.823  0.00  0.00    +0.000 A 
ATOM      9 BR   UNL     1       1.064  13.681  19.499  0.00  0.00    +0.000 Br
ATOM     10  C   UNL     1       1.416  10.999  18.617  0.00  0.00    +0.000 A 
BRANCH   7  11
ATOM     11  O   UNL     1      -1.786  12.811  18.662  0.00  0.00    +0.000 OA
ATOM     12  H   UNL     1      -1.954  13.196  17.780  0.00  0.00    +0.000 HD
ENDBRANCH   7  11
ENDBRANCH   2   3
BRANCH   1  14
ATOM     13  N   UNL     1       3.896   5.849  19.154  0.00  0.00    +0.000 N 
ATOM     14  C   UNL     1       3.541   6.806  18.225  0.00  0.00    +0.000 C 
ATOM     15  O   UNL     1       4.063   6.882  17.120  0.00  0.00    +0.000 OA
ATOM     16  H   UNL     1       3.461   5.797  20.067  0.00  0.00    +0.000 HD
BRANCH  13  17
ATOM     17  C   UNL     1       4.922   4.862  18.839  0.00  0.00    +0.000 C 
BRANCH  17  18
ATOM     18  C   UNL     1       4.358   3.447  18.676  0.00  0.00    +0.000 C 
BRANCH  18  19
ATOM     19  C   UNL     1       3.278   3.169  19.722  0.00  0.00    +0.000 C 
BRANCH  19  20
ATOM     20  O   UNL     1       2.205   2.433  19.134  0.00  0.00    +0.000 OA
BRANCH  20  22
ATOM     21  C   UNL     1       1.006   4.098  20.387  0.00  0.00    +0.000 C 
ATOM     22  C   UNL     1       0.961   2.712  19.774  0.00  0.00    +0.000 C 
ENDBRANCH  20  22
ENDBRANCH  19  20
ENDBRANCH  18  19
ENDBRANCH  17  18
ENDBRANCH  13  17
ENDBRANCH   1  14
BRANCH   1  23
ATOM     23  C   UNL     1       1.868   7.749  20.017  0.00  0.00    +0.000 C 
ATOM     24  N   UNL     1       1.359   7.724  21.170  0.00  0.00    +0.000 NA
ENDBRANCH   1  23
TORSDOF 9
ENDMDL
MODEL 9
REMARK VINA RESULT:      -5.9      5.490      7.492
REMARK  Name = 
REMARK  10 active torsions:
REMARK  status: ('A' for Active; 'I' for Inactive)
REMARK    1  A    between atoms: C_1  and  C_2
REMARK    2  A    between atoms: C_2  and  O_3
REMARK    3  A    between atoms: O_3  and  C_4
REMARK    4  A    between atoms: C_4  and  C_5
REMARK    5  A    between atoms: C_5  and  C_6
REMARK    6  A    between atoms: C_6  and  N_7
REMARK    7  A    between atoms: C_8  and  C_10
REMARK    8  A    between atoms: C_10  and  C_11
REMARK    9  A    between atoms: C_13  and  C_14
REMARK   10  A    between atoms: C_18  and  O_19
REMARK                            x       y       z     vdW  Elec       q    Type
REMARK                         _______ _______ _______ _____ _____    ______ ____
ROOT
ATOM      1  C   UNL     1       2.388   7.753  18.750  0.00  0.00    +0.000 C 
ATOM      2  C   UNL     1       2.011   8.628  17.785  0.00  0.00    +0.000 C 
ENDROOT
BRANCH   2   3
ATOM      3  C   UNL     1       1.023   9.712  17.999  0.00  0.00    +0.000 A 
ATOM      4  C   UNL     1       1.401  10.919  18.605  0.00  0.00    +0.000 A 
ATOM      5  C   UNL     1       0.436  11.876  18.957  0.00  0.00    +0.000 A 
ATOM      6 BR   UNL     1       0.995  13.431  19.888  0.00  0.00    +0.000 Br
ATOM      7  C   UNL     1      -0.907  11.659  18.672  0.00  0.00    +0.000 A 
ATOM      8  C   UNL     1      -1.289  10.481  18.025  0.00  0.00    +0.000 A 
ATOM      9 BR   UNL     1      -3.104  10.136  17.591  0.00  0.00    +0.000 Br
ATOM     10  C   UNL     1      -0.331   9.507  17.698  0.00  0.00    +0.000 A 
BRANCH   7  11
ATOM     11  O   UNL     1      -1.862  12.574  19.037  0.00  0.00    +0.000 OA
ATOM     12  H   UNL     1      -2.673  12.084  19.270  0.00  0.00    +0.000 HD
ENDBRANCH   7  11
ENDBRANCH   2   3
BRANCH   1  14
ATOM     13  N   UNL     1       3.774   5.894  19.539  0.00  0.00    +0.000 N 
ATOM     14  C   UNL     1       3.418   6.708  18.482  0.00  0.00    +0.000 C 
ATOM     15  O   UNL     1       3.918   6.604  17.369  0.00  0.00    +0.000 OA
ATOM     16  H   UNL     1       3.358   5.991  20.456  0.00  0.00    +0.000 HD
BRANCH  13  17
ATOM     17  C   UNL     1       4.774   4.849  19.359  0.00  0.00    +0.000 C 
BRANCH  17  18
ATOM     18  C   UNL     1       4.166   3.509  18.931  0.00  0.00    +0.000 C 
BRANCH  18  19
ATOM     19  C   UNL     1       3.174   3.004  19.979  0.00  0.00    +0.000 C 
BRANCH  19  20
ATOM     20  O   UNL     1       2.200   2.159  19.365  0.00  0.00    +0.000 OA
BRANCH  20  22
ATOM     21  C   UNL     1       0.889   3.944  20.300  0.00  0.00    +0.000 C 
ATOM     22  C   UNL     1       0.912   2.772  19.338  0.00  0.00    +0.000 C 
ENDBRANCH  20  22
ENDBRANCH  19  20
ENDBRANCH  18  19
ENDBRANCH  17  18
ENDBRANCH  13  17
ENDBRANCH   1  14
BRANCH   1  23
ATOM     23  C   UNL     1       1.734   7.886  20.116  0.00  0.00    +0.000 C 
ATOM     24  N   UNL     1       1.192   7.996  21.249  0.00  0.00    +0.000 NA
ENDBRANCH   1  23
TORSDOF 9
ENDMDL
