MODEL 1
REMARK VINA RESULT:      -6.3      0.000      0.000
REMARK  Name = 
REMARK  11 active torsions:
REMARK  status: ('A' for Active; 'I' for Inactive)
REMARK    1  A    between atoms: C_1  and  C_2
REMARK    2  A    between atoms: C_2  and  C_3
REMARK    3  A    between atoms: C_3  and  C_4
REMARK    4  A    between atoms: C_3  and  C_6
REMARK    5  A    between atoms: C_4  and  C_5
REMARK    6  A    between atoms: C_11  and  N_12
REMARK    7  A    between atoms: N_12  and  C_13
REMARK    8  A    between atoms: N_12  and  S_21
REMARK    9  A    between atoms: C_13  and  C_14
REMARK   10  A    between atoms: C_14  and  N_15
REMARK   11  A    between atoms: S_21  and  C_22
REMARK                            x       y       z     vdW  Elec       q    Type
REMARK                         _______ _______ _______ _____ _____    ______ ____
ROOT
ATOM      1  N   UNL     1      -0.573  10.317  20.424  0.00  0.00    +0.000 NA
ENDROOT
BRANCH   1   7
ATOM      2  C   UNL     1       2.627   7.249  18.561  0.00  0.00    +0.000 C 
ATOM      3  O   UNL     1       2.847   7.891  17.536  0.00  0.00    +0.000 OA
ATOM      4  N   UNL     1       1.980   7.830  19.621  0.00  0.00    +0.000 N 
ATOM      5  C   UNL     1       1.646   7.298  20.922  0.00  0.00    +0.000 C 
ATOM      6  C   UNL     1       0.411   8.097  21.296  0.00  0.00    +0.000 C 
ATOM      7  C   UNL     1       0.691   9.515  20.762  0.00  0.00    +0.000 C 
ATOM      8  C   UNL     1       1.554   9.210  19.525  0.00  0.00    +0.000 C 
BRANCH   2   9
ATOM      9  C   UNL     1       3.015   5.772  18.673  0.00  0.00    +0.000 C 
BRANCH   9  11
ATOM     10  C   UNL     1       2.406   3.697  17.286  0.00  0.00    +0.000 C 
ATOM     11  C   UNL     1       1.902   4.946  17.995  0.00  0.00    +0.000 C 
ENDBRANCH   9  11
BRANCH   9  12
ATOM     12  C   UNL     1       4.388   5.533  18.001  0.00  0.00    +0.000 C 
ATOM     13  C   UNL     1       5.524   5.352  19.001  0.00  0.00    +0.000 C 
ENDBRANCH   9  12
ENDBRANCH   2   9
ENDBRANCH   1   7
BRANCH   1  14
ATOM     14  S   UNL     1      -0.829  11.607  21.605  0.00  0.00    +0.000 S 
ATOM     15  C   UNL     1      -1.009  10.742  23.154  0.00  0.00    +0.000 C 
ATOM     16  O   UNL     1       0.380  12.394  21.712  0.00  0.00    +0.000 OA
ATOM     17  O   UNL     1      -2.091  12.232  21.270  0.00  0.00    +0.000 OA
ENDBRANCH   1  14
BRANCH   1  18
ATOM     18  C   UNL     1      -0.495  10.951  19.039  0.00  0.00    +0.000 C 
BRANCH  18  19
ATOM     19  C   UNL     1      -1.793  11.371  18.309  0.00  0.00    +0.000 C 
BRANCH  19  20
ATOM     20  N   UNL     1      -2.575  10.189  17.861  0.00  0.00    +0.000 NA
ATOM     21  C   UNL     1      -2.228   9.777  16.477  0.00  0.00    +0.000 C 
ATOM     22  C   UNL     1      -2.825  10.662  15.360  0.00  0.00    +0.000 C 
ATOM     23  O   UNL     1      -4.232  10.891  15.524  0.00  0.00    +0.000 OA
ATOM     24  C   UNL     1      -4.528  11.394  16.830  0.00  0.00    +0.000 C 
ATOM     25  C   UNL     1      -4.044  10.399  17.892  0.00  0.00    +0.000 C 
ENDBRANCH  19  20
ENDBRANCH  18  19
ENDBRANCH   1  18
TORSDOF 8
ENDMDL
MODEL 2
REMARK VINA RESULT:      -6.1      0.873      1.133
REMARK  Name = 
REMARK  11 active torsions:
REMARK  status: ('A' for Active; 'I' for Inactive)
REMARK    1  A    between atoms: C_1  and  C_2
REMARK    2  A    between atoms: C_2  and  C_3
REMARK    3  A    between atoms: C_3  and  C_4
REMARK    4  A    between atoms: C_3  and  C_6
REMARK    5  A    between atoms: C_4  and  C_5
REMARK    6  A    between atoms: C_11  and  N_12
REMARK    7  A    between atoms: N_12  and  C_13
REMARK    8  A    between atoms: N_12  and  S_21
REMARK    9  A    between atoms: C_13  and  C_14
REMARK   10  A    between atoms: C_14  and  N_15
REMARK   11  A    between atoms: S_21  and  C_22
REMARK                            x       y       z     vdW  Elec       q    Type
REMARK                         _______ _______ _______ _____ _____    ______ ____
ROOT
ATOM      1  N   UNL     1      -0.737  10.675  20.561  0.00  0.00    +0.000 NA
ENDROOT
BRANCH   1   7
ATOM      2  C   UNL     1       2.210   7.295  18.823  0.00  0.00    +0.000 C 
ATOM      3  O   UNL     1       2.436   7.853  17.751  0.00  0.00    +0.000 OA
ATOM      4  N   UNL     1       1.633   7.985  19.859  0.00  0.00    +0.000 N 
ATOM      5  C   UNL     1       1.310   7.562  21.201  0.00  0.00    +0.000 C 
ATOM      6  C   UNL     1       0.138   8.460  21.555  0.00  0.00    +0.000 C 
ATOM      7  C   UNL     1       0.486   9.820  20.917  0.00  0.00    +0.000 C 
ATOM      8  C   UNL     1       1.289   9.380  19.680  0.00  0.00    +0.000 C 
BRANCH   2   9
ATOM      9  C   UNL     1       2.511   5.807  19.025  0.00  0.00    +0.000 C 
BRANCH   9  11
ATOM     10  C   UNL     1       1.954   3.572  17.889  0.00  0.00    +0.000 C 
ATOM     11  C   UNL     1       2.127   5.074  17.722  0.00  0.00    +0.000 C 
ENDBRANCH   9  11
BRANCH   9  12
ATOM     12  C   UNL     1       4.007   5.612  19.365  0.00  0.00    +0.000 C 
ATOM     13  C   UNL     1       4.926   5.796  18.162  0.00  0.00    +0.000 C 
ENDBRANCH   9  12
ENDBRANCH   2   9
ENDBRANCH   1   7
BRANCH   1  14
ATOM     14  S   UNL     1      -0.951  11.979  21.735  0.00  0.00    +0.000 S 
ATOM     15  C   UNL     1       0.126  13.272  21.142  0.00  0.00    +0.000 C 
ATOM     16  O   UNL     1      -2.301  12.489  21.631  0.00  0.00    +0.000 OA
ATOM     17  O   UNL     1      -0.441  11.489  22.997  0.00  0.00    +0.000 OA
ENDBRANCH   1  14
BRANCH   1  18
ATOM     18  C   UNL     1      -0.614  11.300  19.175  0.00  0.00    +0.000 C 
BRANCH  18  19
ATOM     19  C   UNL     1      -1.880  11.513  18.310  0.00  0.00    +0.000 C 
BRANCH  19  20
ATOM     20  N   UNL     1      -2.547  10.224  17.991  0.00  0.00    +0.000 NA
ATOM     21  C   UNL     1      -2.094   9.663  16.693  0.00  0.00    +0.000 C 
ATOM     22  C   UNL     1      -2.689  10.342  15.440  0.00  0.00    +0.000 C 
ATOM     23  O   UNL     1      -4.116  10.479  15.506  0.00  0.00    +0.000 OA
ATOM     24  C   UNL     1      -4.521  11.124  16.717  0.00  0.00    +0.000 C 
ATOM     25  C   UNL     1      -4.026  10.319  17.925  0.00  0.00    +0.000 C 
ENDBRANCH  19  20
ENDBRANCH  18  19
ENDBRANCH   1  18
TORSDOF 8
ENDMDL
MODEL 3
REMARK VINA RESULT:      -6.0      3.682      8.226
REMARK  Name = 
REMARK  11 active torsions:
REMARK  status: ('A' for Active; 'I' for Inactive)
REMARK    1  A    between atoms: C_1  and  C_2
REMARK    2  A    between atoms: C_2  and  C_3
REMARK    3  A    between atoms: C_3  and  C_4
REMARK    4  A    between atoms: C_3  and  C_6
REMARK    5  A    between atoms: C_4  and  C_5
REMARK    6  A    between atoms: C_11  and  N_12
REMARK    7  A    between atoms: N_12  and  C_13
REMARK    8  A    between atoms: N_12  and  S_21
REMARK    9  A    between atoms: C_13  and  C_14
REMARK   10  A    between atoms: C_14  and  N_15
REMARK   11  A    between atoms: S_21  and  C_22
REMARK                            x       y       z     vdW  Elec       q    Type
REMARK                         _______ _______ _______ _____ _____    ______ ____
ROOT
ATOM      1  N   UNL     1       3.474   5.276  19.926  0.00  0.00    +0.000 NA
ENDROOT
BRANCH   1   7
ATOM      2  C   UNL     1       1.819   9.506  18.351  0.00  0.00    +0.000 C 
ATOM      3  O   UNL     1       2.365   9.463  17.250  0.00  0.00    +0.000 OA
ATOM      4  N   UNL     1       1.722   8.379  19.125  0.00  0.00    +0.000 N 
ATOM      5  C   UNL     1       1.103   8.179  20.415  0.00  0.00    +0.000 C 
ATOM      6  C   UNL     1       1.913   7.032  20.993  0.00  0.00    +0.000 C 
ATOM      7  C   UNL     1       2.196   6.112  19.788  0.00  0.00    +0.000 C 
ATOM      8  C   UNL     1       2.270   7.131  18.637  0.00  0.00    +0.000 C 
BRANCH   2   9
ATOM      9  C   UNL     1       1.279  10.822  18.919  0.00  0.00    +0.000 C 
BRANCH   9  11
ATOM     10  C   UNL     1       2.259  13.175  19.240  0.00  0.00    +0.000 C 
ATOM     11  C   UNL     1       2.125  11.967  18.323  0.00  0.00    +0.000 C 
ENDBRANCH   9  11
BRANCH   9  12
ATOM     12  C   UNL     1      -0.218  10.978  18.561  0.00  0.00    +0.000 C 
ATOM     13  C   UNL     1      -1.093  11.309  19.765  0.00  0.00    +0.000 C 
ENDBRANCH   9  12
ENDBRANCH   2   9
ENDBRANCH   1   7
BRANCH   1  14
ATOM     14  S   UNL     1       3.093   3.549  19.944  0.00  0.00    +0.000 S 
ATOM     15  C   UNL     1       2.271   3.307  21.508  0.00  0.00    +0.000 C 
ATOM     16  O   UNL     1       2.111   3.274  18.917  0.00  0.00    +0.000 OA
ATOM     17  O   UNL     1       4.357   2.846  19.967  0.00  0.00    +0.000 OA
ENDBRANCH   1  14
BRANCH   1  18
ATOM     18  C   UNL     1       4.453   5.533  18.785  0.00  0.00    +0.000 C 
BRANCH  18  19
ATOM     19  C   UNL     1       4.329   4.729  17.468  0.00  0.00    +0.000 C 
BRANCH  19  20
ATOM     20  N   UNL     1       5.594   4.020  17.140  0.00  0.00    +0.000 NA
ATOM     21  C   UNL     1       6.788   4.731  17.663  0.00  0.00    +0.000 C 
ATOM     22  C   UNL     1       7.215   5.977  16.856  0.00  0.00    +0.000 C 
ATOM     23  O   UNL     1       7.305   5.724  15.447  0.00  0.00    +0.000 OA
ATOM     24  C   UNL     1       6.099   5.141  14.946  0.00  0.00    +0.000 C 
ATOM     25  C   UNL     1       5.810   3.828  15.685  0.00  0.00    +0.000 C 
ENDBRANCH  19  20
ENDBRANCH  18  19
ENDBRANCH   1  18
TORSDOF 8
ENDMDL
MODEL 4
REMARK VINA RESULT:      -5.9      3.714      8.236
REMARK  Name = 
REMARK  11 active torsions:
REMARK  status: ('A' for Active; 'I' for Inactive)
REMARK    1  A    between atoms: C_1  and  C_2
REMARK    2  A    between atoms: C_2  and  C_3
REMARK    3  A    between atoms: C_3  and  C_4
REMARK    4  A    between atoms: C_3  and  C_6
REMARK    5  A    between atoms: C_4  and  C_5
REMARK    6  A    between atoms: C_11  and  N_12
REMARK    7  A    between atoms: N_12  and  C_13
REMARK    8  A    between atoms: N_12  and  S_21
REMARK    9  A    between atoms: C_13  and  C_14
REMARK   10  A    between atoms: C_14  and  N_15
REMARK   11  A    between atoms: S_21  and  C_22
REMARK                            x       y       z     vdW  Elec       q    Type
REMARK                         _______ _______ _______ _____ _____    ______ ____
ROOT
ATOM      1  N   UNL     1       3.494   4.616  19.551  0.00  0.00    +0.000 NA
ENDROOT
BRANCH   1   7
ATOM      2  C   UNL     1       1.846   8.992  18.431  0.00  0.00    +0.000 C 
ATOM      3  O   UNL     1       2.253   8.996  17.272  0.00  0.00    +0.000 OA
ATOM      4  N   UNL     1       1.794   7.823  19.147  0.00  0.00    +0.000 N 
ATOM      5  C   UNL     1       1.327   7.567  20.490  0.00  0.00    +0.000 C 
ATOM      6  C   UNL     1       2.151   6.359  20.898  0.00  0.00    +0.000 C 
ATOM      7  C   UNL     1       2.246   5.505  19.618  0.00  0.00    +0.000 C 
ATOM      8  C   UNL     1       2.225   6.589  18.526  0.00  0.00    +0.000 C 
BRANCH   2   9
ATOM      9  C   UNL     1       1.436  10.289  19.135  0.00  0.00    +0.000 C 
BRANCH   9  11
ATOM     10  C   UNL     1       1.717  12.833  18.905  0.00  0.00    +0.000 C 
ATOM     11  C   UNL     1       1.959  11.465  18.283  0.00  0.00    +0.000 C 
ENDBRANCH   9  11
BRANCH   9  12
ATOM     12  C   UNL     1      -0.101  10.343  19.291  0.00  0.00    +0.000 C 
ATOM     13  C   UNL     1      -0.847  10.180  17.971  0.00  0.00    +0.000 C 
ENDBRANCH   9  12
ENDBRANCH   2   9
ENDBRANCH   1   7
BRANCH   1  14
ATOM     14  S   UNL     1       3.203   3.206  18.524  0.00  0.00    +0.000 S 
ATOM     15  C   UNL     1       1.457   2.891  18.711  0.00  0.00    +0.000 C 
ATOM     16  O   UNL     1       3.407   3.580  17.141  0.00  0.00    +0.000 OA
ATOM     17  O   UNL     1       3.941   2.107  19.109  0.00  0.00    +0.000 OA
ENDBRANCH   1  14
BRANCH   1  18
ATOM     18  C   UNL     1       4.701   5.365  18.995  0.00  0.00    +0.000 C 
BRANCH  18  19
ATOM     19  C   UNL     1       5.945   4.577  18.519  0.00  0.00    +0.000 C 
BRANCH  19  20
ATOM     20  N   UNL     1       6.855   5.429  17.709  0.00  0.00    +0.000 NA
ATOM     21  C   UNL     1       6.168   6.632  17.173  0.00  0.00    +0.000 C 
ATOM     22  C   UNL     1       5.243   6.376  15.963  0.00  0.00    +0.000 C 
ATOM     23  O   UNL     1       5.877   5.605  14.932  0.00  0.00    +0.000 OA
ATOM     24  C   UNL     1       6.434   4.395  15.454  0.00  0.00    +0.000 C 
ATOM     25  C   UNL     1       7.456   4.725  16.550  0.00  0.00    +0.000 C 
ENDBRANCH  19  20
ENDBRANCH  18  19
ENDBRANCH   1  18
TORSDOF 8
ENDMDL
MODEL 5
REMARK VINA RESULT:      -5.9      3.639      8.187
REMARK  Name = 
REMARK  11 active torsions:
REMARK  status: ('A' for Active; 'I' for Inactive)
REMARK    1  A    between atoms: C_1  and  C_2
REMARK    2  A    between atoms: C_2  and  C_3
REMARK    3  A    between atoms: C_3  and  C_4
REMARK    4  A    between atoms: C_3  and  C_6
REMARK    5  A    between atoms: C_4  and  C_5
REMARK    6  A    between atoms: C_11  and  N_12
REMARK    7  A    between atoms: N_12  and  C_13
REMARK    8  A    between atoms: N_12  and  S_21
REMARK    9  A    between atoms: C_13  and  C_14
REMARK   10  A    between atoms: C_14  and  N_15
REMARK   11  A    between atoms: S_21  and  C_22
REMARK                            x       y       z     vdW  Elec       q    Type
REMARK                         _______ _______ _______ _____ _____    ______ ____
ROOT
ATOM      1  N   UNL     1       3.406   5.462  19.959  0.00  0.00    +0.000 NA
ENDROOT
BRANCH   1   7
ATOM      2  C   UNL     1       1.759   9.707  18.412  0.00  0.00    +0.000 C 
ATOM      3  O   UNL     1       2.319   9.677  17.318  0.00  0.00    +0.000 OA
ATOM      4  N   UNL     1       1.654   8.570  19.172  0.00  0.00    +0.000 N 
ATOM      5  C   UNL     1       1.020   8.353  20.451  0.00  0.00    +0.000 C 
ATOM      6  C   UNL     1       1.826   7.202  21.026  0.00  0.00    +0.000 C 
ATOM      7  C   UNL     1       2.126   6.297  19.814  0.00  0.00    +0.000 C 
ATOM      8  C   UNL     1       2.212   7.329  18.676  0.00  0.00    +0.000 C 
BRANCH   2   9
ATOM      9  C   UNL     1       1.207  11.014  18.988  0.00  0.00    +0.000 C 
BRANCH   9  11
ATOM     10  C   UNL     1       2.293  13.303  19.414  0.00  0.00    +0.000 C 
ATOM     11  C   UNL     1       2.065  12.168  18.427  0.00  0.00    +0.000 C 
ENDBRANCH   9  11
BRANCH   9  12
ATOM     12  C   UNL     1      -0.282  11.176  18.603  0.00  0.00    +0.000 C 
ATOM     13  C   UNL     1      -1.186  11.449  19.799  0.00  0.00    +0.000 C 
ENDBRANCH   9  12
ENDBRANCH   2   9
ENDBRANCH   1   7
BRANCH   1  14
ATOM     14  S   UNL     1       3.055   3.741  19.761  0.00  0.00    +0.000 S 
ATOM     15  C   UNL     1       2.276   3.281  21.299  0.00  0.00    +0.000 C 
ATOM     16  O   UNL     1       2.053   3.581  18.729  0.00  0.00    +0.000 OA
ATOM     17  O   UNL     1       4.331   3.066  19.663  0.00  0.00    +0.000 OA
ENDBRANCH   1  14
BRANCH   1  18
ATOM     18  C   UNL     1       4.463   5.852  18.931  0.00  0.00    +0.000 C 
BRANCH  18  19
ATOM     19  C   UNL     1       4.356   5.326  17.479  0.00  0.00    +0.000 C 
BRANCH  19  20
ATOM     20  N   UNL     1       5.290   6.040  16.569  0.00  0.00    +0.000 NA
ATOM     21  C   UNL     1       5.525   5.294  15.307  0.00  0.00    +0.000 C 
ATOM     22  C   UNL     1       6.479   4.085  15.426  0.00  0.00    +0.000 C 
ATOM     23  O   UNL     1       7.702   4.406  16.105  0.00  0.00    +0.000 OA
ATOM     24  C   UNL     1       7.448   5.024  17.370  0.00  0.00    +0.000 C 
ATOM     25  C   UNL     1       6.622   6.301  17.168  0.00  0.00    +0.000 C 
ENDBRANCH  19  20
ENDBRANCH  18  19
ENDBRANCH   1  18
TORSDOF 8
ENDMDL
MODEL 6
REMARK VINA RESULT:      -5.9      3.581      8.036
REMARK  Name = 
REMARK  11 active torsions:
REMARK  status: ('A' for Active; 'I' for Inactive)
REMARK    1  A    between atoms: C_1  and  C_2
REMARK    2  A    between atoms: C_2  and  C_3
REMARK    3  A    between atoms: C_3  and  C_4
REMARK    4  A    between atoms: C_3  and  C_6
REMARK    5  A    between atoms: C_4  and  C_5
REMARK    6  A    between atoms: C_11  and  N_12
REMARK    7  A    between atoms: N_12  and  C_13
REMARK    8  A    between atoms: N_12  and  S_21
REMARK    9  A    between atoms: C_13  and  C_14
REMARK   10  A    between atoms: C_14  and  N_15
REMARK   11  A    between atoms: S_21  and  C_22
REMARK                            x       y       z     vdW  Elec       q    Type
REMARK                         _______ _______ _______ _____ _____    ______ ____
ROOT
ATOM      1  N   UNL     1       2.736   5.342  20.200  0.00  0.00    +0.000 NA
ENDROOT
BRANCH   1   7
ATOM      2  C   UNL     1       1.631   9.685  18.457  0.00  0.00    +0.000 C 
ATOM      3  O   UNL     1       1.987   9.461  17.302  0.00  0.00    +0.000 OA
ATOM      4  N   UNL     1       1.455   8.654  19.344  0.00  0.00    +0.000 N 
ATOM      5  C   UNL     1       1.014   8.667  20.720  0.00  0.00    +0.000 C 
ATOM      6  C   UNL     1       1.688   7.432  21.292  0.00  0.00    +0.000 C 
ATOM      7  C   UNL     1       1.618   6.392  20.155  0.00  0.00    +0.000 C 
ATOM      8  C   UNL     1       1.695   7.294  18.911  0.00  0.00    +0.000 C 
BRANCH   2   9
ATOM      9  C   UNL     1       1.423  11.116  18.961  0.00  0.00    +0.000 C 
BRANCH   9  11
ATOM     10  C   UNL     1       2.017  13.490  18.181  0.00  0.00    +0.000 C 
ATOM     11  C   UNL     1       2.420  12.023  18.210  0.00  0.00    +0.000 C 
ENDBRANCH   9  11
BRANCH   9  12
ATOM     12  C   UNL     1      -0.039  11.556  18.716  0.00  0.00    +0.000 C 
ATOM     13  C   UNL     1      -0.873  11.611  19.992  0.00  0.00    +0.000 C 
ENDBRANCH   9  12
ENDBRANCH   2   9
ENDBRANCH   1   7
BRANCH   1  14
ATOM     14  S   UNL     1       2.103   3.778  20.727  0.00  0.00    +0.000 S 
ATOM     15  C   UNL     1       3.167   2.591  19.928  0.00  0.00    +0.000 C 
ATOM     16  O   UNL     1       2.324   3.636  22.150  0.00  0.00    +0.000 OA
ATOM     17  O   UNL     1       0.772   3.661  20.171  0.00  0.00    +0.000 OA
ENDBRANCH   1  14
BRANCH   1  18
ATOM     18  C   UNL     1       3.396   5.151  18.838  0.00  0.00    +0.000 C 
BRANCH  18  19
ATOM     19  C   UNL     1       4.648   5.983  18.466  0.00  0.00    +0.000 C 
BRANCH  19  20
ATOM     20  N   UNL     1       5.856   5.126  18.339  0.00  0.00    +0.000 NA
ATOM     21  C   UNL     1       7.108   5.878  18.602  0.00  0.00    +0.000 C 
ATOM     22  C   UNL     1       7.575   6.798  17.452  0.00  0.00    +0.000 C 
ATOM     23  O   UNL     1       7.595   6.132  16.181  0.00  0.00    +0.000 OA
ATOM     24  C   UNL     1       6.339   5.508  15.901  0.00  0.00    +0.000 C 
ATOM     25  C   UNL     1       6.004   4.497  17.004  0.00  0.00    +0.000 C 
ENDBRANCH  19  20
ENDBRANCH  18  19
ENDBRANCH   1  18
TORSDOF 8
ENDMDL
MODEL 7
REMARK VINA RESULT:      -5.9      3.766      8.123
REMARK  Name = 
REMARK  11 active torsions:
REMARK  status: ('A' for Active; 'I' for Inactive)
REMARK    1  A    between atoms: C_1  and  C_2
REMARK    2  A    between atoms: C_2  and  C_3
REMARK    3  A    between atoms: C_3  and  C_4
REMARK    4  A    between atoms: C_3  and  C_6
REMARK    5  A    between atoms: C_4  and  C_5
REMARK    6  A    between atoms: C_11  and  N_12
REMARK    7  A    between atoms: N_12  and  C_13
REMARK    8  A    between atoms: N_12  and  S_21
REMARK    9  A    between atoms: C_13  and  C_14
REMARK   10  A    between atoms: C_14  and  N_15
REMARK   11  A    between atoms: S_21  and  C_22
REMARK                            x       y       z     vdW  Elec       q    Type
REMARK                         _______ _______ _______ _____ _____    ______ ____
ROOT
ATOM      1  N   UNL     1       3.184   4.985  20.118  0.00  0.00    +0.000 NA
ENDROOT
BRANCH   1   7
ATOM      2  C   UNL     1       1.832   9.236  18.322  0.00  0.00    +0.000 C 
ATOM      3  O   UNL     1       2.290   9.057  17.196  0.00  0.00    +0.000 OA
ATOM      4  N   UNL     1       1.683   8.183  19.188  0.00  0.00    +0.000 N 
ATOM      5  C   UNL     1       1.143   8.141  20.527  0.00  0.00    +0.000 C 
ATOM      6  C   UNL     1       1.880   6.963  21.141  0.00  0.00    +0.000 C 
ATOM      7  C   UNL     1       1.984   5.934  19.997  0.00  0.00    +0.000 C 
ATOM      8  C   UNL     1       2.072   6.854  18.766  0.00  0.00    +0.000 C 
BRANCH   2   9
ATOM      9  C   UNL     1       1.463  10.637  18.817  0.00  0.00    +0.000 C 
BRANCH   9  11
ATOM     10  C   UNL     1       2.152  13.091  18.493  0.00  0.00    +0.000 C 
ATOM     11  C   UNL     1       2.337  11.648  18.045  0.00  0.00    +0.000 C 
ENDBRANCH   9  11
BRANCH   9  12
ATOM     12  C   UNL     1      -0.044  10.900  18.588  0.00  0.00    +0.000 C 
ATOM     13  C   UNL     1      -0.800  11.225  19.871  0.00  0.00    +0.000 C 
ENDBRANCH   9  12
ENDBRANCH   2   9
ENDBRANCH   1   7
BRANCH   1  14
ATOM     14  S   UNL     1       2.663   3.301  19.989  0.00  0.00    +0.000 S 
ATOM     15  C   UNL     1       1.249   3.203  21.071  0.00  0.00    +0.000 C 
ATOM     16  O   UNL     1       2.172   3.062  18.649  0.00  0.00    +0.000 OA
ATOM     17  O   UNL     1       3.730   2.493  20.540  0.00  0.00    +0.000 OA
ENDBRANCH   1  14
BRANCH   1  18
ATOM     18  C   UNL     1       4.229   5.243  19.037  0.00  0.00    +0.000 C 
BRANCH  18  19
ATOM     19  C   UNL     1       5.734   5.179  19.390  0.00  0.00    +0.000 C 
BRANCH  19  20
ATOM     20  N   UNL     1       6.570   4.950  18.182  0.00  0.00    +0.000 NA
ATOM     21  C   UNL     1       7.875   5.654  18.259  0.00  0.00    +0.000 C 
ATOM     22  C   UNL     1       7.816   7.175  17.995  0.00  0.00    +0.000 C 
ATOM     23  O   UNL     1       7.088   7.505  16.803  0.00  0.00    +0.000 OA
ATOM     24  C   UNL     1       5.790   6.904  16.804  0.00  0.00    +0.000 C 
ATOM     25  C   UNL     1       5.922   5.380  16.919  0.00  0.00    +0.000 C 
ENDBRANCH  19  20
ENDBRANCH  18  19
ENDBRANCH   1  18
TORSDOF 8
ENDMDL
MODEL 8
REMARK VINA RESULT:      -5.9      4.083      8.330
REMARK  Name = 
REMARK  11 active torsions:
REMARK  status: ('A' for Active; 'I' for Inactive)
REMARK    1  A    between atoms: C_1  and  C_2
REMARK    2  A    between atoms: C_2  and  C_3
REMARK    3  A    between atoms: C_3  and  C_4
REMARK    4  A    between atoms: C_3  and  C_6
REMARK    5  A    between atoms: C_4  and  C_5
REMARK    6  A    between atoms: C_11  and  N_12
REMARK    7  A    between atoms: N_12  and  C_13
REMARK    8  A    between atoms: N_12  and  S_21
REMARK    9  A    between atoms: C_13  and  C_14
REMARK   10  A    between atoms: C_14  and  N_15
REMARK   11  A    between atoms: S_21  and  C_22
REMARK                            x       y       z     vdW  Elec       q    Type
REMARK                         _______ _______ _______ _____ _____    ______ ____
ROOT
ATOM      1  N   UNL     1       3.574   4.163  18.859  0.00  0.00    +0.000 NA
ENDROOT
BRANCH   1   7
ATOM      2  C   UNL     1       1.890   8.638  18.348  0.00  0.00    +0.000 C 
ATOM      3  O   UNL     1       2.059   8.707  17.133  0.00  0.00    +0.000 OA
ATOM      4  N   UNL     1       1.940   7.427  18.991  0.00  0.00    +0.000 N 
ATOM      5  C   UNL     1       1.740   7.097  20.382  0.00  0.00    +0.000 C 
ATOM      6  C   UNL     1       2.586   5.846  20.547  0.00  0.00    +0.000 C 
ATOM      7  C   UNL     1       2.395   5.074  19.226  0.00  0.00    +0.000 C 
ATOM      8  C   UNL     1       2.196   6.226  18.225  0.00  0.00    +0.000 C 
BRANCH   2   9
ATOM      9  C   UNL     1       1.673   9.897  19.193  0.00  0.00    +0.000 C 
BRANCH   9  11
ATOM     10  C   UNL     1       1.998  12.441  19.061  0.00  0.00    +0.000 C 
ATOM     11  C   UNL     1       2.043  11.113  18.319  0.00  0.00    +0.000 C 
ENDBRANCH   9  11
BRANCH   9  12
ATOM     12  C   UNL     1       0.203   9.967  19.670  0.00  0.00    +0.000 C 
ATOM     13  C   UNL     1       0.067  10.263  21.159  0.00  0.00    +0.000 C 
ENDBRANCH   9  12
ENDBRANCH   2   9
ENDBRANCH   1   7
BRANCH   1  14
ATOM     14  S   UNL     1       3.504   2.651  19.773  0.00  0.00    +0.000 S 
ATOM     15  C   UNL     1       3.283   1.401  18.520  0.00  0.00    +0.000 C 
ATOM     16  O   UNL     1       4.796   2.405  20.375  0.00  0.00    +0.000 OA
ATOM     17  O   UNL     1       2.308   2.714  20.586  0.00  0.00    +0.000 OA
ENDBRANCH   1  14
BRANCH   1  18
ATOM     18  C   UNL     1       3.590   3.819  17.373  0.00  0.00    +0.000 C 
BRANCH  18  19
ATOM     19  C   UNL     1       4.929   3.821  16.596  0.00  0.00    +0.000 C 
BRANCH  19  20
ATOM     20  N   UNL     1       5.032   4.994  15.688  0.00  0.00    +0.000 NA
ATOM     21  C   UNL     1       6.058   4.799  14.633  0.00  0.00    +0.000 C 
ATOM     22  C   UNL     1       7.521   4.965  15.100  0.00  0.00    +0.000 C 
ATOM     23  O   UNL     1       7.732   6.170  15.850  0.00  0.00    +0.000 OA
ATOM     24  C   UNL     1       6.801   6.280  16.931  0.00  0.00    +0.000 C 
ATOM     25  C   UNL     1       5.368   6.260  16.386  0.00  0.00    +0.000 C 
ENDBRANCH  19  20
ENDBRANCH  18  19
ENDBRANCH   1  18
TORSDOF 8
ENDMDL
MODEL 9
REMARK VINA RESULT:      -5.8      3.239      8.361
REMARK  Name = 
REMARK  11 active torsions:
REMARK  status: ('A' for Active; 'I' for Inactive)
REMARK    1  A    between atoms: C_1  and  C_2
REMARK    2  A    between atoms: C_2  and  C_3
REMARK    3  A    between atoms: C_3  and  C_4
REMARK    4  A    between atoms: C_3  and  C_6
REMARK    5  A    between atoms: C_4  and  C_5
REMARK    6  A    between atoms: C_11  and  N_12
REMARK    7  A    between atoms: N_12  and  C_13
REMARK    8  A    between atoms: N_12  and  S_21
REMARK    9  A    between atoms: C_13  and  C_14
REMARK   10  A    between atoms: C_14  and  N_15
REMARK   11  A    between atoms: S_21  and  C_22
REMARK                            x       y       z     vdW  Elec       q    Type
REMARK                         _______ _______ _______ _____ _____    ______ ____
ROOT
ATOM      1  N   UNL     1       3.127   4.991  19.184  0.00  0.00    +0.000 NA
ENDROOT
BRANCH   1   7
ATOM      2  C   UNL     1       0.787   9.182  19.476  0.00  0.00    +0.000 C 
ATOM      3  O   UNL     1       0.347   9.011  20.611  0.00  0.00    +0.000 OA
ATOM      4  N   UNL     1       1.795   8.387  18.993  0.00  0.00    +0.000 N 
ATOM      5  C   UNL     1       2.489   8.420  17.726  0.00  0.00    +0.000 C 
ATOM      6  C   UNL     1       2.908   6.971  17.545  0.00  0.00    +0.000 C 
ATOM      7  C   UNL     1       3.292   6.500  18.962  0.00  0.00    +0.000 C 
ATOM      8  C   UNL     1       2.339   7.340  19.831  0.00  0.00    +0.000 C 
BRANCH   2   9
ATOM      9  C   UNL     1       0.195  10.244  18.545  0.00  0.00    +0.000 C 
BRANCH   9  11
ATOM     10  C   UNL     1      -2.091  10.002  17.400  0.00  0.00    +0.000 C 
ATOM     11  C   UNL     1      -1.339  10.202  18.708  0.00  0.00    +0.000 C 
ENDBRANCH   9  11
BRANCH   9  12
ATOM     12  C   UNL     1       0.765  11.637  18.902  0.00  0.00    +0.000 C 
ATOM     13  C   UNL     1      -0.102  12.405  19.894  0.00  0.00    +0.000 C 
ENDBRANCH   9  12
ENDBRANCH   2   9
ENDBRANCH   1   7
BRANCH   1  14
ATOM     14  S   UNL     1       2.252   4.253  17.836  0.00  0.00    +0.000 S 
ATOM     15  C   UNL     1       1.608   2.737  18.520  0.00  0.00    +0.000 C 
ATOM     16  O   UNL     1       1.107   5.076  17.511  0.00  0.00    +0.000 OA
ATOM     17  O   UNL     1       3.240   3.928  16.829  0.00  0.00    +0.000 OA
ENDBRANCH   1  14
BRANCH   1  18
ATOM     18  C   UNL     1       4.470   4.282  19.322  0.00  0.00    +0.000 C 
BRANCH  18  19
ATOM     19  C   UNL     1       5.748   5.104  19.618  0.00  0.00    +0.000 C 
BRANCH  19  20
ATOM     20  N   UNL     1       6.885   4.674  18.762  0.00  0.00    +0.000 NA
ATOM     21  C   UNL     1       8.048   5.592  18.870  0.00  0.00    +0.000 C 
ATOM     22  C   UNL     1       7.905   6.924  18.102  0.00  0.00    +0.000 C 
ATOM     23  O   UNL     1       7.478   6.741  16.744  0.00  0.00    +0.000 OA
ATOM     24  C   UNL     1       6.292   5.946  16.675  0.00  0.00    +0.000 C 
ATOM     25  C   UNL     1       6.544   4.578  17.322  0.00  0.00    +0.000 C 
ENDBRANCH  19  20
ENDBRANCH  18  19
ENDBRANCH   1  18
TORSDOF 8
ENDMDL
