MODEL 1
REMARK VINA RESULT:      -5.4      0.000      0.000
REMARK  Name = 
REMARK  10 active torsions:
REMARK  status: ('A' for Active; 'I' for Inactive)
REMARK    1  A    between atoms: C_1  and  C_2
REMARK    2  A    between atoms: C_2  and  C_3
REMARK    3  A    between atoms: C_3  and  C_4
REMARK    4  A    between atoms: C_4  and  C_5
REMARK    5  A    between atoms: C_5  and  N_6
REMARK    6  A    between atoms: C_7  and  C_9
REMARK    7  A    between atoms: C_9  and  N_10
REMARK    8  A    between atoms: C_9  and  C_11
REMARK    9  A    between atoms: C_11  and  C_12
REMARK   10  A    between atoms: C_12  and  N_13
REMARK                            x       y       z     vdW  Elec       q    Type
REMARK                         _______ _______ _______ _____ _____    ______ ____
ROOT
ATOM      1  N   UNL     1       5.694   3.952  13.866  0.00  0.00    +0.000 N 
ATOM      2  C   UNL     1       6.405   4.562  14.872  0.00  0.00    +0.000 C 
ATOM      3  O   UNL     1       7.584   4.913  14.739  0.00  0.00    +0.000 OA
ATOM      4  H   UNL     1       4.710   3.749  13.991  0.00  0.00    +0.000 HD
ENDROOT
BRANCH   1   5
ATOM      5  C   UNL     1       6.322   3.640  12.599  0.00  0.00    +0.000 C 
BRANCH   5   6
ATOM      6  C   UNL     1       5.411   2.863  11.648  0.00  0.00    +0.000 C 
BRANCH   6   7
ATOM      7  C   UNL     1       4.019   3.491  11.567  0.00  0.00    +0.000 C 
BRANCH   7   9
ATOM      8  C   UNL     1       2.854   4.314   9.497  0.00  0.00    +0.000 C 
ATOM      9  C   UNL     1       3.291   3.090  10.287  0.00  0.00    +0.000 C 
ENDBRANCH   7   9
ENDBRANCH   6   7
ENDBRANCH   5   6
ENDBRANCH   1   5
BRANCH   2  10
ATOM     10  C   UNL     1       5.645   4.781  16.189  0.00  0.00    +0.000 C 
BRANCH  10  11
ATOM     11  N   UNL     1       6.433   4.227  17.313  0.00  0.00    +0.000 NA
ATOM     12  H   UNL     1       6.459   3.214  17.247  0.00  0.00    +0.000 HD
ATOM     13  H   UNL     1       5.959   4.440  18.192  0.00  0.00    +0.000 HD
ENDBRANCH  10  11
BRANCH  10  14
ATOM     14  C   UNL     1       5.381   6.274  16.425  0.00  0.00    +0.000 C 
BRANCH  14  15
ATOM     15  C   UNL     1       6.364   6.888  17.427  0.00  0.00    +0.000 C 
BRANCH  15  16
ATOM     16  N   UNL     1       7.663   7.094  16.792  0.00  0.00    +0.000 NA
ATOM     17  H   UNL     1       8.374   7.246  17.508  0.00  0.00    +0.000 HD
ATOM     18  H   UNL     1       7.635   7.951  16.241  0.00  0.00    +0.000 HD
ENDBRANCH  15  16
ENDBRANCH  14  15
ENDBRANCH  10  14
ENDBRANCH   2  10
TORSDOF 9
ENDMDL
MODEL 2
REMARK VINA RESULT:      -5.4      3.940      6.185
REMARK  Name = 
REMARK  10 active torsions:
REMARK  status: ('A' for Active; 'I' for Inactive)
REMARK    1  A    between atoms: C_1  and  C_2
REMARK    2  A    between atoms: C_2  and  C_3
REMARK    3  A    between atoms: C_3  and  C_4
REMARK    4  A    between atoms: C_4  and  C_5
REMARK    5  A    between atoms: C_5  and  N_6
REMARK    6  A    between atoms: C_7  and  C_9
REMARK    7  A    between atoms: C_9  and  N_10
REMARK    8  A    between atoms: C_9  and  C_11
REMARK    9  A    between atoms: C_11  and  C_12
REMARK   10  A    between atoms: C_12  and  N_13
REMARK                            x       y       z     vdW  Elec       q    Type
REMARK                         _______ _______ _______ _____ _____    ______ ____
ROOT
ATOM      1  N   UNL     1       4.558   3.544  17.765  0.00  0.00    +0.000 N 
ATOM      2  C   UNL     1       5.668   4.240  18.185  0.00  0.00    +0.000 C 
ATOM      3  O   UNL     1       5.839   4.577  19.362  0.00  0.00    +0.000 OA
ATOM      4  H   UNL     1       4.492   3.224  16.807  0.00  0.00    +0.000 HD
ENDROOT
BRANCH   1   5
ATOM      5  C   UNL     1       3.496   3.215  18.692  0.00  0.00    +0.000 C 
BRANCH   5   6
ATOM      6  C   UNL     1       2.176   2.869  18.002  0.00  0.00    +0.000 C 
BRANCH   6   7
ATOM      7  C   UNL     1       1.089   2.514  19.019  0.00  0.00    +0.000 C 
BRANCH   7   9
ATOM      8  C   UNL     1       1.361   2.747  21.507  0.00  0.00    +0.000 C 
ATOM      9  C   UNL     1       1.085   3.478  20.202  0.00  0.00    +0.000 C 
ENDBRANCH   7   9
ENDBRANCH   6   7
ENDBRANCH   5   6
ENDBRANCH   1   5
BRANCH   2  10
ATOM     10  C   UNL     1       6.692   4.584  17.092  0.00  0.00    +0.000 C 
BRANCH  10  11
ATOM     11  N   UNL     1       8.037   4.133  17.514  0.00  0.00    +0.000 NA
ATOM     12  H   UNL     1       8.000   3.156  17.788  0.00  0.00    +0.000 HD
ATOM     13  H   UNL     1       8.319   4.650  18.348  0.00  0.00    +0.000 HD
ENDBRANCH  10  11
BRANCH  10  14
ATOM     14  C   UNL     1       6.314   3.919  15.761  0.00  0.00    +0.000 C 
BRANCH  14  15
ATOM     15  C   UNL     1       6.462   4.873  14.572  0.00  0.00    +0.000 C 
BRANCH  15  16
ATOM     16  N   UNL     1       7.779   5.504  14.598  0.00  0.00    +0.000 NA
ATOM     17  H   UNL     1       7.917   6.044  13.743  0.00  0.00    +0.000 HD
ATOM     18  H   UNL     1       8.497   4.781  14.590  0.00  0.00    +0.000 HD
ENDBRANCH  15  16
ENDBRANCH  14  15
ENDBRANCH  10  14
ENDBRANCH   2  10
TORSDOF 9
ENDMDL
MODEL 3
REMARK VINA RESULT:      -5.3      1.460      1.954
REMARK  Name = 
REMARK  10 active torsions:
REMARK  status: ('A' for Active; 'I' for Inactive)
REMARK    1  A    between atoms: C_1  and  C_2
REMARK    2  A    between atoms: C_2  and  C_3
REMARK    3  A    between atoms: C_3  and  C_4
REMARK    4  A    between atoms: C_4  and  C_5
REMARK    5  A    between atoms: C_5  and  N_6
REMARK    6  A    between atoms: C_7  and  C_9
REMARK    7  A    between atoms: C_9  and  N_10
REMARK    8  A    between atoms: C_9  and  C_11
REMARK    9  A    between atoms: C_11  and  C_12
REMARK   10  A    between atoms: C_12  and  N_13
REMARK                            x       y       z     vdW  Elec       q    Type
REMARK                         _______ _______ _______ _____ _____    ______ ____
ROOT
ATOM      1  N   UNL     1       6.318   3.976  14.862  0.00  0.00    +0.000 N 
ATOM      2  C   UNL     1       6.988   4.798  15.738  0.00  0.00    +0.000 C 
ATOM      3  O   UNL     1       7.648   5.775  15.366  0.00  0.00    +0.000 OA
ATOM      4  H   UNL     1       5.730   3.231  15.214  0.00  0.00    +0.000 HD
ENDROOT
BRANCH   1   5
ATOM      5  C   UNL     1       6.401   4.193  13.433  0.00  0.00    +0.000 C 
BRANCH   5   6
ATOM      6  C   UNL     1       5.881   3.013  12.611  0.00  0.00    +0.000 C 
BRANCH   6   7
ATOM      7  C   UNL     1       5.288   3.477  11.279  0.00  0.00    +0.000 C 
BRANCH   7   9
ATOM      8  C   UNL     1       3.190   3.779   9.928  0.00  0.00    +0.000 C 
ATOM      9  C   UNL     1       3.786   3.214  11.207  0.00  0.00    +0.000 C 
ENDBRANCH   7   9
ENDBRANCH   6   7
ENDBRANCH   5   6
ENDBRANCH   1   5
BRANCH   2  10
ATOM     10  C   UNL     1       6.874   4.424  17.224  0.00  0.00    +0.000 C 
BRANCH  10  11
ATOM     11  N   UNL     1       8.217   4.108  17.761  0.00  0.00    +0.000 NA
ATOM     12  H   UNL     1       8.823   3.801  17.006  0.00  0.00    +0.000 HD
ATOM     13  H   UNL     1       8.144   3.319  18.404  0.00  0.00    +0.000 HD
ENDBRANCH  10  11
BRANCH  10  14
ATOM     14  C   UNL     1       6.248   5.572  18.028  0.00  0.00    +0.000 C 
BRANCH  14  15
ATOM     15  C   UNL     1       5.322   5.067  19.139  0.00  0.00    +0.000 C 
BRANCH  15  16
ATOM     16  N   UNL     1       5.442   3.617  19.270  0.00  0.00    +0.000 NA
ATOM     17  H   UNL     1       6.410   3.372  19.482  0.00  0.00    +0.000 HD
ATOM     18  H   UNL     1       5.234   3.182  18.372  0.00  0.00    +0.000 HD
ENDBRANCH  15  16
ENDBRANCH  14  15
ENDBRANCH  10  14
ENDBRANCH   2  10
TORSDOF 9
ENDMDL
MODEL 4
REMARK VINA RESULT:      -5.2      1.571      2.556
REMARK  Name = 
REMARK  10 active torsions:
REMARK  status: ('A' for Active; 'I' for Inactive)
REMARK    1  A    between atoms: C_1  and  C_2
REMARK    2  A    between atoms: C_2  and  C_3
REMARK    3  A    between atoms: C_3  and  C_4
REMARK    4  A    between atoms: C_4  and  C_5
REMARK    5  A    between atoms: C_5  and  N_6
REMARK    6  A    between atoms: C_7  and  C_9
REMARK    7  A    between atoms: C_9  and  N_10
REMARK    8  A    between atoms: C_9  and  C_11
REMARK    9  A    between atoms: C_11  and  C_12
REMARK   10  A    between atoms: C_12  and  N_13
REMARK                            x       y       z     vdW  Elec       q    Type
REMARK                         _______ _______ _______ _____ _____    ______ ____
ROOT
ATOM      1  N   UNL     1       6.811   5.593  15.215  0.00  0.00    +0.000 N 
ATOM      2  C   UNL     1       7.206   5.238  16.483  0.00  0.00    +0.000 C 
ATOM      3  O   UNL     1       7.903   4.242  16.713  0.00  0.00    +0.000 OA
ATOM      4  H   UNL     1       6.304   6.455  15.064  0.00  0.00    +0.000 HD
ENDROOT
BRANCH   1   5
ATOM      5  C   UNL     1       7.157   4.770  14.074  0.00  0.00    +0.000 C 
BRANCH   5   6
ATOM      6  C   UNL     1       6.036   3.820  13.652  0.00  0.00    +0.000 C 
BRANCH   6   7
ATOM      7  C   UNL     1       6.131   3.468  12.166  0.00  0.00    +0.000 C 
BRANCH   7   9
ATOM      8  C   UNL     1       3.940   3.389  10.935  0.00  0.00    +0.000 C 
ATOM      9  C   UNL     1       4.968   2.587  11.718  0.00  0.00    +0.000 C 
ENDBRANCH   7   9
ENDBRANCH   6   7
ENDBRANCH   5   6
ENDBRANCH   1   5
BRANCH   2  10
ATOM     10  C   UNL     1       6.721   6.157  17.615  0.00  0.00    +0.000 C 
BRANCH  10  11
ATOM     11  N   UNL     1       6.919   7.571  17.224  0.00  0.00    +0.000 NA
ATOM     12  H   UNL     1       6.076   7.925  16.783  0.00  0.00    +0.000 HD
ATOM     13  H   UNL     1       7.653   7.624  16.516  0.00  0.00    +0.000 HD
ENDBRANCH  10  11
BRANCH  10  14
ATOM     14  C   UNL     1       5.239   5.905  17.924  0.00  0.00    +0.000 C 
BRANCH  14  15
ATOM     15  C   UNL     1       5.043   5.068  19.191  0.00  0.00    +0.000 C 
BRANCH  15  16
ATOM     16  N   UNL     1       5.606   3.733  19.002  0.00  0.00    +0.000 NA
ATOM     17  H   UNL     1       4.870   3.034  19.105  0.00  0.00    +0.000 HD
ATOM     18  H   UNL     1       6.277   3.544  19.745  0.00  0.00    +0.000 HD
ENDBRANCH  15  16
ENDBRANCH  14  15
ENDBRANCH  10  14
ENDBRANCH   2  10
TORSDOF 9
ENDMDL
MODEL 5
REMARK VINA RESULT:      -5.2      4.923      6.351
REMARK  Name = 
REMARK  10 active torsions:
REMARK  status: ('A' for Active; 'I' for Inactive)
REMARK    1  A    between atoms: C_1  and  C_2
REMARK    2  A    between atoms: C_2  and  C_3
REMARK    3  A    between atoms: C_3  and  C_4
REMARK    4  A    between atoms: C_4  and  C_5
REMARK    5  A    between atoms: C_5  and  N_6
REMARK    6  A    between atoms: C_7  and  C_9
REMARK    7  A    between atoms: C_9  and  N_10
REMARK    8  A    between atoms: C_9  and  C_11
REMARK    9  A    between atoms: C_11  and  C_12
REMARK   10  A    between atoms: C_12  and  N_13
REMARK                            x       y       z     vdW  Elec       q    Type
REMARK                         _______ _______ _______ _____ _____    ______ ____
ROOT
ATOM      1  N   UNL     1       3.716   3.288  18.076  0.00  0.00    +0.000 N 
ATOM      2  C   UNL     1       4.664   3.632  19.010  0.00  0.00    +0.000 C 
ATOM      3  O   UNL     1       5.074   2.843  19.869  0.00  0.00    +0.000 OA
ATOM      4  H   UNL     1       3.463   3.940  17.345  0.00  0.00    +0.000 HD
ENDROOT
BRANCH   1   5
ATOM      5  C   UNL     1       3.104   1.975  18.090  0.00  0.00    +0.000 C 
BRANCH   5   6
ATOM      6  C   UNL     1       1.897   1.880  19.023  0.00  0.00    +0.000 C 
BRANCH   6   7
ATOM      7  C   UNL     1       1.057   3.158  18.984  0.00  0.00    +0.000 C 
BRANCH   7   9
ATOM      8  C   UNL     1       1.591   2.937  21.430  0.00  0.00    +0.000 C 
ATOM      9  C   UNL     1       0.949   3.807  20.361  0.00  0.00    +0.000 C 
ENDBRANCH   7   9
ENDBRANCH   6   7
ENDBRANCH   5   6
ENDBRANCH   1   5
BRANCH   2  10
ATOM     10  C   UNL     1       5.188   5.074  18.928  0.00  0.00    +0.000 C 
BRANCH  10  11
ATOM     11  N   UNL     1       6.523   5.153  19.563  0.00  0.00    +0.000 NA
ATOM     12  H   UNL     1       7.213   5.441  18.876  0.00  0.00    +0.000 HD
ATOM     13  H   UNL     1       6.804   4.222  19.872  0.00  0.00    +0.000 HD
ENDBRANCH  10  11
BRANCH  10  14
ATOM     14  C   UNL     1       5.279   5.539  17.468  0.00  0.00    +0.000 C 
BRANCH  14  15
ATOM     15  C   UNL     1       6.205   6.748  17.299  0.00  0.00    +0.000 C 
BRANCH  15  16
ATOM     16  N   UNL     1       7.412   6.356  16.576  0.00  0.00    +0.000 NA
ATOM     17  H   UNL     1       7.299   5.410  16.210  0.00  0.00    +0.000 HD
ATOM     18  H   UNL     1       8.194   6.312  17.228  0.00  0.00    +0.000 HD
ENDBRANCH  15  16
ENDBRANCH  14  15
ENDBRANCH  10  14
ENDBRANCH   2  10
TORSDOF 9
ENDMDL
MODEL 6
REMARK VINA RESULT:      -5.2      1.520      1.632
REMARK  Name = 
REMARK  10 active torsions:
REMARK  status: ('A' for Active; 'I' for Inactive)
REMARK    1  A    between atoms: C_1  and  C_2
REMARK    2  A    between atoms: C_2  and  C_3
REMARK    3  A    between atoms: C_3  and  C_4
REMARK    4  A    between atoms: C_4  and  C_5
REMARK    5  A    between atoms: C_5  and  N_6
REMARK    6  A    between atoms: C_7  and  C_9
REMARK    7  A    between atoms: C_9  and  N_10
REMARK    8  A    between atoms: C_9  and  C_11
REMARK    9  A    between atoms: C_11  and  C_12
REMARK   10  A    between atoms: C_12  and  N_13
REMARK                            x       y       z     vdW  Elec       q    Type
REMARK                         _______ _______ _______ _____ _____    ______ ____
ROOT
ATOM      1  N   UNL     1       6.409   3.718  14.448  0.00  0.00    +0.000 N 
ATOM      2  C   UNL     1       6.033   4.808  15.198  0.00  0.00    +0.000 C 
ATOM      3  O   UNL     1       5.748   5.900  14.693  0.00  0.00    +0.000 OA
ATOM      4  H   UNL     1       6.563   2.823  14.896  0.00  0.00    +0.000 HD
ENDROOT
BRANCH   1   5
ATOM      5  C   UNL     1       6.539   3.818  13.010  0.00  0.00    +0.000 C 
BRANCH   5   6
ATOM      6  C   UNL     1       5.506   2.987  12.249  0.00  0.00    +0.000 C 
BRANCH   6   7
ATOM      7  C   UNL     1       4.403   3.868  11.658  0.00  0.00    +0.000 C 
BRANCH   7   9
ATOM      8  C   UNL     1       2.942   4.041   9.620  0.00  0.00    +0.000 C 
ATOM      9  C   UNL     1       3.546   3.103  10.654  0.00  0.00    +0.000 C 
ENDBRANCH   7   9
ENDBRANCH   6   7
ENDBRANCH   5   6
ENDBRANCH   1   5
BRANCH   2  10
ATOM     10  C   UNL     1       5.995   4.591  16.718  0.00  0.00    +0.000 C 
BRANCH  10  11
ATOM     11  N   UNL     1       5.296   3.321  17.020  0.00  0.00    +0.000 NA
ATOM     12  H   UNL     1       5.978   2.584  17.177  0.00  0.00    +0.000 HD
ATOM     13  H   UNL     1       4.752   3.035  16.205  0.00  0.00    +0.000 HD
ENDBRANCH  10  11
BRANCH  10  14
ATOM     14  C   UNL     1       7.415   4.554  17.300  0.00  0.00    +0.000 C 
BRANCH  14  15
ATOM     15  C   UNL     1       7.571   5.475  18.514  0.00  0.00    +0.000 C 
BRANCH  15  16
ATOM     16  N   UNL     1       6.611   5.102  19.551  0.00  0.00    +0.000 NA
ATOM     17  H   UNL     1       5.756   5.646  19.437  0.00  0.00    +0.000 HD
ATOM     18  H   UNL     1       6.987   5.359  20.463  0.00  0.00    +0.000 HD
ENDBRANCH  15  16
ENDBRANCH  14  15
ENDBRANCH  10  14
ENDBRANCH   2  10
TORSDOF 9
ENDMDL
MODEL 7
REMARK VINA RESULT:      -5.2      3.403      5.679
REMARK  Name = 
REMARK  10 active torsions:
REMARK  status: ('A' for Active; 'I' for Inactive)
REMARK    1  A    between atoms: C_1  and  C_2
REMARK    2  A    between atoms: C_2  and  C_3
REMARK    3  A    between atoms: C_3  and  C_4
REMARK    4  A    between atoms: C_4  and  C_5
REMARK    5  A    between atoms: C_5  and  N_6
REMARK    6  A    between atoms: C_7  and  C_9
REMARK    7  A    between atoms: C_9  and  N_10
REMARK    8  A    between atoms: C_9  and  C_11
REMARK    9  A    between atoms: C_11  and  C_12
REMARK   10  A    between atoms: C_12  and  N_13
REMARK                            x       y       z     vdW  Elec       q    Type
REMARK                         _______ _______ _______ _____ _____    ______ ____
ROOT
ATOM      1  N   UNL     1       4.616   5.537  18.214  0.00  0.00    +0.000 N 
ATOM      2  C   UNL     1       5.812   4.864  18.296  0.00  0.00    +0.000 C 
ATOM      3  O   UNL     1       6.201   4.315  19.334  0.00  0.00    +0.000 OA
ATOM      4  H   UNL     1       4.302   5.908  17.327  0.00  0.00    +0.000 HD
ENDROOT
BRANCH   1   5
ATOM      5  C   UNL     1       3.765   5.679  19.378  0.00  0.00    +0.000 C 
BRANCH   5   6
ATOM      6  C   UNL     1       2.369   5.087  19.182  0.00  0.00    +0.000 C 
BRANCH   6   7
ATOM      7  C   UNL     1       2.221   4.447  17.801  0.00  0.00    +0.000 C 
BRANCH   7   9
ATOM      8  C   UNL     1       0.986   2.669  19.079  0.00  0.00    +0.000 C 
ATOM      9  C   UNL     1       1.901   2.958  17.899  0.00  0.00    +0.000 C 
ENDBRANCH   7   9
ENDBRANCH   6   7
ENDBRANCH   5   6
ENDBRANCH   1   5
BRANCH   2  10
ATOM     10  C   UNL     1       6.653   4.839  17.010  0.00  0.00    +0.000 C 
BRANCH  10  11
ATOM     11  N   UNL     1       7.947   4.171  17.277  0.00  0.00    +0.000 NA
ATOM     12  H   UNL     1       7.787   3.195  17.506  0.00  0.00    +0.000 HD
ATOM     13  H   UNL     1       8.377   4.589  18.103  0.00  0.00    +0.000 HD
ENDBRANCH  10  11
BRANCH  10  14
ATOM     14  C   UNL     1       5.909   4.104  15.887  0.00  0.00    +0.000 C 
BRANCH  14  15
ATOM     15  C   UNL     1       6.609   4.251  14.532  0.00  0.00    +0.000 C 
BRANCH  15  16
ATOM     16  N   UNL     1       7.501   5.408  14.553  0.00  0.00    +0.000 NA
ATOM     17  H   UNL     1       6.949   6.263  14.619  0.00  0.00    +0.000 HD
ATOM     18  H   UNL     1       7.997   5.464  13.664  0.00  0.00    +0.000 HD
ENDBRANCH  15  16
ENDBRANCH  14  15
ENDBRANCH  10  14
ENDBRANCH   2  10
TORSDOF 9
ENDMDL
MODEL 8
REMARK VINA RESULT:      -5.1      5.434      7.118
REMARK  Name = 
REMARK  10 active torsions:
REMARK  status: ('A' for Active; 'I' for Inactive)
REMARK    1  A    between atoms: C_1  and  C_2
REMARK    2  A    between atoms: C_2  and  C_3
REMARK    3  A    between atoms: C_3  and  C_4
REMARK    4  A    between atoms: C_4  and  C_5
REMARK    5  A    between atoms: C_5  and  N_6
REMARK    6  A    between atoms: C_7  and  C_9
REMARK    7  A    between atoms: C_9  and  N_10
REMARK    8  A    between atoms: C_9  and  C_11
REMARK    9  A    between atoms: C_11  and  C_12
REMARK   10  A    between atoms: C_12  and  N_13
REMARK                            x       y       z     vdW  Elec       q    Type
REMARK                         _______ _______ _______ _____ _____    ______ ____
ROOT
ATOM      1  N   UNL     1       4.620   4.330  18.170  0.00  0.00    +0.000 N 
ATOM      2  C   UNL     1       4.067   3.376  18.992  0.00  0.00    +0.000 C 
ATOM      3  O   UNL     1       4.743   2.678  19.756  0.00  0.00    +0.000 OA
ATOM      4  H   UNL     1       4.023   4.930  17.615  0.00  0.00    +0.000 HD
ENDROOT
BRANCH   1   5
ATOM      5  C   UNL     1       6.054   4.526  18.125  0.00  0.00    +0.000 C 
BRANCH   5   6
ATOM      6  C   UNL     1       6.570   5.470  19.212  0.00  0.00    +0.000 C 
BRANCH   6   7
ATOM      7  C   UNL     1       7.796   6.252  18.739  0.00  0.00    +0.000 C 
BRANCH   7   9
ATOM      8  C   UNL     1       7.996   8.567  17.780  0.00  0.00    +0.000 C 
ATOM      9  C   UNL     1       7.467   7.159  17.557  0.00  0.00    +0.000 C 
ENDBRANCH   7   9
ENDBRANCH   6   7
ENDBRANCH   5   6
ENDBRANCH   1   5
BRANCH   2  10
ATOM     10  C   UNL     1       2.541   3.221  18.900  0.00  0.00    +0.000 C 
BRANCH  10  11
ATOM     11  N   UNL     1       2.189   1.783  18.891  0.00  0.00    +0.000 NA
ATOM     12  H   UNL     1       2.552   1.347  18.049  0.00  0.00    +0.000 HD
ATOM     13  H   UNL     1       1.173   1.686  18.844  0.00  0.00    +0.000 HD
ENDBRANCH  10  11
BRANCH  10  14
ATOM     14  C   UNL     1       1.850   3.918  20.080  0.00  0.00    +0.000 C 
BRANCH  14  15
ATOM     15  C   UNL     1       1.370   2.924  21.143  0.00  0.00    +0.000 C 
BRANCH  15  16
ATOM     16  N   UNL     1       2.468   2.590  22.047  0.00  0.00    +0.000 NA
ATOM     17  H   UNL     1       3.359   2.771  21.584  0.00  0.00    +0.000 HD
ATOM     18  H   UNL     1       2.451   1.588  22.237  0.00  0.00    +0.000 HD
ENDBRANCH  15  16
ENDBRANCH  14  15
ENDBRANCH  10  14
ENDBRANCH   2  10
TORSDOF 9
ENDMDL
MODEL 9
REMARK VINA RESULT:      -5.1      3.875      6.113
REMARK  Name = 
REMARK  10 active torsions:
REMARK  status: ('A' for Active; 'I' for Inactive)
REMARK    1  A    between atoms: C_1  and  C_2
REMARK    2  A    between atoms: C_2  and  C_3
REMARK    3  A    between atoms: C_3  and  C_4
REMARK    4  A    between atoms: C_4  and  C_5
REMARK    5  A    between atoms: C_5  and  N_6
REMARK    6  A    between atoms: C_7  and  C_9
REMARK    7  A    between atoms: C_9  and  N_10
REMARK    8  A    between atoms: C_9  and  C_11
REMARK    9  A    between atoms: C_11  and  C_12
REMARK   10  A    between atoms: C_12  and  N_13
REMARK                            x       y       z     vdW  Elec       q    Type
REMARK                         _______ _______ _______ _____ _____    ______ ____
ROOT
ATOM      1  N   UNL     1       4.028   5.337  19.087  0.00  0.00    +0.000 N 
ATOM      2  C   UNL     1       5.086   4.488  18.860  0.00  0.00    +0.000 C 
ATOM      3  O   UNL     1       5.261   3.448  19.506  0.00  0.00    +0.000 OA
ATOM      4  H   UNL     1       3.882   6.138  18.487  0.00  0.00    +0.000 HD
ENDROOT
BRANCH   1   5
ATOM      5  C   UNL     1       3.081   5.070  20.150  0.00  0.00    +0.000 C 
BRANCH   5   6
ATOM      6  C   UNL     1       1.691   4.689  19.640  0.00  0.00    +0.000 C 
BRANCH   6   7
ATOM      7  C   UNL     1       1.334   3.249  20.011  0.00  0.00    +0.000 C 
BRANCH   7   9
ATOM      8  C   UNL     1       2.248   2.276  17.880  0.00  0.00    +0.000 C 
ATOM      9  C   UNL     1       1.026   2.407  18.776  0.00  0.00    +0.000 C 
ENDBRANCH   7   9
ENDBRANCH   6   7
ENDBRANCH   5   6
ENDBRANCH   1   5
BRANCH   2  10
ATOM     10  C   UNL     1       6.056   4.915  17.747  0.00  0.00    +0.000 C 
BRANCH  10  11
ATOM     11  N   UNL     1       7.377   4.285  17.972  0.00  0.00    +0.000 NA
ATOM     12  H   UNL     1       7.753   3.954  17.089  0.00  0.00    +0.000 HD
ATOM     13  H   UNL     1       7.259   3.457  18.557  0.00  0.00    +0.000 HD
ENDBRANCH  10  11
BRANCH  10  14
ATOM     14  C   UNL     1       5.515   4.511  16.368  0.00  0.00    +0.000 C 
BRANCH  14  15
ATOM     15  C   UNL     1       6.637   4.211  15.369  0.00  0.00    +0.000 C 
BRANCH  15  16
ATOM     16  N   UNL     1       7.383   5.432  15.072  0.00  0.00    +0.000 NA
ATOM     17  H   UNL     1       8.242   5.449  15.622  0.00  0.00    +0.000 HD
ATOM     18  H   UNL     1       6.840   6.238  15.377  0.00  0.00    +0.000 HD
ENDBRANCH  15  16
ENDBRANCH  14  15
ENDBRANCH  10  14
ENDBRANCH   2  10
TORSDOF 9
ENDMDL
