MODEL 1
REMARK VINA RESULT:      -8.2      0.000      0.000
REMARK  Name = 
REMARK  18 active torsions:
REMARK  status: ('A' for Active; 'I' for Inactive)
REMARK    1  A    between atoms: C_1  and  C_2
REMARK    2  A    between atoms: C_2  and  C_3
REMARK    3  A    between atoms: C_3  and  C_4
REMARK    4  A    between atoms: C_4  and  C_5
REMARK    5  A    between atoms: C_5  and  C_6
REMARK    6  A    between atoms: C_5  and  O_30
REMARK    7  A    between atoms: C_6  and  C_7
REMARK    8  A    between atoms: C_7  and  O_9
REMARK    9  A    between atoms: O_9  and  C_10
REMARK   10  A    between atoms: C_10  and  C_11
REMARK   11  A    between atoms: C_10  and  C_16
REMARK   12  A    between atoms: C_11  and  C_12
REMARK   13  A    between atoms: C_13  and  C_14
REMARK   14  A    between atoms: C_13  and  C_15
REMARK   15  A    between atoms: C_21  and  O_22
REMARK   16  A    between atoms: C_25  and  O_26
REMARK   17  A    between atoms: O_30  and  C_31
REMARK   18  A    between atoms: C_31  and  C_32
REMARK                            x       y       z     vdW  Elec       q    Type
REMARK                         _______ _______ _______ _____ _____    ______ ____
ROOT
ATOM      1  C   UNL     1       2.487   6.416  19.098  0.00  0.00    +0.000 C 
ENDROOT
BRANCH   1   2
ATOM      2  C   UNL     1       1.980   7.673  19.774  0.00  0.00    +0.000 C 
ATOM      3  C   UNL     1       1.948   7.839  21.105  0.00  0.00    +0.000 C 
ATOM      4  C   UNL     1       1.371   9.039  21.736  0.00  0.00    +0.000 C 
ATOM      5  O   UNL     1       1.519   9.263  22.932  0.00  0.00    +0.000 OA
ATOM      6  C   UNL     1       0.527   9.907  20.908  0.00  0.00    +0.000 A 
ATOM      7  C   UNL     1      -0.279  10.899  21.477  0.00  0.00    +0.000 A 
ATOM      8  C   UNL     1      -1.144  11.646  20.680  0.00  0.00    +0.000 A 
ATOM      9  C   UNL     1      -1.231  11.398  19.312  0.00  0.00    +0.000 A 
ATOM     10  C   UNL     1      -0.418  10.426  18.738  0.00  0.00    +0.000 A 
ATOM     11  C   UNL     1       0.489   9.707  19.525  0.00  0.00    +0.000 A 
ATOM     12  C   UNL     1       1.471   8.794  18.932  0.00  0.00    +0.000 C 
ATOM     13  O   UNL     1       1.902   9.023  17.811  0.00  0.00    +0.000 OA
BRANCH   7  14
ATOM     14  O   UNL     1      -0.285  11.166  22.816  0.00  0.00    +0.000 OA
ATOM     15  H   UNL     1      -0.329  10.320  23.308  0.00  0.00    +0.000 HD
ENDBRANCH   7  14
BRANCH  10  16
ATOM     16  O   UNL     1      -0.555  10.137  17.411  0.00  0.00    +0.000 OA
ATOM     17  H   UNL     1       0.219   9.659  17.084  0.00  0.00    +0.000 HD
ENDBRANCH  10  16
ENDBRANCH   1   2
BRANCH   1  18
ATOM     18  O   UNL     1       3.743   6.653  18.402  0.00  0.00    +0.000 OA
BRANCH  18  19
ATOM     19  C   UNL     1       4.763   5.778  18.624  0.00  0.00    +0.000 C 
ATOM     20  O   UNL     1       5.195   5.478  19.727  0.00  0.00    +0.000 OA
BRANCH  19  21
ATOM     21  C   UNL     1       5.149   5.125  17.319  0.00  0.00    +0.000 C 
BRANCH  21  22
ATOM     22  C   UNL     1       6.313   5.772  16.569  0.00  0.00    +0.000 C 
BRANCH  22  23
ATOM     23  C   UNL     1       6.448   7.256  16.989  0.00  0.00    +0.000 C 
BRANCH  23  24
ATOM     24  C   UNL     1       7.754   7.658  17.685  0.00  0.00    +0.000 C 
BRANCH  24  26
ATOM     25  C   UNL     1       9.010   9.473  18.858  0.00  0.00    +0.000 C 
ATOM     26  C   UNL     1       8.008   9.163  17.753  0.00  0.00    +0.000 C 
ENDBRANCH  24  26
ENDBRANCH  23  24
ENDBRANCH  22  23
BRANCH  22  27
ATOM     27  O   UNL     1       6.023   5.738  15.145  0.00  0.00    +0.000 OA
BRANCH  27  28
ATOM     28  C   UNL     1       6.930   5.103  14.349  0.00  0.00    +0.000 C 
ATOM     29  C   UNL     1       6.298   3.983  13.573  0.00  0.00    +0.000 C 
ATOM     30  O   UNL     1       8.107   5.418  14.238  0.00  0.00    +0.000 OA
ENDBRANCH  27  28
ENDBRANCH  22  27
ENDBRANCH  21  22
ENDBRANCH  19  21
ENDBRANCH  18  19
ENDBRANCH   1  18
BRANCH   1  31
ATOM     31  C   UNL     1       1.564   5.731  18.055  0.00  0.00    +0.000 C 
BRANCH  31  32
ATOM     32  C   UNL     1       1.600   4.218  18.061  0.00  0.00    +0.000 C 
ATOM     33  C   UNL     1       1.355   3.434  19.127  0.00  0.00    +0.000 C 
ATOM     34  C   UNL     1       0.892   3.947  20.462  0.00  0.00    +0.000 C 
ATOM     35  C   UNL     1       1.533   1.942  19.048  0.00  0.00    +0.000 C 
ENDBRANCH  31  32
ENDBRANCH   1  31
TORSDOF 14
ENDMDL
MODEL 2
REMARK VINA RESULT:      -8.0      0.966      2.694
REMARK  Name = 
REMARK  18 active torsions:
REMARK  status: ('A' for Active; 'I' for Inactive)
REMARK    1  A    between atoms: C_1  and  C_2
REMARK    2  A    between atoms: C_2  and  C_3
REMARK    3  A    between atoms: C_3  and  C_4
REMARK    4  A    between atoms: C_4  and  C_5
REMARK    5  A    between atoms: C_5  and  C_6
REMARK    6  A    between atoms: C_5  and  O_30
REMARK    7  A    between atoms: C_6  and  C_7
REMARK    8  A    between atoms: C_7  and  O_9
REMARK    9  A    between atoms: O_9  and  C_10
REMARK   10  A    between atoms: C_10  and  C_11
REMARK   11  A    between atoms: C_10  and  C_16
REMARK   12  A    between atoms: C_11  and  C_12
REMARK   13  A    between atoms: C_13  and  C_14
REMARK   14  A    between atoms: C_13  and  C_15
REMARK   15  A    between atoms: C_21  and  O_22
REMARK   16  A    between atoms: C_25  and  O_26
REMARK   17  A    between atoms: O_30  and  C_31
REMARK   18  A    between atoms: C_31  and  C_32
REMARK                            x       y       z     vdW  Elec       q    Type
REMARK                         _______ _______ _______ _____ _____    ______ ____
ROOT
ATOM      1  C   UNL     1       2.472   6.368  19.207  0.00  0.00    +0.000 C 
ENDROOT
BRANCH   1   2
ATOM      2  C   UNL     1       1.979   7.645  19.858  0.00  0.00    +0.000 C 
ATOM      3  C   UNL     1       1.891   7.816  21.186  0.00  0.00    +0.000 C 
ATOM      4  C   UNL     1       1.330   9.038  21.787  0.00  0.00    +0.000 C 
ATOM      5  O   UNL     1       1.430   9.260  22.989  0.00  0.00    +0.000 OA
ATOM      6  C   UNL     1       0.557   9.933  20.919  0.00  0.00    +0.000 A 
ATOM      7  C   UNL     1      -0.238  10.955  21.449  0.00  0.00    +0.000 A 
ATOM      8  C   UNL     1      -1.038  11.731  20.612  0.00  0.00    +0.000 A 
ATOM      9  C   UNL     1      -1.070  11.483  19.242  0.00  0.00    +0.000 A 
ATOM     10  C   UNL     1      -0.267  10.480  18.708  0.00  0.00    +0.000 A 
ATOM     11  C   UNL     1       0.576   9.731  19.537  0.00  0.00    +0.000 A 
ATOM     12  C   UNL     1       1.550   8.781  18.991  0.00  0.00    +0.000 C 
ATOM     13  O   UNL     1       2.041   8.991  17.891  0.00  0.00    +0.000 OA
BRANCH   7  14
ATOM     14  O   UNL     1      -0.297  11.227  22.786  0.00  0.00    +0.000 OA
ATOM     15  H   UNL     1       0.506  11.726  23.044  0.00  0.00    +0.000 HD
ENDBRANCH   7  14
BRANCH  10  16
ATOM     16  O   UNL     1      -0.352  10.192  17.376  0.00  0.00    +0.000 OA
ATOM     17  H   UNL     1      -0.654  10.963  16.879  0.00  0.00    +0.000 HD
ENDBRANCH  10  16
ENDBRANCH   1   2
BRANCH   1  18
ATOM     18  O   UNL     1       3.846   6.497  18.749  0.00  0.00    +0.000 OA
BRANCH  18  19
ATOM     19  C   UNL     1       4.616   5.374  18.734  0.00  0.00    +0.000 C 
ATOM     20  O   UNL     1       4.875   4.696  19.717  0.00  0.00    +0.000 OA
BRANCH  19  21
ATOM     21  C   UNL     1       4.946   5.017  17.306  0.00  0.00    +0.000 C 
BRANCH  21  22
ATOM     22  C   UNL     1       5.665   6.098  16.499  0.00  0.00    +0.000 C 
BRANCH  22  23
ATOM     23  C   UNL     1       5.492   5.826  14.984  0.00  0.00    +0.000 C 
BRANCH  23  24
ATOM     24  C   UNL     1       6.539   4.922  14.322  0.00  0.00    +0.000 C 
BRANCH  24  26
ATOM     25  C   UNL     1       6.367   3.469  12.296  0.00  0.00    +0.000 C 
ATOM     26  C   UNL     1       5.993   3.609  13.767  0.00  0.00    +0.000 C 
ENDBRANCH  24  26
ENDBRANCH  23  24
ENDBRANCH  22  23
BRANCH  22  27
ATOM     27  O   UNL     1       7.085   6.035  16.801  0.00  0.00    +0.000 OA
BRANCH  27  28
ATOM     28  C   UNL     1       7.596   7.044  17.563  0.00  0.00    +0.000 C 
ATOM     29  C   UNL     1       8.045   6.550  18.909  0.00  0.00    +0.000 C 
ATOM     30  O   UNL     1       7.716   8.206  17.198  0.00  0.00    +0.000 OA
ENDBRANCH  27  28
ENDBRANCH  22  27
ENDBRANCH  21  22
ENDBRANCH  19  21
ENDBRANCH  18  19
ENDBRANCH   1  18
BRANCH   1  31
ATOM     31  C   UNL     1       1.682   5.826  17.985  0.00  0.00    +0.000 C 
BRANCH  31  32
ATOM     32  C   UNL     1       1.538   4.321  17.931  0.00  0.00    +0.000 C 
ATOM     33  C   UNL     1       1.267   3.522  18.980  0.00  0.00    +0.000 C 
ATOM     34  C   UNL     1       0.951   4.023  20.361  0.00  0.00    +0.000 C 
ATOM     35  C   UNL     1       1.262   2.024  18.832  0.00  0.00    +0.000 C 
ENDBRANCH  31  32
ENDBRANCH   1  31
TORSDOF 14
ENDMDL
MODEL 3
REMARK VINA RESULT:      -7.9      1.166      1.447
REMARK  Name = 
REMARK  18 active torsions:
REMARK  status: ('A' for Active; 'I' for Inactive)
REMARK    1  A    between atoms: C_1  and  C_2
REMARK    2  A    between atoms: C_2  and  C_3
REMARK    3  A    between atoms: C_3  and  C_4
REMARK    4  A    between atoms: C_4  and  C_5
REMARK    5  A    between atoms: C_5  and  C_6
REMARK    6  A    between atoms: C_5  and  O_30
REMARK    7  A    between atoms: C_6  and  C_7
REMARK    8  A    between atoms: C_7  and  O_9
REMARK    9  A    between atoms: O_9  and  C_10
REMARK   10  A    between atoms: C_10  and  C_11
REMARK   11  A    between atoms: C_10  and  C_16
REMARK   12  A    between atoms: C_11  and  C_12
REMARK   13  A    between atoms: C_13  and  C_14
REMARK   14  A    between atoms: C_13  and  C_15
REMARK   15  A    between atoms: C_21  and  O_22
REMARK   16  A    between atoms: C_25  and  O_26
REMARK   17  A    between atoms: O_30  and  C_31
REMARK   18  A    between atoms: C_31  and  C_32
REMARK                            x       y       z     vdW  Elec       q    Type
REMARK                         _______ _______ _______ _____ _____    ______ ____
ROOT
ATOM      1  C   UNL     1       2.071   6.582  20.293  0.00  0.00    +0.000 C 
ENDROOT
BRANCH   1   2
ATOM      2  C   UNL     1       1.495   7.938  20.650  0.00  0.00    +0.000 C 
ATOM      3  C   UNL     1       1.194   8.310  21.904  0.00  0.00    +0.000 C 
ATOM      4  C   UNL     1       0.558   9.602  22.210  0.00  0.00    +0.000 C 
ATOM      5  O   UNL     1       0.464  10.008  23.364  0.00  0.00    +0.000 OA
ATOM      6  C   UNL     1      -0.053  10.343  21.101  0.00  0.00    +0.000 A 
ATOM      7  C   UNL     1      -0.912  11.423  21.331  0.00  0.00    +0.000 A 
ATOM      8  C   UNL     1      -1.556  12.049  20.266  0.00  0.00    +0.000 A 
ATOM      9  C   UNL     1      -1.369  11.592  18.964  0.00  0.00    +0.000 A 
ATOM     10  C   UNL     1      -0.501  10.530  18.728  0.00  0.00    +0.000 A 
ATOM     11  C   UNL     1       0.187   9.930  19.789  0.00  0.00    +0.000 A 
ATOM     12  C   UNL     1       1.226   8.921  19.561  0.00  0.00    +0.000 C 
ATOM     13  O   UNL     1       1.891   8.965  18.536  0.00  0.00    +0.000 OA
BRANCH   7  14
ATOM     14  O   UNL     1      -1.184  11.897  22.583  0.00  0.00    +0.000 OA
ATOM     15  H   UNL     1      -0.886  12.828  22.641  0.00  0.00    +0.000 HD
ENDBRANCH   7  14
BRANCH  10  16
ATOM     16  O   UNL     1      -0.373  10.039  17.461  0.00  0.00    +0.000 OA
ATOM     17  H   UNL     1      -0.455  10.748  16.810  0.00  0.00    +0.000 HD
ENDBRANCH  10  16
ENDBRANCH   1   2
BRANCH   1  18
ATOM     18  O   UNL     1       2.507   6.535  18.906  0.00  0.00    +0.000 OA
BRANCH  18  19
ATOM     19  C   UNL     1       3.808   6.216  18.662  0.00  0.00    +0.000 C 
ATOM     20  O   UNL     1       4.519   5.573  19.420  0.00  0.00    +0.000 OA
BRANCH  19  21
ATOM     21  C   UNL     1       4.166   6.630  17.256  0.00  0.00    +0.000 C 
BRANCH  21  22
ATOM     22  C   UNL     1       5.589   6.300  16.806  0.00  0.00    +0.000 C 
BRANCH  22  23
ATOM     23  C   UNL     1       6.545   7.455  17.192  0.00  0.00    +0.000 C 
BRANCH  23  24
ATOM     24  C   UNL     1       7.752   7.089  18.063  0.00  0.00    +0.000 C 
BRANCH  24  26
ATOM     25  C   UNL     1       8.083   5.496  19.961  0.00  0.00    +0.000 C 
ATOM     26  C   UNL     1       7.832   5.617  18.462  0.00  0.00    +0.000 C 
ENDBRANCH  24  26
ENDBRANCH  23  24
ENDBRANCH  22  23
BRANCH  22  27
ATOM     27  O   UNL     1       5.601   6.178  15.359  0.00  0.00    +0.000 OA
BRANCH  27  28
ATOM     28  C   UNL     1       6.427   5.231  14.828  0.00  0.00    +0.000 C 
ATOM     29  C   UNL     1       5.654   4.062  14.287  0.00  0.00    +0.000 C 
ATOM     30  O   UNL     1       7.645   5.323  14.759  0.00  0.00    +0.000 OA
ENDBRANCH  27  28
ENDBRANCH  22  27
ENDBRANCH  21  22
ENDBRANCH  19  21
ENDBRANCH  18  19
ENDBRANCH   1  18
BRANCH   1  31
ATOM     31  C   UNL     1       1.164   5.337  20.480  0.00  0.00    +0.000 C 
BRANCH  31  32
ATOM     32  C   UNL     1       1.504   4.157  19.596  0.00  0.00    +0.000 C 
ATOM     33  C   UNL     1       2.102   3.021  20.002  0.00  0.00    +0.000 C 
ATOM     34  C   UNL     1       2.425   2.705  21.435  0.00  0.00    +0.000 C 
ATOM     35  C   UNL     1       2.499   1.959  19.013  0.00  0.00    +0.000 C 
ENDBRANCH  31  32
ENDBRANCH   1  31
TORSDOF 14
ENDMDL
MODEL 4
REMARK VINA RESULT:      -7.8      0.970      1.226
REMARK  Name = 
REMARK  18 active torsions:
REMARK  status: ('A' for Active; 'I' for Inactive)
REMARK    1  A    between atoms: C_1  and  C_2
REMARK    2  A    between atoms: C_2  and  C_3
REMARK    3  A    between atoms: C_3  and  C_4
REMARK    4  A    between atoms: C_4  and  C_5
REMARK    5  A    between atoms: C_5  and  C_6
REMARK    6  A    between atoms: C_5  and  O_30
REMARK    7  A    between atoms: C_6  and  C_7
REMARK    8  A    between atoms: C_7  and  O_9
REMARK    9  A    between atoms: O_9  and  C_10
REMARK   10  A    between atoms: C_10  and  C_11
REMARK   11  A    between atoms: C_10  and  C_16
REMARK   12  A    between atoms: C_11  and  C_12
REMARK   13  A    between atoms: C_13  and  C_14
REMARK   14  A    between atoms: C_13  and  C_15
REMARK   15  A    between atoms: C_21  and  O_22
REMARK   16  A    between atoms: C_25  and  O_26
REMARK   17  A    between atoms: O_30  and  C_31
REMARK   18  A    between atoms: C_31  and  C_32
REMARK                            x       y       z     vdW  Elec       q    Type
REMARK                         _______ _______ _______ _____ _____    ______ ____
ROOT
ATOM      1  C   UNL     1       2.560   6.712  19.455  0.00  0.00    +0.000 C 
ENDROOT
BRANCH   1   2
ATOM      2  C   UNL     1       1.960   7.962  20.067  0.00  0.00    +0.000 C 
ATOM      3  C   UNL     1       1.857   8.166  21.389  0.00  0.00    +0.000 C 
ATOM      4  C   UNL     1       1.193   9.353  21.953  0.00  0.00    +0.000 C 
ATOM      5  O   UNL     1       1.273   9.620  23.148  0.00  0.00    +0.000 OA
ATOM      6  C   UNL     1       0.347  10.151  21.060  0.00  0.00    +0.000 A 
ATOM      7  C   UNL     1      -0.534  11.117  21.560  0.00  0.00    +0.000 A 
ATOM      8  C   UNL     1      -1.397  11.795  20.701  0.00  0.00    +0.000 A 
ATOM      9  C   UNL     1      -1.408  11.502  19.340  0.00  0.00    +0.000 A 
ATOM     10  C   UNL     1      -0.521  10.556  18.835  0.00  0.00    +0.000 A 
ATOM     11  C   UNL     1       0.383   9.908  19.685  0.00  0.00    +0.000 A 
ATOM     12  C   UNL     1       1.435   9.029  19.167  0.00  0.00    +0.000 C 
ATOM     13  O   UNL     1       1.907   9.246  18.060  0.00  0.00    +0.000 OA
BRANCH   7  14
ATOM     14  O   UNL     1      -0.616  11.424  22.888  0.00  0.00    +0.000 OA
ATOM     15  H   UNL     1      -1.554  11.586  23.119  0.00  0.00    +0.000 HD
ENDBRANCH   7  14
BRANCH  10  16
ATOM     16  O   UNL     1      -0.581  10.220  17.513  0.00  0.00    +0.000 OA
ATOM     17  H   UNL     1      -0.736  11.002  16.969  0.00  0.00    +0.000 HD
ENDBRANCH  10  16
ENDBRANCH   1   2
BRANCH   1  18
ATOM     18  O   UNL     1       3.078   6.966  18.120  0.00  0.00    +0.000 OA
BRANCH  18  19
ATOM     19  C   UNL     1       3.964   6.069  17.604  0.00  0.00    +0.000 C 
ATOM     20  O   UNL     1       3.772   4.865  17.534  0.00  0.00    +0.000 OA
BRANCH  19  21
ATOM     21  C   UNL     1       5.124   6.814  16.990  0.00  0.00    +0.000 C 
BRANCH  21  22
ATOM     22  C   UNL     1       6.485   6.125  17.086  0.00  0.00    +0.000 C 
BRANCH  22  23
ATOM     23  C   UNL     1       7.392   6.889  18.082  0.00  0.00    +0.000 C 
BRANCH  23  24
ATOM     24  C   UNL     1       7.796   8.316  17.689  0.00  0.00    +0.000 C 
BRANCH  24  26
ATOM     25  C   UNL     1       8.935  10.462  18.274  0.00  0.00    +0.000 C 
ATOM     26  C   UNL     1       8.761   8.998  18.657  0.00  0.00    +0.000 C 
ENDBRANCH  24  26
ENDBRANCH  23  24
ENDBRANCH  22  23
BRANCH  22  27
ATOM     27  O   UNL     1       7.121   6.170  15.781  0.00  0.00    +0.000 OA
BRANCH  27  28
ATOM     28  C   UNL     1       6.945   5.084  14.975  0.00  0.00    +0.000 C 
ATOM     29  C   UNL     1       6.383   3.915  15.733  0.00  0.00    +0.000 C 
ATOM     30  O   UNL     1       7.175   5.059  13.773  0.00  0.00    +0.000 OA
ENDBRANCH  27  28
ENDBRANCH  22  27
ENDBRANCH  21  22
ENDBRANCH  19  21
ENDBRANCH  18  19
ENDBRANCH   1  18
BRANCH   1  31
ATOM     31  C   UNL     1       1.647   5.466  19.310  0.00  0.00    +0.000 C 
BRANCH  31  32
ATOM     32  C   UNL     1       1.618   4.547  20.512  0.00  0.00    +0.000 C 
ATOM     33  C   UNL     1       1.382   3.222  20.480  0.00  0.00    +0.000 C 
ATOM     34  C   UNL     1       1.222   2.426  19.215  0.00  0.00    +0.000 C 
ATOM     35  C   UNL     1       1.260   2.426  21.750  0.00  0.00    +0.000 C 
ENDBRANCH  31  32
ENDBRANCH   1  31
TORSDOF 14
ENDMDL
MODEL 5
REMARK VINA RESULT:      -7.8      1.251      2.872
REMARK  Name = 
REMARK  18 active torsions:
REMARK  status: ('A' for Active; 'I' for Inactive)
REMARK    1  A    between atoms: C_1  and  C_2
REMARK    2  A    between atoms: C_2  and  C_3
REMARK    3  A    between atoms: C_3  and  C_4
REMARK    4  A    between atoms: C_4  and  C_5
REMARK    5  A    between atoms: C_5  and  C_6
REMARK    6  A    between atoms: C_5  and  O_30
REMARK    7  A    between atoms: C_6  and  C_7
REMARK    8  A    between atoms: C_7  and  O_9
REMARK    9  A    between atoms: O_9  and  C_10
REMARK   10  A    between atoms: C_10  and  C_11
REMARK   11  A    between atoms: C_10  and  C_16
REMARK   12  A    between atoms: C_11  and  C_12
REMARK   13  A    between atoms: C_13  and  C_14
REMARK   14  A    between atoms: C_13  and  C_15
REMARK   15  A    between atoms: C_21  and  O_22
REMARK   16  A    between atoms: C_25  and  O_26
REMARK   17  A    between atoms: O_30  and  C_31
REMARK   18  A    between atoms: C_31  and  C_32
REMARK                            x       y       z     vdW  Elec       q    Type
REMARK                         _______ _______ _______ _____ _____    ______ ____
ROOT
ATOM      1  C   UNL     1       2.489   6.323  19.369  0.00  0.00    +0.000 C 
ENDROOT
BRANCH   1   2
ATOM      2  C   UNL     1       1.976   7.609  19.986  0.00  0.00    +0.000 C 
ATOM      3  C   UNL     1       1.891   7.814  21.310  0.00  0.00    +0.000 C 
ATOM      4  C   UNL     1       1.310   9.042  21.880  0.00  0.00    +0.000 C 
ATOM      5  O   UNL     1       1.411   9.299  23.074  0.00  0.00    +0.000 OA
ATOM      6  C   UNL     1       0.516   9.898  20.992  0.00  0.00    +0.000 A 
ATOM      7  C   UNL     1      -0.296  10.919  21.498  0.00  0.00    +0.000 A 
ATOM      8  C   UNL     1      -1.114  11.656  20.644  0.00  0.00    +0.000 A 
ATOM      9  C   UNL     1      -1.149  11.369  19.281  0.00  0.00    +0.000 A 
ATOM     10  C   UNL     1      -0.329  10.367  18.770  0.00  0.00    +0.000 A 
ATOM     11  C   UNL     1       0.532   9.658  19.616  0.00  0.00    +0.000 A 
ATOM     12  C   UNL     1       1.522   8.712  19.091  0.00  0.00    +0.000 C 
ATOM     13  O   UNL     1       2.003   8.900  17.983  0.00  0.00    +0.000 OA
BRANCH   7  14
ATOM     14  O   UNL     1      -0.353  11.226  22.827  0.00  0.00    +0.000 OA
ATOM     15  H   UNL     1       0.502  11.618  23.099  0.00  0.00    +0.000 HD
ENDBRANCH   7  14
BRANCH  10  16
ATOM     16  O   UNL     1      -0.415  10.041  17.448  0.00  0.00    +0.000 OA
ATOM     17  H   UNL     1      -1.073  10.590  17.003  0.00  0.00    +0.000 HD
ENDBRANCH  10  16
ENDBRANCH   1   2
BRANCH   1  18
ATOM     18  O   UNL     1       3.921   6.386  19.117  0.00  0.00    +0.000 OA
BRANCH  18  19
ATOM     19  C   UNL     1       4.341   6.269  17.826  0.00  0.00    +0.000 C 
ATOM     20  O   UNL     1       4.222   7.136  16.975  0.00  0.00    +0.000 OA
BRANCH  19  21
ATOM     21  C   UNL     1       5.117   4.983  17.672  0.00  0.00    +0.000 C 
BRANCH  21  22
ATOM     22  C   UNL     1       6.529   5.122  17.104  0.00  0.00    +0.000 C 
BRANCH  22  23
ATOM     23  C   UNL     1       6.704   4.173  15.893  0.00  0.00    +0.000 C 
BRANCH  23  24
ATOM     24  C   UNL     1       5.605   4.209  14.825  0.00  0.00    +0.000 C 
BRANCH  24  26
ATOM     25  C   UNL     1       7.217   4.676  12.973  0.00  0.00    +0.000 C 
ATOM     26  C   UNL     1       6.056   3.798  13.425  0.00  0.00    +0.000 C 
ENDBRANCH  24  26
ENDBRANCH  23  24
ENDBRANCH  22  23
BRANCH  22  27
ATOM     27  O   UNL     1       7.481   4.720  18.125  0.00  0.00    +0.000 OA
BRANCH  27  28
ATOM     28  C   UNL     1       7.739   5.622  19.115  0.00  0.00    +0.000 C 
ATOM     29  C   UNL     1       8.063   6.979  18.557  0.00  0.00    +0.000 C 
ATOM     30  O   UNL     1       7.680   5.384  20.313  0.00  0.00    +0.000 OA
ENDBRANCH  27  28
ENDBRANCH  22  27
ENDBRANCH  21  22
ENDBRANCH  19  21
ENDBRANCH  18  19
ENDBRANCH   1  18
BRANCH   1  31
ATOM     31  C   UNL     1       1.858   5.861  18.029  0.00  0.00    +0.000 C 
BRANCH  31  32
ATOM     32  C   UNL     1       1.625   4.370  17.909  0.00  0.00    +0.000 C 
ATOM     33  C   UNL     1       1.254   3.553  18.913  0.00  0.00    +0.000 C 
ATOM     34  C   UNL     1       0.900   4.024  20.295  0.00  0.00    +0.000 C 
ATOM     35  C   UNL     1       1.165   2.065  18.707  0.00  0.00    +0.000 C 
ENDBRANCH  31  32
ENDBRANCH   1  31
TORSDOF 14
ENDMDL
MODEL 6
REMARK VINA RESULT:      -7.7      1.962      2.925
REMARK  Name = 
REMARK  18 active torsions:
REMARK  status: ('A' for Active; 'I' for Inactive)
REMARK    1  A    between atoms: C_1  and  C_2
REMARK    2  A    between atoms: C_2  and  C_3
REMARK    3  A    between atoms: C_3  and  C_4
REMARK    4  A    between atoms: C_4  and  C_5
REMARK    5  A    between atoms: C_5  and  C_6
REMARK    6  A    between atoms: C_5  and  O_30
REMARK    7  A    between atoms: C_6  and  C_7
REMARK    8  A    between atoms: C_7  and  O_9
REMARK    9  A    between atoms: O_9  and  C_10
REMARK   10  A    between atoms: C_10  and  C_11
REMARK   11  A    between atoms: C_10  and  C_16
REMARK   12  A    between atoms: C_11  and  C_12
REMARK   13  A    between atoms: C_13  and  C_14
REMARK   14  A    between atoms: C_13  and  C_15
REMARK   15  A    between atoms: C_21  and  O_22
REMARK   16  A    between atoms: C_25  and  O_26
REMARK   17  A    between atoms: O_30  and  C_31
REMARK   18  A    between atoms: C_31  and  C_32
REMARK                            x       y       z     vdW  Elec       q    Type
REMARK                         _______ _______ _______ _____ _____    ______ ____
ROOT
ATOM      1  C   UNL     1       2.366   6.818  20.188  0.00  0.00    +0.000 C 
ENDROOT
BRANCH   1   2
ATOM      2  C   UNL     1       1.654   8.115  20.518  0.00  0.00    +0.000 C 
ATOM      3  C   UNL     1       1.313   8.479  21.764  0.00  0.00    +0.000 C 
ATOM      4  C   UNL     1       0.548   9.705  22.044  0.00  0.00    +0.000 C 
ATOM      5  O   UNL     1       0.409  10.121  23.189  0.00  0.00    +0.000 OA
ATOM      6  C   UNL     1      -0.130  10.360  20.920  0.00  0.00    +0.000 A 
ATOM      7  C   UNL     1      -1.095  11.352  21.128  0.00  0.00    +0.000 A 
ATOM      8  C   UNL     1      -1.795  11.890  20.049  0.00  0.00    +0.000 A 
ATOM      9  C   UNL     1      -1.557  11.429  18.756  0.00  0.00    +0.000 A 
ATOM     10  C   UNL     1      -0.586  10.456  18.543  0.00  0.00    +0.000 A 
ATOM     11  C   UNL     1       0.155   9.948  19.616  0.00  0.00    +0.000 A 
ATOM     12  C   UNL     1       1.292   9.045  19.410  0.00  0.00    +0.000 C 
ATOM     13  O   UNL     1       1.953   9.137  18.385  0.00  0.00    +0.000 OA
BRANCH   7  14
ATOM     14  O   UNL     1      -1.417  11.819  22.369  0.00  0.00    +0.000 OA
ATOM     15  H   UNL     1      -2.355  12.101  22.368  0.00  0.00    +0.000 HD
ENDBRANCH   7  14
BRANCH  10  16
ATOM     16  O   UNL     1      -0.404   9.957  17.286  0.00  0.00    +0.000 OA
ATOM     17  H   UNL     1      -1.134  10.212  16.707  0.00  0.00    +0.000 HD
ENDBRANCH  10  16
ENDBRANCH   1   2
BRANCH   1  18
ATOM     18  O   UNL     1       2.367   6.558  18.757  0.00  0.00    +0.000 OA
BRANCH  18  19
ATOM     19  C   UNL     1       3.574   6.421  18.140  0.00  0.00    +0.000 C 
ATOM     20  O   UNL     1       3.767   6.591  16.945  0.00  0.00    +0.000 OA
BRANCH  19  21
ATOM     21  C   UNL     1       4.642   6.198  19.182  0.00  0.00    +0.000 C 
BRANCH  21  22
ATOM     22  C   UNL     1       5.464   4.919  19.030  0.00  0.00    +0.000 C 
BRANCH  22  23
ATOM     23  C   UNL     1       6.748   5.213  18.217  0.00  0.00    +0.000 C 
BRANCH  23  24
ATOM     24  C   UNL     1       6.962   4.385  16.943  0.00  0.00    +0.000 C 
BRANCH  24  26
ATOM     25  C   UNL     1       5.630   4.351  14.829  0.00  0.00    +0.000 C 
ATOM     26  C   UNL     1       6.662   5.124  15.641  0.00  0.00    +0.000 C 
ENDBRANCH  24  26
ENDBRANCH  23  24
ENDBRANCH  22  23
BRANCH  22  27
ATOM     27  O   UNL     1       4.679   3.949  18.286  0.00  0.00    +0.000 OA
BRANCH  27  28
ATOM     28  C   UNL     1       4.440   2.753  18.897  0.00  0.00    +0.000 C 
ATOM     29  C   UNL     1       3.733   1.795  17.981  0.00  0.00    +0.000 C 
ATOM     30  O   UNL     1       4.785   2.467  20.035  0.00  0.00    +0.000 OA
ENDBRANCH  27  28
ENDBRANCH  22  27
ENDBRANCH  21  22
ENDBRANCH  19  21
ENDBRANCH  18  19
ENDBRANCH   1  18
BRANCH   1  31
ATOM     31  C   UNL     1       1.835   5.514  20.840  0.00  0.00    +0.000 C 
BRANCH  31  32
ATOM     32  C   UNL     1       1.230   4.515  19.878  0.00  0.00    +0.000 C 
ATOM     33  C   UNL     1       1.063   3.201  20.116  0.00  0.00    +0.000 C 
ATOM     34  C   UNL     1       1.354   2.540  21.434  0.00  0.00    +0.000 C 
ATOM     35  C   UNL     1       0.557   2.277  19.041  0.00  0.00    +0.000 C 
ENDBRANCH  31  32
ENDBRANCH   1  31
TORSDOF 14
ENDMDL
MODEL 7
REMARK VINA RESULT:      -7.7      1.567      2.827
REMARK  Name = 
REMARK  18 active torsions:
REMARK  status: ('A' for Active; 'I' for Inactive)
REMARK    1  A    between atoms: C_1  and  C_2
REMARK    2  A    between atoms: C_2  and  C_3
REMARK    3  A    between atoms: C_3  and  C_4
REMARK    4  A    between atoms: C_4  and  C_5
REMARK    5  A    between atoms: C_5  and  C_6
REMARK    6  A    between atoms: C_5  and  O_30
REMARK    7  A    between atoms: C_6  and  C_7
REMARK    8  A    between atoms: C_7  and  O_9
REMARK    9  A    between atoms: O_9  and  C_10
REMARK   10  A    between atoms: C_10  and  C_11
REMARK   11  A    between atoms: C_10  and  C_16
REMARK   12  A    between atoms: C_11  and  C_12
REMARK   13  A    between atoms: C_13  and  C_14
REMARK   14  A    between atoms: C_13  and  C_15
REMARK   15  A    between atoms: C_21  and  O_22
REMARK   16  A    between atoms: C_25  and  O_26
REMARK   17  A    between atoms: O_30  and  C_31
REMARK   18  A    between atoms: C_31  and  C_32
REMARK                            x       y       z     vdW  Elec       q    Type
REMARK                         _______ _______ _______ _____ _____    ______ ____
ROOT
ATOM      1  C   UNL     1       2.345   6.835  19.978  0.00  0.00    +0.000 C 
ENDROOT
BRANCH   1   2
ATOM      2  C   UNL     1       1.645   8.110  20.405  0.00  0.00    +0.000 C 
ATOM      3  C   UNL     1       1.348   8.403  21.680  0.00  0.00    +0.000 C 
ATOM      4  C   UNL     1       0.593   9.611  22.055  0.00  0.00    +0.000 C 
ATOM      5  O   UNL     1       0.494   9.962  23.226  0.00  0.00    +0.000 OA
ATOM      6  C   UNL     1      -0.124  10.325  20.994  0.00  0.00    +0.000 A 
ATOM      7  C   UNL     1      -1.081  11.302  21.290  0.00  0.00    +0.000 A 
ATOM      8  C   UNL     1      -1.818  11.898  20.269  0.00  0.00    +0.000 A 
ATOM      9  C   UNL     1      -1.626  11.511  18.944  0.00  0.00    +0.000 A 
ATOM     10  C   UNL     1      -0.663  10.553  18.643  0.00  0.00    +0.000 A 
ATOM     11  C   UNL     1       0.115   9.988  19.659  0.00  0.00    +0.000 A 
ATOM     12  C   UNL     1       1.244   9.100  19.363  0.00  0.00    +0.000 C 
ATOM     13  O   UNL     1       1.869   9.250  18.323  0.00  0.00    +0.000 OA
BRANCH   7  14
ATOM     14  O   UNL     1      -1.360  11.699  22.566  0.00  0.00    +0.000 OA
ATOM     15  H   UNL     1      -0.587  11.503  23.135  0.00  0.00    +0.000 HD
ENDBRANCH   7  14
BRANCH  10  16
ATOM     16  O   UNL     1      -0.525  10.125  17.354  0.00  0.00    +0.000 OA
ATOM     17  H   UNL     1      -0.533   9.160  17.312  0.00  0.00    +0.000 HD
ENDBRANCH  10  16
ENDBRANCH   1   2
BRANCH   1  18
ATOM     18  O   UNL     1       2.171   6.580  18.556  0.00  0.00    +0.000 OA
BRANCH  18  19
ATOM     19  C   UNL     1       3.240   6.094  17.866  0.00  0.00    +0.000 C 
ATOM     20  O   UNL     1       3.435   4.911  17.630  0.00  0.00    +0.000 OA
BRANCH  19  21
ATOM     21  C   UNL     1       4.035   7.247  17.305  0.00  0.00    +0.000 C 
BRANCH  21  22
ATOM     22  C   UNL     1       5.431   6.904  16.785  0.00  0.00    +0.000 C 
BRANCH  22  23
ATOM     23  C   UNL     1       5.318   6.036  15.508  0.00  0.00    +0.000 C 
BRANCH  23  24
ATOM     24  C   UNL     1       6.479   5.075  15.223  0.00  0.00    +0.000 C 
BRANCH  24  26
ATOM     25  C   UNL     1       6.159   3.704  13.159  0.00  0.00    +0.000 C 
ATOM     26  C   UNL     1       6.062   3.710  14.679  0.00  0.00    +0.000 C 
ENDBRANCH  24  26
ENDBRANCH  23  24
ENDBRANCH  22  23
BRANCH  22  27
ATOM     27  O   UNL     1       6.122   6.120  17.795  0.00  0.00    +0.000 OA
BRANCH  27  28
ATOM     28  C   UNL     1       7.322   6.600  18.230  0.00  0.00    +0.000 C 
ATOM     29  C   UNL     1       7.915   5.724  19.297  0.00  0.00    +0.000 C 
ATOM     30  O   UNL     1       7.880   7.596  17.790  0.00  0.00    +0.000 OA
ENDBRANCH  27  28
ENDBRANCH  22  27
ENDBRANCH  21  22
ENDBRANCH  19  21
ENDBRANCH  18  19
ENDBRANCH   1  18
BRANCH   1  31
ATOM     31  C   UNL     1       1.938   5.514  20.684  0.00  0.00    +0.000 C 
BRANCH  31  32
ATOM     32  C   UNL     1       1.251   4.498  19.797  0.00  0.00    +0.000 C 
ATOM     33  C   UNL     1       1.165   3.177  20.042  0.00  0.00    +0.000 C 
ATOM     34  C   UNL     1       1.645   2.521  21.306  0.00  0.00    +0.000 C 
ATOM     35  C   UNL     1       0.560   2.240  19.032  0.00  0.00    +0.000 C 
ENDBRANCH  31  32
ENDBRANCH   1  31
TORSDOF 14
ENDMDL
MODEL 8
REMARK VINA RESULT:      -7.6      1.364      1.841
REMARK  Name = 
REMARK  18 active torsions:
REMARK  status: ('A' for Active; 'I' for Inactive)
REMARK    1  A    between atoms: C_1  and  C_2
REMARK    2  A    between atoms: C_2  and  C_3
REMARK    3  A    between atoms: C_3  and  C_4
REMARK    4  A    between atoms: C_4  and  C_5
REMARK    5  A    between atoms: C_5  and  C_6
REMARK    6  A    between atoms: C_5  and  O_30
REMARK    7  A    between atoms: C_6  and  C_7
REMARK    8  A    between atoms: C_7  and  O_9
REMARK    9  A    between atoms: O_9  and  C_10
REMARK   10  A    between atoms: C_10  and  C_11
REMARK   11  A    between atoms: C_10  and  C_16
REMARK   12  A    between atoms: C_11  and  C_12
REMARK   13  A    between atoms: C_13  and  C_14
REMARK   14  A    between atoms: C_13  and  C_15
REMARK   15  A    between atoms: C_21  and  O_22
REMARK   16  A    between atoms: C_25  and  O_26
REMARK   17  A    between atoms: O_30  and  C_31
REMARK   18  A    between atoms: C_31  and  C_32
REMARK                            x       y       z     vdW  Elec       q    Type
REMARK                         _______ _______ _______ _____ _____    ______ ____
ROOT
ATOM      1  C   UNL     1       2.210   6.854  19.916  0.00  0.00    +0.000 C 
ENDROOT
BRANCH   1   2
ATOM      2  C   UNL     1       1.574   8.141  20.404  0.00  0.00    +0.000 C 
ATOM      3  C   UNL     1       1.315   8.398  21.696  0.00  0.00    +0.000 C 
ATOM      4  C   UNL     1       0.621   9.622  22.131  0.00  0.00    +0.000 C 
ATOM      5  O   UNL     1       0.560   9.932  23.316  0.00  0.00    +0.000 OA
ATOM      6  C   UNL     1      -0.085  10.406  21.112  0.00  0.00    +0.000 A 
ATOM      7  C   UNL     1      -0.993  11.411  21.464  0.00  0.00    +0.000 A 
ATOM      8  C   UNL     1      -1.723  12.077  20.481  0.00  0.00    +0.000 A 
ATOM      9  C   UNL     1      -1.573  11.732  19.139  0.00  0.00    +0.000 A 
ATOM     10  C   UNL     1      -0.658  10.746  18.783  0.00  0.00    +0.000 A 
ATOM     11  C   UNL     1       0.114  10.110  19.761  0.00  0.00    +0.000 A 
ATOM     12  C   UNL     1       1.197   9.186  19.409  0.00  0.00    +0.000 C 
ATOM     13  O   UNL     1       1.807   9.348  18.363  0.00  0.00    +0.000 OA
BRANCH   7  14
ATOM     14  O   UNL     1      -1.229  11.771  22.759  0.00  0.00    +0.000 OA
ATOM     15  H   UNL     1      -2.128  11.475  23.011  0.00  0.00    +0.000 HD
ENDBRANCH   7  14
BRANCH  10  16
ATOM     16  O   UNL     1      -0.564  10.361  17.477  0.00  0.00    +0.000 OA
ATOM     17  H   UNL     1      -1.317   9.809  17.228  0.00  0.00    +0.000 HD
ENDBRANCH  10  16
ENDBRANCH   1   2
BRANCH   1  18
ATOM     18  O   UNL     1       2.126   6.733  18.469  0.00  0.00    +0.000 OA
BRANCH  18  19
ATOM     19  C   UNL     1       3.284   6.513  17.786  0.00  0.00    +0.000 C 
ATOM     20  O   UNL     1       4.148   7.354  17.594  0.00  0.00    +0.000 OA
BRANCH  19  21
ATOM     21  C   UNL     1       3.396   5.044  17.460  0.00  0.00    +0.000 C 
BRANCH  21  22
ATOM     22  C   UNL     1       4.803   4.538  17.138  0.00  0.00    +0.000 C 
BRANCH  22  23
ATOM     23  C   UNL     1       5.565   4.234  18.451  0.00  0.00    +0.000 C 
BRANCH  23  24
ATOM     24  C   UNL     1       6.183   5.433  19.183  0.00  0.00    +0.000 C 
BRANCH  24  26
ATOM     25  C   UNL     1       8.002   6.993  18.475  0.00  0.00    +0.000 C 
ATOM     26  C   UNL     1       7.689   5.594  18.992  0.00  0.00    +0.000 C 
ENDBRANCH  24  26
ENDBRANCH  23  24
ENDBRANCH  22  23
BRANCH  22  27
ATOM     27  O   UNL     1       5.524   5.588  16.439  0.00  0.00    +0.000 OA
BRANCH  27  28
ATOM     28  C   UNL     1       6.406   5.192  15.478  0.00  0.00    +0.000 C 
ATOM     29  C   UNL     1       5.847   4.082  14.635  0.00  0.00    +0.000 C 
ATOM     30  O   UNL     1       7.506   5.693  15.287  0.00  0.00    +0.000 OA
ENDBRANCH  27  28
ENDBRANCH  22  27
ENDBRANCH  21  22
ENDBRANCH  19  21
ENDBRANCH  18  19
ENDBRANCH   1  18
BRANCH   1  31
ATOM     31  C   UNL     1       1.654   5.516  20.473  0.00  0.00    +0.000 C 
BRANCH  31  32
ATOM     32  C   UNL     1       2.700   4.469  20.789  0.00  0.00    +0.000 C 
ATOM     33  C   UNL     1       2.609   3.158  20.498  0.00  0.00    +0.000 C 
ATOM     34  C   UNL     1       1.489   2.548  19.702  0.00  0.00    +0.000 C 
ATOM     35  C   UNL     1       3.658   2.186  20.964  0.00  0.00    +0.000 C 
ENDBRANCH  31  32
ENDBRANCH   1  31
TORSDOF 14
ENDMDL
MODEL 9
REMARK VINA RESULT:      -7.6      2.250      3.228
REMARK  Name = 
REMARK  18 active torsions:
REMARK  status: ('A' for Active; 'I' for Inactive)
REMARK    1  A    between atoms: C_1  and  C_2
REMARK    2  A    between atoms: C_2  and  C_3
REMARK    3  A    between atoms: C_3  and  C_4
REMARK    4  A    between atoms: C_4  and  C_5
REMARK    5  A    between atoms: C_5  and  C_6
REMARK    6  A    between atoms: C_5  and  O_30
REMARK    7  A    between atoms: C_6  and  C_7
REMARK    8  A    between atoms: C_7  and  O_9
REMARK    9  A    between atoms: O_9  and  C_10
REMARK   10  A    between atoms: C_10  and  C_11
REMARK   11  A    between atoms: C_10  and  C_16
REMARK   12  A    between atoms: C_11  and  C_12
REMARK   13  A    between atoms: C_13  and  C_14
REMARK   14  A    between atoms: C_13  and  C_15
REMARK   15  A    between atoms: C_21  and  O_22
REMARK   16  A    between atoms: C_25  and  O_26
REMARK   17  A    between atoms: O_30  and  C_31
REMARK   18  A    between atoms: C_31  and  C_32
REMARK                            x       y       z     vdW  Elec       q    Type
REMARK                         _______ _______ _______ _____ _____    ______ ____
ROOT
ATOM      1  C   UNL     1       2.264   6.921  20.032  0.00  0.00    +0.000 C 
ENDROOT
BRANCH   1   2
ATOM      2  C   UNL     1       1.574   8.215  20.412  0.00  0.00    +0.000 C 
ATOM      3  C   UNL     1       1.289   8.561  21.677  0.00  0.00    +0.000 C 
ATOM      4  C   UNL     1       0.543   9.786  22.009  0.00  0.00    +0.000 C 
ATOM      5  O   UNL     1       0.456  10.185  23.165  0.00  0.00    +0.000 OA
ATOM      6  C   UNL     1      -0.181  10.460  20.926  0.00  0.00    +0.000 A 
ATOM      7  C   UNL     1      -1.130  11.453  21.190  0.00  0.00    +0.000 A 
ATOM      8  C   UNL     1      -1.874  12.011  20.152  0.00  0.00    +0.000 A 
ATOM      9  C   UNL     1      -1.696  11.569  18.843  0.00  0.00    +0.000 A 
ATOM     10  C   UNL     1      -0.739  10.595  18.573  0.00  0.00    +0.000 A 
ATOM     11  C   UNL     1       0.046  10.068  19.604  0.00  0.00    +0.000 A 
ATOM     12  C   UNL     1       1.168   9.164  19.335  0.00  0.00    +0.000 C 
ATOM     13  O   UNL     1       1.784   9.268  18.284  0.00  0.00    +0.000 OA
BRANCH   7  14
ATOM     14  O   UNL     1      -1.396  11.903  22.452  0.00  0.00    +0.000 OA
ATOM     15  H   UNL     1      -0.706  12.547  22.711  0.00  0.00    +0.000 HD
ENDBRANCH   7  14
BRANCH  10  16
ATOM     16  O   UNL     1      -0.615  10.114  17.301  0.00  0.00    +0.000 OA
ATOM     17  H   UNL     1      -0.216  10.778  16.723  0.00  0.00    +0.000 HD
ENDBRANCH  10  16
ENDBRANCH   1   2
BRANCH   1  18
ATOM     18  O   UNL     1       2.993   7.051  18.779  0.00  0.00    +0.000 OA
BRANCH  18  19
ATOM     19  C   UNL     1       4.114   6.295  18.618  0.00  0.00    +0.000 C 
ATOM     20  O   UNL     1       4.935   6.073  19.494  0.00  0.00    +0.000 OA
BRANCH  19  21
ATOM     21  C   UNL     1       4.084   5.648  17.254  0.00  0.00    +0.000 C 
BRANCH  21  22
ATOM     22  C   UNL     1       4.609   4.214  17.185  0.00  0.00    +0.000 C 
BRANCH  22  23
ATOM     23  C   UNL     1       5.002   3.868  15.728  0.00  0.00    +0.000 C 
BRANCH  23  24
ATOM     24  C   UNL     1       5.618   4.998  14.894  0.00  0.00    +0.000 C 
BRANCH  24  26
ATOM     25  C   UNL     1       6.195   3.619  12.891  0.00  0.00    +0.000 C 
ATOM     26  C   UNL     1       6.742   4.562  13.956  0.00  0.00    +0.000 C 
ENDBRANCH  24  26
ENDBRANCH  23  24
ENDBRANCH  22  23
BRANCH  22  27
ATOM     27  O   UNL     1       3.544   3.311  17.585  0.00  0.00    +0.000 OA
BRANCH  27  28
ATOM     28  C   UNL     1       3.890   2.276  18.403  0.00  0.00    +0.000 C 
ATOM     29  C   UNL     1       4.607   2.757  19.632  0.00  0.00    +0.000 C 
ATOM     30  O   UNL     1       3.623   1.100  18.196  0.00  0.00    +0.000 OA
ENDBRANCH  27  28
ENDBRANCH  22  27
ENDBRANCH  21  22
ENDBRANCH  19  21
ENDBRANCH  18  19
ENDBRANCH   1  18
BRANCH   1  31
ATOM     31  C   UNL     1       1.385   5.653  19.864  0.00  0.00    +0.000 C 
BRANCH  31  32
ATOM     32  C   UNL     1       1.627   4.563  20.886  0.00  0.00    +0.000 C 
ATOM     33  C   UNL     1       1.249   3.277  20.764  0.00  0.00    +0.000 C 
ATOM     34  C   UNL     1       0.621   2.698  19.527  0.00  0.00    +0.000 C 
ATOM     35  C   UNL     1       1.438   2.303  21.895  0.00  0.00    +0.000 C 
ENDBRANCH  31  32
ENDBRANCH   1  31
TORSDOF 14
ENDMDL
