MODEL 1
REMARK VINA RESULT:      -7.9      0.000      0.000
REMARK  Name = 
REMARK  5 active torsions:
REMARK  status: ('A' for Active; 'I' for Inactive)
REMARK    1  A    between atoms: C_1  and  O_2
REMARK    2  A    between atoms: O_2  and  C_3
REMARK    3  A    between atoms: C_6  and  N_7
REMARK    4  A    between atoms: C_11  and  C_13
REMARK    5  A    between atoms: C_13  and  N_14
REMARK                            x       y       z     vdW  Elec       q    Type
REMARK                         _______ _______ _______ _____ _____    ______ ____
ROOT
ATOM      1  N   UNL     1       2.554   5.793  18.169  0.00  0.00    +0.000 N 
ATOM      2  C   UNL     1       2.340   5.317  19.567  0.00  0.00    +0.000 C 
ATOM      3  C   UNL     1       2.393   6.467  20.642  0.00  0.00    +0.000 C 
ATOM      4  N   UNL     1       1.879   7.782  20.187  0.00  0.00    +0.000 N 
ATOM      5  C   UNL     1       1.106   8.619  20.989  0.00  0.00    +0.000 C 
ATOM      6  O   UNL     1       0.675   8.216  22.077  0.00  0.00    +0.000 OA
ATOM      7  C   UNL     1       2.341   8.104  18.852  0.00  0.00    +0.000 C 
ATOM      8  C   UNL     1       1.817   7.037  17.890  0.00  0.00    +0.000 C 
ENDROOT
BRANCH   1  12
ATOM      9  C   UNL     1       5.890   4.810  15.712  0.00  0.00    +0.000 A 
ATOM     10  C   UNL     1       5.101   3.815  16.272  0.00  0.00    +0.000 A 
ATOM     11  C   UNL     1       4.005   4.135  17.100  0.00  0.00    +0.000 A 
ATOM     12  C   UNL     1       3.668   5.459  17.409  0.00  0.00    +0.000 A 
ATOM     13  C   UNL     1       4.500   6.437  16.832  0.00  0.00    +0.000 A 
ATOM     14  C   UNL     1       5.590   6.129  15.995  0.00  0.00    +0.000 A 
BRANCH   9  16
ATOM     15  C   UNL     1       6.595   4.000  13.596  0.00  0.00    +0.000 C 
ATOM     16  O   UNL     1       6.929   4.386  14.926  0.00  0.00    +0.000 OA
ENDBRANCH   9  16
ENDBRANCH   1  12
BRANCH   5  17
ATOM     17  C   UNL     1       0.831  10.120  20.565  0.00  0.00    +0.000 C 
BRANCH  17  18
ATOM     18  N   UNL     1      -0.518  10.589  20.069  0.00  0.00    +0.000 N 
ATOM     19  C   UNL     1      -0.477  11.202  18.818  0.00  0.00    +0.000 C 
ATOM     20  O   UNL     1       0.434  11.949  18.454  0.00  0.00    +0.000 OA
ATOM     21  C   UNL     1      -1.689  11.089  17.965  0.00  0.00    +0.000 C 
ATOM     22  C   UNL     1      -2.385   9.760  17.754  0.00  0.00    +0.000 C 
ATOM     23  C   UNL     1      -3.759  10.148  17.163  0.00  0.00    +0.000 C 
ATOM     24  C   UNL     1      -4.030  11.613  17.545  0.00  0.00    +0.000 C 
ATOM     25  C   UNL     1      -2.849  11.866  18.432  0.00  0.00    +0.000 C 
ATOM     26  N   UNL     1      -2.980  12.559  19.505  0.00  0.00    +0.000 NA
ATOM     27  C   UNL     1      -2.097  12.526  20.605  0.00  0.00    +0.000 A 
ATOM     28  C   UNL     1      -2.350  13.566  21.512  0.00  0.00    +0.000 A 
ATOM     29  C   UNL     1      -2.056  13.430  22.862  0.00  0.00    +0.000 A 
ATOM     30  C   UNL     1      -1.563  12.216  23.320  0.00  0.00    +0.000 A 
ATOM     31  C   UNL     1      -1.180  11.221  22.410  0.00  0.00    +0.000 A 
ATOM     32  C   UNL     1      -1.302  11.413  21.024  0.00  0.00    +0.000 A 
ENDBRANCH  17  18
ENDBRANCH   5  17
TORSDOF 4
ENDMDL
MODEL 2
REMARK VINA RESULT:      -7.9      2.503      9.856
REMARK  Name = 
REMARK  5 active torsions:
REMARK  status: ('A' for Active; 'I' for Inactive)
REMARK    1  A    between atoms: C_1  and  O_2
REMARK    2  A    between atoms: O_2  and  C_3
REMARK    3  A    between atoms: C_6  and  N_7
REMARK    4  A    between atoms: C_11  and  C_13
REMARK    5  A    between atoms: C_13  and  N_14
REMARK                            x       y       z     vdW  Elec       q    Type
REMARK                         _______ _______ _______ _____ _____    ______ ____
ROOT
ATOM      1  N   UNL     1      -0.455  11.397  19.924  0.00  0.00    +0.000 N 
ATOM      2  C   UNL     1       0.384  11.833  18.771  0.00  0.00    +0.000 C 
ATOM      3  C   UNL     1       1.676  10.958  18.561  0.00  0.00    +0.000 C 
ATOM      4  N   UNL     1       1.533   9.525  18.913  0.00  0.00    +0.000 N 
ATOM      5  C   UNL     1       2.093   8.493  18.162  0.00  0.00    +0.000 C 
ATOM      6  O   UNL     1       2.604   8.732  17.061  0.00  0.00    +0.000 OA
ATOM      7  C   UNL     1       0.809   9.349  20.157  0.00  0.00    +0.000 C 
ATOM      8  C   UNL     1      -0.593   9.933  19.985  0.00  0.00    +0.000 C 
ENDROOT
BRANCH   1  12
ATOM      9  C   UNL     1      -1.147  13.788  23.381  0.00  0.00    +0.000 A 
ATOM     10  C   UNL     1      -0.236  14.185  22.411  0.00  0.00    +0.000 A 
ATOM     11  C   UNL     1       0.008  13.389  21.273  0.00  0.00    +0.000 A 
ATOM     12  C   UNL     1      -0.636  12.162  21.071  0.00  0.00    +0.000 A 
ATOM     13  C   UNL     1      -1.541  11.789  22.083  0.00  0.00    +0.000 A 
ATOM     14  C   UNL     1      -1.801  12.582  23.217  0.00  0.00    +0.000 A 
BRANCH   9  16
ATOM     15  C   UNL     1      -0.754  15.942  24.295  0.00  0.00    +0.000 C 
ATOM     16  O   UNL     1      -1.304  14.636  24.445  0.00  0.00    +0.000 OA
ENDBRANCH   9  16
ENDBRANCH   1  12
BRANCH   5  17
ATOM     17  C   UNL     1       2.157   7.017  18.732  0.00  0.00    +0.000 C 
BRANCH  17  18
ATOM     18  N   UNL     1       3.456   6.257  18.876  0.00  0.00    +0.000 N 
ATOM     19  C   UNL     1       4.038   5.902  17.661  0.00  0.00    +0.000 C 
ATOM     20  O   UNL     1       3.393   5.530  16.677  0.00  0.00    +0.000 OA
ATOM     21  C   UNL     1       5.520   5.789  17.624  0.00  0.00    +0.000 C 
ATOM     22  C   UNL     1       6.409   6.866  18.212  0.00  0.00    +0.000 C 
ATOM     23  C   UNL     1       7.795   6.191  18.316  0.00  0.00    +0.000 C 
ATOM     24  C   UNL     1       7.569   4.670  18.317  0.00  0.00    +0.000 C 
ATOM     25  C   UNL     1       6.072   4.635  18.354  0.00  0.00    +0.000 C 
ATOM     26  N   UNL     1       5.460   3.767  19.075  0.00  0.00    +0.000 NA
ATOM     27  C   UNL     1       4.126   3.878  19.523  0.00  0.00    +0.000 A 
ATOM     28  C   UNL     1       3.653   2.673  20.067  0.00  0.00    +0.000 A 
ATOM     29  C   UNL     1       2.670   2.664  21.046  0.00  0.00    +0.000 A 
ATOM     30  C   UNL     1       2.199   3.876  21.533  0.00  0.00    +0.000 A 
ATOM     31  C   UNL     1       2.562   5.077  20.906  0.00  0.00    +0.000 A 
ATOM     32  C   UNL     1       3.419   5.090  19.794  0.00  0.00    +0.000 A 
ENDBRANCH  17  18
ENDBRANCH   5  17
TORSDOF 4
ENDMDL
MODEL 3
REMARK VINA RESULT:      -7.6      3.175      9.581
REMARK  Name = 
REMARK  5 active torsions:
REMARK  status: ('A' for Active; 'I' for Inactive)
REMARK    1  A    between atoms: C_1  and  O_2
REMARK    2  A    between atoms: O_2  and  C_3
REMARK    3  A    between atoms: C_6  and  N_7
REMARK    4  A    between atoms: C_11  and  C_13
REMARK    5  A    between atoms: C_13  and  N_14
REMARK                            x       y       z     vdW  Elec       q    Type
REMARK                         _______ _______ _______ _____ _____    ______ ____
ROOT
ATOM      1  N   UNL     1       0.665  12.257  19.301  0.00  0.00    +0.000 N 
ATOM      2  C   UNL     1      -0.447  11.380  18.835  0.00  0.00    +0.000 C 
ATOM      3  C   UNL     1       0.002  10.287  17.794  0.00  0.00    +0.000 C 
ATOM      4  N   UNL     1       1.374   9.759  17.985  0.00  0.00    +0.000 N 
ATOM      5  C   UNL     1       1.705   8.415  17.824  0.00  0.00    +0.000 C 
ATOM      6  O   UNL     1       0.815   7.568  17.672  0.00  0.00    +0.000 OA
ATOM      7  C   UNL     1       2.319  10.817  18.283  0.00  0.00    +0.000 C 
ATOM      8  C   UNL     1       1.891  11.493  19.585  0.00  0.00    +0.000 C 
ENDROOT
BRANCH   1  12
ATOM      9  C   UNL     1       0.945  16.441  18.555  0.00  0.00    +0.000 A 
ATOM     10  C   UNL     1      -0.291  15.820  18.675  0.00  0.00    +0.000 A 
ATOM     11  C   UNL     1      -0.389  14.433  18.906  0.00  0.00    +0.000 A 
ATOM     12  C   UNL     1       0.742  13.614  19.010  0.00  0.00    +0.000 A 
ATOM     13  C   UNL     1       1.975  14.279  18.869  0.00  0.00    +0.000 A 
ATOM     14  C   UNL     1       2.085  15.666  18.651  0.00  0.00    +0.000 A 
BRANCH   9  16
ATOM     15  C   UNL     1       0.058  18.243  17.291  0.00  0.00    +0.000 C 
ATOM     16  O   UNL     1       0.923  17.792  18.330  0.00  0.00    +0.000 OA
ENDBRANCH   9  16
ENDBRANCH   1  12
BRANCH   5  17
ATOM     17  C   UNL     1       3.219   7.954  17.755  0.00  0.00    +0.000 C 
BRANCH  17  18
ATOM     18  N   UNL     1       3.636   6.510  17.915  0.00  0.00    +0.000 N 
ATOM     19  C   UNL     1       3.034   5.865  18.993  0.00  0.00    +0.000 C 
ATOM     20  O   UNL     1       2.823   6.407  20.081  0.00  0.00    +0.000 OA
ATOM     21  C   UNL     1       2.815   4.400  18.874  0.00  0.00    +0.000 C 
ATOM     22  C   UNL     1       2.199   3.793  17.629  0.00  0.00    +0.000 C 
ATOM     23  C   UNL     1       2.511   2.284  17.756  0.00  0.00    +0.000 C 
ATOM     24  C   UNL     1       3.706   2.139  18.713  0.00  0.00    +0.000 C 
ATOM     25  C   UNL     1       4.040   3.584  18.925  0.00  0.00    +0.000 C 
ATOM     26  N   UNL     1       5.264   3.966  18.981  0.00  0.00    +0.000 NA
ATOM     27  C   UNL     1       5.714   5.285  18.759  0.00  0.00    +0.000 A 
ATOM     28  C   UNL     1       7.055   5.452  19.137  0.00  0.00    +0.000 A 
ATOM     29  C   UNL     1       7.862   6.400  18.522  0.00  0.00    +0.000 A 
ATOM     30  C   UNL     1       7.339   7.145  17.474  0.00  0.00    +0.000 A 
ATOM     31  C   UNL     1       5.970   7.085  17.180  0.00  0.00    +0.000 A 
ATOM     32  C   UNL     1       5.101   6.261  17.914  0.00  0.00    +0.000 A 
ENDBRANCH  17  18
ENDBRANCH   5  17
TORSDOF 4
ENDMDL
MODEL 4
REMARK VINA RESULT:      -7.5      2.588      4.642
REMARK  Name = 
REMARK  5 active torsions:
REMARK  status: ('A' for Active; 'I' for Inactive)
REMARK    1  A    between atoms: C_1  and  O_2
REMARK    2  A    between atoms: O_2  and  C_3
REMARK    3  A    between atoms: C_6  and  N_7
REMARK    4  A    between atoms: C_11  and  C_13
REMARK    5  A    between atoms: C_13  and  N_14
REMARK                            x       y       z     vdW  Elec       q    Type
REMARK                         _______ _______ _______ _____ _____    ______ ____
ROOT
ATOM      1  N   UNL     1       2.160   7.775  19.562  0.00  0.00    +0.000 N 
ATOM      2  C   UNL     1       2.355   8.670  18.385  0.00  0.00    +0.000 C 
ATOM      3  C   UNL     1       1.107   9.575  18.063  0.00  0.00    +0.000 C 
ATOM      4  N   UNL     1       0.322  10.011  19.243  0.00  0.00    +0.000 N 
ATOM      5  C   UNL     1      -0.214  11.290  19.374  0.00  0.00    +0.000 C 
ATOM      6  O   UNL     1       0.090  12.179  18.567  0.00  0.00    +0.000 OA
ATOM      7  C   UNL     1       0.128   8.928  20.187  0.00  0.00    +0.000 C 
ATOM      8  C   UNL     1       1.500   8.468  20.681  0.00  0.00    +0.000 C 
ENDROOT
BRANCH   1  12
ATOM      9  C   UNL     1       2.103   3.521  19.344  0.00  0.00    +0.000 A 
ATOM     10  C   UNL     1       2.372   4.289  18.218  0.00  0.00    +0.000 A 
ATOM     11  C   UNL     1       2.376   5.697  18.282  0.00  0.00    +0.000 A 
ATOM     12  C   UNL     1       2.096   6.390  19.467  0.00  0.00    +0.000 A 
ATOM     13  C   UNL     1       1.816   5.576  20.581  0.00  0.00    +0.000 A 
ATOM     14  C   UNL     1       1.821   4.168  20.532  0.00  0.00    +0.000 A 
BRANCH   9  16
ATOM     15  C   UNL     1       3.252   1.635  18.477  0.00  0.00    +0.000 C 
ATOM     16  O   UNL     1       2.123   2.163  19.168  0.00  0.00    +0.000 OA
ENDBRANCH   9  16
ENDBRANCH   1  12
BRANCH   5  17
ATOM     17  C   UNL     1      -1.277  11.613  20.503  0.00  0.00    +0.000 C 
BRANCH  17  18
ATOM     18  N   UNL     1      -2.348  12.666  20.333  0.00  0.00    +0.000 N 
ATOM     19  C   UNL     1      -2.804  13.206  21.533  0.00  0.00    +0.000 C 
ATOM     20  O   UNL     1      -2.968  12.544  22.561  0.00  0.00    +0.000 OA
ATOM     21  C   UNL     1      -3.292  14.610  21.506  0.00  0.00    +0.000 C 
ATOM     22  C   UNL     1      -2.496  15.709  20.831  0.00  0.00    +0.000 C 
ATOM     23  C   UNL     1      -3.507  16.870  20.692  0.00  0.00    +0.000 C 
ATOM     24  C   UNL     1      -4.919  16.265  20.768  0.00  0.00    +0.000 C 
ATOM     25  C   UNL     1      -4.570  14.808  20.802  0.00  0.00    +0.000 C 
ATOM     26  N   UNL     1      -5.274  13.956  20.149  0.00  0.00    +0.000 NA
ATOM     27  C   UNL     1      -4.839  12.672  19.759  0.00  0.00    +0.000 A 
ATOM     28  C   UNL     1      -5.897  11.878  19.291  0.00  0.00    +0.000 A 
ATOM     29  C   UNL     1      -5.683  10.872  18.359  0.00  0.00    +0.000 A 
ATOM     30  C   UNL     1      -4.406  10.699  17.843  0.00  0.00    +0.000 A 
ATOM     31  C   UNL     1      -3.321  11.389  18.399  0.00  0.00    +0.000 A 
ATOM     32  C   UNL     1      -3.494  12.282  19.469  0.00  0.00    +0.000 A 
ENDBRANCH  17  18
ENDBRANCH   5  17
TORSDOF 4
ENDMDL
MODEL 5
REMARK VINA RESULT:      -7.4      2.404      9.880
REMARK  Name = 
REMARK  5 active torsions:
REMARK  status: ('A' for Active; 'I' for Inactive)
REMARK    1  A    between atoms: C_1  and  O_2
REMARK    2  A    between atoms: O_2  and  C_3
REMARK    3  A    between atoms: C_6  and  N_7
REMARK    4  A    between atoms: C_11  and  C_13
REMARK    5  A    between atoms: C_13  and  N_14
REMARK                            x       y       z     vdW  Elec       q    Type
REMARK                         _______ _______ _______ _____ _____    ______ ____
ROOT
ATOM      1  N   UNL     1      -0.866  11.290  19.537  0.00  0.00    +0.000 N 
ATOM      2  C   UNL     1       0.159  11.836  18.602  0.00  0.00    +0.000 C 
ATOM      3  C   UNL     1       1.515  11.036  18.611  0.00  0.00    +0.000 C 
ATOM      4  N   UNL     1       1.387   9.578  18.850  0.00  0.00    +0.000 N 
ATOM      5  C   UNL     1       2.144   8.623  18.174  0.00  0.00    +0.000 C 
ATOM      6  O   UNL     1       2.849   8.955  17.212  0.00  0.00    +0.000 OA
ATOM      7  C   UNL     1       0.442   9.290  19.910  0.00  0.00    +0.000 C 
ATOM      8  C   UNL     1      -0.929   9.820  19.491  0.00  0.00    +0.000 C 
ENDROOT
BRANCH   1  12
ATOM      9  C   UNL     1      -2.273  13.240  23.053  0.00  0.00    +0.000 A 
ATOM     10  C   UNL     1      -3.039  13.219  21.896  0.00  0.00    +0.000 A 
ATOM     11  C   UNL     1      -2.570  12.589  20.724  0.00  0.00    +0.000 A 
ATOM     12  C   UNL     1      -1.315  11.971  20.663  0.00  0.00    +0.000 A 
ATOM     13  C   UNL     1      -0.564  12.025  21.853  0.00  0.00    +0.000 A 
ATOM     14  C   UNL     1      -1.027  12.641  23.031  0.00  0.00    +0.000 A 
BRANCH   9  16
ATOM     15  C   UNL     1      -4.016  14.620  23.881  0.00  0.00    +0.000 C 
ATOM     16  O   UNL     1      -2.824  13.881  24.131  0.00  0.00    +0.000 OA
ENDBRANCH   9  16
ENDBRANCH   1  12
BRANCH   5  17
ATOM     17  C   UNL     1       2.177   7.118  18.665  0.00  0.00    +0.000 C 
BRANCH  17  18
ATOM     18  N   UNL     1       3.467   6.346  18.826  0.00  0.00    +0.000 N 
ATOM     19  C   UNL     1       4.062   5.983  17.619  0.00  0.00    +0.000 C 
ATOM     20  O   UNL     1       3.426   5.618  16.627  0.00  0.00    +0.000 OA
ATOM     21  C   UNL     1       5.543   5.855  17.603  0.00  0.00    +0.000 C 
ATOM     22  C   UNL     1       6.434   6.924  18.202  0.00  0.00    +0.000 C 
ATOM     23  C   UNL     1       7.812   6.235  18.325  0.00  0.00    +0.000 C 
ATOM     24  C   UNL     1       7.571   4.716  18.324  0.00  0.00    +0.000 C 
ATOM     25  C   UNL     1       6.073   4.697  18.341  0.00  0.00    +0.000 C 
ATOM     26  N   UNL     1       5.442   3.835  19.054  0.00  0.00    +0.000 NA
ATOM     27  C   UNL     1       4.104   3.959  19.484  0.00  0.00    +0.000 A 
ATOM     28  C   UNL     1       3.612   2.760  20.021  0.00  0.00    +0.000 A 
ATOM     29  C   UNL     1       2.615   2.762  20.988  0.00  0.00    +0.000 A 
ATOM     30  C   UNL     1       2.151   3.979  21.467  0.00  0.00    +0.000 A 
ATOM     31  C   UNL     1       2.533   5.175  20.845  0.00  0.00    +0.000 A 
ATOM     32  C   UNL     1       3.405   5.179  19.744  0.00  0.00    +0.000 A 
ENDBRANCH  17  18
ENDBRANCH   5  17
TORSDOF 4
ENDMDL
MODEL 6
REMARK VINA RESULT:      -7.4      2.680      4.940
REMARK  Name = 
REMARK  5 active torsions:
REMARK  status: ('A' for Active; 'I' for Inactive)
REMARK    1  A    between atoms: C_1  and  O_2
REMARK    2  A    between atoms: O_2  and  C_3
REMARK    3  A    between atoms: C_6  and  N_7
REMARK    4  A    between atoms: C_11  and  C_13
REMARK    5  A    between atoms: C_13  and  N_14
REMARK                            x       y       z     vdW  Elec       q    Type
REMARK                         _______ _______ _______ _____ _____    ______ ____
ROOT
ATOM      1  N   UNL     1       1.896   8.566  19.451  0.00  0.00    +0.000 N 
ATOM      2  C   UNL     1       1.865   9.394  18.212  0.00  0.00    +0.000 C 
ATOM      3  C   UNL     1       0.468  10.066  17.933  0.00  0.00    +0.000 C 
ATOM      4  N   UNL     1      -0.298  10.455  19.142  0.00  0.00    +0.000 N 
ATOM      5  C   UNL     1      -1.025  11.640  19.238  0.00  0.00    +0.000 C 
ATOM      6  O   UNL     1      -0.924  12.505  18.358  0.00  0.00    +0.000 OA
ATOM      7  C   UNL     1      -0.250   9.426  20.161  0.00  0.00    +0.000 C 
ATOM      8  C   UNL     1       1.208   9.224  20.574  0.00  0.00    +0.000 C 
ENDROOT
BRANCH   1  12
ATOM      9  C   UNL     1       2.244   4.322  19.348  0.00  0.00    +0.000 A 
ATOM     10  C   UNL     1       1.852   4.976  20.508  0.00  0.00    +0.000 A 
ATOM     11  C   UNL     1       1.751   6.382  20.552  0.00  0.00    +0.000 A 
ATOM     12  C   UNL     1       2.053   7.185  19.445  0.00  0.00    +0.000 A 
ATOM     13  C   UNL     1       2.460   6.484  18.293  0.00  0.00    +0.000 A 
ATOM     14  C   UNL     1       2.552   5.080  18.235  0.00  0.00    +0.000 A 
BRANCH   9  16
ATOM     15  C   UNL     1       2.271   2.259  18.176  0.00  0.00    +0.000 C 
ATOM     16  O   UNL     1       2.311   2.956  19.418  0.00  0.00    +0.000 OA
ENDBRANCH   9  16
ENDBRANCH   1  12
BRANCH   5  17
ATOM     17  C   UNL     1      -2.049  11.871  20.423  0.00  0.00    +0.000 C 
BRANCH  17  18
ATOM     18  N   UNL     1      -1.926  13.028  21.388  0.00  0.00    +0.000 N 
ATOM     19  C   UNL     1      -0.777  12.987  22.175  0.00  0.00    +0.000 C 
ATOM     20  O   UNL     1      -0.305  11.946  22.640  0.00  0.00    +0.000 OA
ATOM     21  C   UNL     1      -0.212  14.286  22.623  0.00  0.00    +0.000 C 
ATOM     22  C   UNL     1      -0.013  15.436  21.655  0.00  0.00    +0.000 C 
ATOM     23  C   UNL     1       0.206  16.661  22.571  0.00  0.00    +0.000 C 
ATOM     24  C   UNL     1      -0.393  16.322  23.947  0.00  0.00    +0.000 C 
ATOM     25  C   UNL     1      -1.014  14.995  23.634  0.00  0.00    +0.000 C 
ATOM     26  N   UNL     1      -2.161  14.684  24.120  0.00  0.00    +0.000 NA
ATOM     27  C   UNL     1      -3.023  13.696  23.598  0.00  0.00    +0.000 A 
ATOM     28  C   UNL     1      -4.077  13.402  24.477  0.00  0.00    +0.000 A 
ATOM     29  C   UNL     1      -5.301  12.949  24.005  0.00  0.00    +0.000 A 
ATOM     30  C   UNL     1      -5.494  12.849  22.634  0.00  0.00    +0.000 A 
ATOM     31  C   UNL     1      -4.413  13.008  21.756  0.00  0.00    +0.000 A 
ATOM     32  C   UNL     1      -3.122  13.290  22.231  0.00  0.00    +0.000 A 
ENDBRANCH  17  18
ENDBRANCH   5  17
TORSDOF 4
ENDMDL
MODEL 7
REMARK VINA RESULT:      -7.3      2.717      4.732
REMARK  Name = 
REMARK  5 active torsions:
REMARK  status: ('A' for Active; 'I' for Inactive)
REMARK    1  A    between atoms: C_1  and  O_2
REMARK    2  A    between atoms: O_2  and  C_3
REMARK    3  A    between atoms: C_6  and  N_7
REMARK    4  A    between atoms: C_11  and  C_13
REMARK    5  A    between atoms: C_13  and  N_14
REMARK                            x       y       z     vdW  Elec       q    Type
REMARK                         _______ _______ _______ _____ _____    ______ ____
ROOT
ATOM      1  N   UNL     1       2.201   7.749  19.478  0.00  0.00    +0.000 N 
ATOM      2  C   UNL     1       2.255   8.648  18.289  0.00  0.00    +0.000 C 
ATOM      3  C   UNL     1       0.971   9.542  18.112  0.00  0.00    +0.000 C 
ATOM      4  N   UNL     1       0.319   9.969  19.374  0.00  0.00    +0.000 N 
ATOM      5  C   UNL     1      -0.210  11.243  19.568  0.00  0.00    +0.000 C 
ATOM      6  O   UNL     1      -0.006  12.135  18.734  0.00  0.00    +0.000 OA
ATOM      7  C   UNL     1       0.243   8.883  20.331  0.00  0.00    +0.000 C 
ATOM      8  C   UNL     1       1.666   8.435  20.665  0.00  0.00    +0.000 C 
ENDROOT
BRANCH   1  12
ATOM      9  C   UNL     1       2.151   3.495  19.272  0.00  0.00    +0.000 A 
ATOM     10  C   UNL     1       2.416   4.259  18.144  0.00  0.00    +0.000 A 
ATOM     11  C   UNL     1       2.418   5.668  18.204  0.00  0.00    +0.000 A 
ATOM     12  C   UNL     1       2.140   6.363  19.387  0.00  0.00    +0.000 A 
ATOM     13  C   UNL     1       1.862   5.552  20.504  0.00  0.00    +0.000 A 
ATOM     14  C   UNL     1       1.870   4.145  20.459  0.00  0.00    +0.000 A 
BRANCH   9  16
ATOM     15  C   UNL     1       3.320   1.604  18.443  0.00  0.00    +0.000 C 
ATOM     16  O   UNL     1       2.173   2.136  19.100  0.00  0.00    +0.000 OA
ENDBRANCH   9  16
ENDBRANCH   1  12
BRANCH   5  17
ATOM     17  C   UNL     1      -1.141  11.555  20.810  0.00  0.00    +0.000 C 
BRANCH  17  18
ATOM     18  N   UNL     1      -1.543  12.961  21.191  0.00  0.00    +0.000 N 
ATOM     19  C   UNL     1      -1.059  13.370  22.432  0.00  0.00    +0.000 C 
ATOM     20  O   UNL     1      -0.990  12.628  23.415  0.00  0.00    +0.000 OA
ATOM     21  C   UNL     1      -0.796  14.821  22.616  0.00  0.00    +0.000 C 
ATOM     22  C   UNL     1      -0.023  15.620  21.586  0.00  0.00    +0.000 C 
ATOM     23  C   UNL     1      -0.316  17.091  21.958  0.00  0.00    +0.000 C 
ATOM     24  C   UNL     1      -1.612  17.109  22.785  0.00  0.00    +0.000 C 
ATOM     25  C   UNL     1      -2.000  15.666  22.682  0.00  0.00    +0.000 C 
ATOM     26  N   UNL     1      -3.231  15.333  22.527  0.00  0.00    +0.000 NA
ATOM     27  C   UNL     1      -3.680  14.099  22.011  0.00  0.00    +0.000 A 
ATOM     28  C   UNL     1      -5.059  13.923  22.198  0.00  0.00    +0.000 A 
ATOM     29  C   UNL     1      -5.808  13.141  21.329  0.00  0.00    +0.000 A 
ATOM     30  C   UNL     1      -5.180  12.579  20.225  0.00  0.00    +0.000 A 
ATOM     31  C   UNL     1      -3.785  12.634  20.103  0.00  0.00    +0.000 A 
ATOM     32  C   UNL     1      -2.991  13.269  21.072  0.00  0.00    +0.000 A 
ENDBRANCH  17  18
ENDBRANCH   5  17
TORSDOF 4
ENDMDL
MODEL 8
REMARK VINA RESULT:      -7.3      2.424      9.834
REMARK  Name = 
REMARK  5 active torsions:
REMARK  status: ('A' for Active; 'I' for Inactive)
REMARK    1  A    between atoms: C_1  and  O_2
REMARK    2  A    between atoms: O_2  and  C_3
REMARK    3  A    between atoms: C_6  and  N_7
REMARK    4  A    between atoms: C_11  and  C_13
REMARK    5  A    between atoms: C_13  and  N_14
REMARK                            x       y       z     vdW  Elec       q    Type
REMARK                         _______ _______ _______ _____ _____    ______ ____
ROOT
ATOM      1  N   UNL     1      -1.082  11.303  20.457  0.00  0.00    +0.000 N 
ATOM      2  C   UNL     1      -0.927  11.336  18.974  0.00  0.00    +0.000 C 
ATOM      3  C   UNL     1       0.441  10.742  18.467  0.00  0.00    +0.000 C 
ATOM      4  N   UNL     1       0.983   9.623  19.276  0.00  0.00    +0.000 N 
ATOM      5  C   UNL     1       1.594   8.502  18.717  0.00  0.00    +0.000 C 
ATOM      6  O   UNL     1       1.560   8.320  17.493  0.00  0.00    +0.000 OA
ATOM      7  C   UNL     1       0.860   9.881  20.697  0.00  0.00    +0.000 C 
ATOM      8  C   UNL     1      -0.624  10.028  21.033  0.00  0.00    +0.000 C 
ENDROOT
BRANCH   1  12
ATOM      9  C   UNL     1      -1.073  14.821  22.859  0.00  0.00    +0.000 A 
ATOM     10  C   UNL     1      -1.217  13.566  23.435  0.00  0.00    +0.000 A 
ATOM     11  C   UNL     1      -1.237  12.399  22.642  0.00  0.00    +0.000 A 
ATOM     12  C   UNL     1      -1.129  12.446  21.247  0.00  0.00    +0.000 A 
ATOM     13  C   UNL     1      -0.998  13.738  20.701  0.00  0.00    +0.000 A 
ATOM     14  C   UNL     1      -0.965  14.908  21.484  0.00  0.00    +0.000 A 
BRANCH   9  16
ATOM     15  C   UNL     1      -2.152  16.802  23.595  0.00  0.00    +0.000 C 
ATOM     16  O   UNL     1      -1.069  15.885  23.722  0.00  0.00    +0.000 OA
ENDBRANCH   9  16
ENDBRANCH   1  12
BRANCH   5  17
ATOM     17  C   UNL     1       2.405   7.485  19.621  0.00  0.00    +0.000 C 
BRANCH  17  18
ATOM     18  N   UNL     1       2.631   6.046  19.220  0.00  0.00    +0.000 N 
ATOM     19  C   UNL     1       2.409   5.132  20.249  0.00  0.00    +0.000 C 
ATOM     20  O   UNL     1       2.722   5.339  21.424  0.00  0.00    +0.000 OA
ATOM     21  C   UNL     1       1.945   3.774  19.864  0.00  0.00    +0.000 C 
ATOM     22  C   UNL     1       0.809   3.577  18.881  0.00  0.00    +0.000 C 
ATOM     23  C   UNL     1       0.917   2.088  18.479  0.00  0.00    +0.000 C 
ATOM     24  C   UNL     1       2.355   1.632  18.780  0.00  0.00    +0.000 C 
ATOM     25  C   UNL     1       2.956   2.941  19.192  0.00  0.00    +0.000 C 
ATOM     26  N   UNL     1       4.147   3.251  18.828  0.00  0.00    +0.000 NA
ATOM     27  C   UNL     1       4.666   4.563  18.781  0.00  0.00    +0.000 A 
ATOM     28  C   UNL     1       6.057   4.570  18.595  0.00  0.00    +0.000 A 
ATOM     29  C   UNL     1       6.692   5.631  17.963  0.00  0.00    +0.000 A 
ATOM     30  C   UNL     1       5.918   6.666  17.455  0.00  0.00    +0.000 A 
ATOM     31  C   UNL     1       4.551   6.737  17.752  0.00  0.00    +0.000 A 
ATOM     32  C   UNL     1       3.925   5.762  18.547  0.00  0.00    +0.000 A 
ENDBRANCH  17  18
ENDBRANCH   5  17
TORSDOF 4
ENDMDL
MODEL 9
REMARK VINA RESULT:      -7.3      1.867      3.050
REMARK  Name = 
REMARK  5 active torsions:
REMARK  status: ('A' for Active; 'I' for Inactive)
REMARK    1  A    between atoms: C_1  and  O_2
REMARK    2  A    between atoms: O_2  and  C_3
REMARK    3  A    between atoms: C_6  and  N_7
REMARK    4  A    between atoms: C_11  and  C_13
REMARK    5  A    between atoms: C_13  and  N_14
REMARK                            x       y       z     vdW  Elec       q    Type
REMARK                         _______ _______ _______ _____ _____    ______ ____
ROOT
ATOM      1  N   UNL     1       2.587   6.178  18.205  0.00  0.00    +0.000 N 
ATOM      2  C   UNL     1       2.300   5.949  19.651  0.00  0.00    +0.000 C 
ATOM      3  C   UNL     1       2.153   7.277  20.485  0.00  0.00    +0.000 C 
ATOM      4  N   UNL     1       1.560   8.422  19.752  0.00  0.00    +0.000 N 
ATOM      5  C   UNL     1       0.647   9.306  20.323  0.00  0.00    +0.000 C 
ATOM      6  O   UNL     1       0.163   9.067  21.437  0.00  0.00    +0.000 OA
ATOM      7  C   UNL     1       2.103   8.538  18.413  0.00  0.00    +0.000 C 
ATOM      8  C   UNL     1       1.765   7.262  17.643  0.00  0.00    +0.000 C 
ENDROOT
BRANCH   1  12
ATOM      9  C   UNL     1       6.225   5.189  16.223  0.00  0.00    +0.000 A 
ATOM     10  C   UNL     1       5.229   4.238  16.399  0.00  0.00    +0.000 A 
ATOM     11  C   UNL     1       4.029   4.557  17.069  0.00  0.00    +0.000 A 
ATOM     12  C   UNL     1       3.789   5.830  17.600  0.00  0.00    +0.000 A 
ATOM     13  C   UNL     1       4.829   6.761  17.413  0.00  0.00    +0.000 A 
ATOM     14  C   UNL     1       6.025   6.457  16.735  0.00  0.00    +0.000 A 
BRANCH   9  16
ATOM     15  C   UNL     1       7.281   4.783  14.138  0.00  0.00    +0.000 C 
ATOM     16  O   UNL     1       7.349   4.771  15.561  0.00  0.00    +0.000 OA
ENDBRANCH   9  16
ENDBRANCH   1  12
BRANCH   5  17
ATOM     17  C   UNL     1       0.271  10.664  19.600  0.00  0.00    +0.000 C 
BRANCH  17  18
ATOM     18  N   UNL     1      -0.321  11.841  20.341  0.00  0.00    +0.000 N 
ATOM     19  C   UNL     1      -1.703  11.957  20.202  0.00  0.00    +0.000 C 
ATOM     20  O   UNL     1      -2.305  11.723  19.151  0.00  0.00    +0.000 OA
ATOM     21  C   UNL     1      -2.451  12.576  21.328  0.00  0.00    +0.000 C 
ATOM     22  C   UNL     1      -2.211  12.151  22.762  0.00  0.00    +0.000 C 
ATOM     23  C   UNL     1      -2.868  13.273  23.599  0.00  0.00    +0.000 C 
ATOM     24  C   UNL     1      -2.968  14.519  22.702  0.00  0.00    +0.000 C 
ATOM     25  C   UNL     1      -2.233  14.023  21.495  0.00  0.00    +0.000 C 
ATOM     26  N   UNL     1      -1.435  14.800  20.856  0.00  0.00    +0.000 NA
ATOM     27  C   UNL     1      -0.399  14.372  19.998  0.00  0.00    +0.000 A 
ATOM     28  C   UNL     1       0.133  15.433  19.249  0.00  0.00    +0.000 A 
ATOM     29  C   UNL     1       1.449  15.412  18.809  0.00  0.00    +0.000 A 
ATOM     30  C   UNL     1       2.261  14.347  19.176  0.00  0.00    +0.000 A 
ATOM     31  C   UNL     1       1.708  13.223  19.804  0.00  0.00    +0.000 A 
ATOM     32  C   UNL     1       0.336  13.150  20.096  0.00  0.00    +0.000 A 
ENDBRANCH  17  18
ENDBRANCH   5  17
TORSDOF 4
ENDMDL
