MODEL 1
REMARK VINA RESULT:      -5.5      0.000      0.000
REMARK  Name = 
REMARK  10 active torsions:
REMARK  status: ('A' for Active; 'I' for Inactive)
REMARK    1  A    between atoms: C_1  and  O_2
REMARK    2  A    between atoms: O_2  and  C_3
REMARK    3  A    between atoms: C_8  and  O_9
REMARK    4  A    between atoms: O_9  and  C_10
REMARK    5  A    between atoms: C_11  and  C_12
REMARK    6  A    between atoms: C_12  and  C_13
REMARK    7  A    between atoms: C_13  and  C_14
REMARK    8  A    between atoms: C_13  and  C_15
REMARK    9  A    between atoms: N_16  and  C_17
REMARK   10  A    between atoms: N_16  and  C_18
REMARK                            x       y       z     vdW  Elec       q    Type
REMARK                         _______ _______ _______ _____ _____    ______ ____
ROOT
ATOM      1  C   UNL     1       2.480   6.012  19.764  0.00  0.00    +0.000 A 
ATOM      2  C   UNL     1       2.946   6.692  18.640  0.00  0.00    +0.000 A 
ATOM      3  C   UNL     1       4.064   6.250  17.929  0.00  0.00    +0.000 A 
ATOM      4  C   UNL     1       4.757   5.080  18.339  0.00  0.00    +0.000 A 
ATOM      5  C   UNL     1       4.309   4.412  19.488  0.00  0.00    +0.000 A 
ATOM      6  C   UNL     1       3.180   4.860  20.208  0.00  0.00    +0.000 A 
ATOM      7  C   UNL     1       5.880   4.474  17.484  0.00  0.00    +0.000 C 
ATOM      8  N   UNL     1       5.755   4.963  16.046  0.00  0.00    +0.000 N 
ATOM      9  C   UNL     1       4.527   4.386  15.418  0.00  0.00    +0.000 C 
ATOM     10  C   UNL     1       6.888   4.524  15.192  0.00  0.00    +0.000 C 
ATOM     11  C   UNL     1       5.706   6.452  16.020  0.00  0.00    +0.000 C 
ATOM     12  C   UNL     1       4.445   7.011  16.687  0.00  0.00    +0.000 C 
ENDROOT
BRANCH   1  14
ATOM     13  C   UNL     1       1.157   7.710  20.959  0.00  0.00    +0.000 C 
ATOM     14  O   UNL     1       1.348   6.489  20.344  0.00  0.00    +0.000 OA
ENDBRANCH   1  14
BRANCH   6  15
ATOM     15  O   UNL     1       2.746   4.201  21.309  0.00  0.00    +0.000 OA
ATOM     16  C   UNL     1       2.399   2.870  21.396  0.00  0.00    +0.000 C 
ENDBRANCH   6  15
BRANCH   7  17
ATOM     17  C   UNL     1       7.315   4.704  18.108  0.00  0.00    +0.000 C 
BRANCH  17  18
ATOM     18  C   UNL     1       7.552   5.790  19.200  0.00  0.00    +0.000 C 
ATOM     19  C   UNL     1       8.535   5.365  20.307  0.00  0.00    +0.000 C 
ATOM     20  C   UNL     1       8.136   7.040  18.509  0.00  0.00    +0.000 C 
ENDBRANCH  17  18
ENDBRANCH   7  17
TORSDOF 4
ENDMDL
MODEL 2
REMARK VINA RESULT:      -5.4      1.378      1.584
REMARK  Name = 
REMARK  10 active torsions:
REMARK  status: ('A' for Active; 'I' for Inactive)
REMARK    1  A    between atoms: C_1  and  O_2
REMARK    2  A    between atoms: O_2  and  C_3
REMARK    3  A    between atoms: C_8  and  O_9
REMARK    4  A    between atoms: O_9  and  C_10
REMARK    5  A    between atoms: C_11  and  C_12
REMARK    6  A    between atoms: C_12  and  C_13
REMARK    7  A    between atoms: C_13  and  C_14
REMARK    8  A    between atoms: C_13  and  C_15
REMARK    9  A    between atoms: N_16  and  C_17
REMARK   10  A    between atoms: N_16  and  C_18
REMARK                            x       y       z     vdW  Elec       q    Type
REMARK                         _______ _______ _______ _____ _____    ______ ____
ROOT
ATOM      1  C   UNL     1       2.762   4.310  19.534  0.00  0.00    +0.000 A 
ATOM      2  C   UNL     1       2.917   5.305  18.570  0.00  0.00    +0.000 A 
ATOM      3  C   UNL     1       4.073   5.396  17.791  0.00  0.00    +0.000 A 
ATOM      4  C   UNL     1       5.128   4.461  17.964  0.00  0.00    +0.000 A 
ATOM      5  C   UNL     1       4.988   3.478  18.954  0.00  0.00    +0.000 A 
ATOM      6  C   UNL     1       3.820   3.388  19.743  0.00  0.00    +0.000 A 
ATOM      7  C   UNL     1       6.333   4.430  17.012  0.00  0.00    +0.000 C 
ATOM      8  N   UNL     1       5.972   5.116  15.700  0.00  0.00    +0.000 N 
ATOM      9  C   UNL     1       4.959   4.300  14.962  0.00  0.00    +0.000 C 
ATOM     10  C   UNL     1       7.133   5.241  14.782  0.00  0.00    +0.000 C 
ATOM     11  C   UNL     1       5.446   6.483  15.971  0.00  0.00    +0.000 C 
ATOM     12  C   UNL     1       4.115   6.462  16.729  0.00  0.00    +0.000 C 
ENDROOT
BRANCH   1  14
ATOM     13  C   UNL     1       0.527   3.394  20.004  0.00  0.00    +0.000 C 
ATOM     14  O   UNL     1       1.574   4.272  20.190  0.00  0.00    +0.000 OA
ENDBRANCH   1  14
BRANCH   6  15
ATOM     15  O   UNL     1       3.687   2.426  20.688  0.00  0.00    +0.000 OA
ATOM     16  C   UNL     1       4.618   1.474  21.040  0.00  0.00    +0.000 C 
ENDBRANCH   6  15
BRANCH   7  17
ATOM     17  C   UNL     1       7.653   4.992  17.678  0.00  0.00    +0.000 C 
BRANCH  17  18
ATOM     18  C   UNL     1       7.588   6.010  18.856  0.00  0.00    +0.000 C 
ATOM     19  C   UNL     1       8.397   5.588  20.097  0.00  0.00    +0.000 C 
ATOM     20  C   UNL     1       8.162   7.353  18.357  0.00  0.00    +0.000 C 
ENDBRANCH  17  18
ENDBRANCH   7  17
TORSDOF 4
ENDMDL
MODEL 3
REMARK VINA RESULT:      -5.3      6.125      9.097
REMARK  Name = 
REMARK  10 active torsions:
REMARK  status: ('A' for Active; 'I' for Inactive)
REMARK    1  A    between atoms: C_1  and  O_2
REMARK    2  A    between atoms: O_2  and  C_3
REMARK    3  A    between atoms: C_8  and  O_9
REMARK    4  A    between atoms: O_9  and  C_10
REMARK    5  A    between atoms: C_11  and  C_12
REMARK    6  A    between atoms: C_12  and  C_13
REMARK    7  A    between atoms: C_13  and  C_14
REMARK    8  A    between atoms: C_13  and  C_15
REMARK    9  A    between atoms: N_16  and  C_17
REMARK   10  A    between atoms: N_16  and  C_18
REMARK                            x       y       z     vdW  Elec       q    Type
REMARK                         _______ _______ _______ _____ _____    ______ ____
ROOT
ATOM      1  C   UNL     1      -3.916  11.114  17.703  0.00  0.00    +0.000 A 
ATOM      2  C   UNL     1      -3.585  11.842  18.845  0.00  0.00    +0.000 A 
ATOM      3  C   UNL     1      -2.276  11.884  19.331  0.00  0.00    +0.000 A 
ATOM      4  C   UNL     1      -1.240  11.180  18.661  0.00  0.00    +0.000 A 
ATOM      5  C   UNL     1      -1.577  10.422  17.530  0.00  0.00    +0.000 A 
ATOM      6  C   UNL     1      -2.900  10.378  17.040  0.00  0.00    +0.000 A 
ATOM      7  C   UNL     1       0.232  11.343  19.070  0.00  0.00    +0.000 C 
ATOM      8  N   UNL     1       0.411  12.642  19.846  0.00  0.00    +0.000 N 
ATOM      9  C   UNL     1       0.199  13.810  18.937  0.00  0.00    +0.000 C 
ATOM     10  C   UNL     1       1.785  12.799  20.389  0.00  0.00    +0.000 C 
ATOM     11  C   UNL     1      -0.546  12.686  20.987  0.00  0.00    +0.000 C 
ATOM     12  C   UNL     1      -2.006  12.754  20.530  0.00  0.00    +0.000 C 
ENDROOT
BRANCH   1  14
ATOM     13  C   UNL     1      -6.352  11.213  18.043  0.00  0.00    +0.000 C 
ATOM     14  O   UNL     1      -5.204  11.193  17.278  0.00  0.00    +0.000 OA
ENDBRANCH   1  14
BRANCH   6  15
ATOM     15  O   UNL     1      -3.214   9.655  15.938  0.00  0.00    +0.000 OA
ATOM     16  C   UNL     1      -3.128  10.064  14.625  0.00  0.00    +0.000 C 
ENDBRANCH   6  15
BRANCH   7  17
ATOM     17  C   UNL     1       0.802  10.073  19.820  0.00  0.00    +0.000 C 
BRANCH  17  18
ATOM     18  C   UNL     1       1.219   8.794  19.032  0.00  0.00    +0.000 C 
ATOM     19  C   UNL     1       2.188   9.063  17.866  0.00  0.00    +0.000 C 
ATOM     20  C   UNL     1       1.925   7.838  20.017  0.00  0.00    +0.000 C 
ENDBRANCH  17  18
ENDBRANCH   7  17
TORSDOF 4
ENDMDL
MODEL 4
REMARK VINA RESULT:      -5.2      2.995      5.464
REMARK  Name = 
REMARK  10 active torsions:
REMARK  status: ('A' for Active; 'I' for Inactive)
REMARK    1  A    between atoms: C_1  and  O_2
REMARK    2  A    between atoms: O_2  and  C_3
REMARK    3  A    between atoms: C_8  and  O_9
REMARK    4  A    between atoms: O_9  and  C_10
REMARK    5  A    between atoms: C_11  and  C_12
REMARK    6  A    between atoms: C_12  and  C_13
REMARK    7  A    between atoms: C_13  and  C_14
REMARK    8  A    between atoms: C_13  and  C_15
REMARK    9  A    between atoms: N_16  and  C_17
REMARK   10  A    between atoms: N_16  and  C_18
REMARK                            x       y       z     vdW  Elec       q    Type
REMARK                         _______ _______ _______ _____ _____    ______ ____
ROOT
ATOM      1  C   UNL     1       6.280   5.147  16.532  0.00  0.00    +0.000 A 
ATOM      2  C   UNL     1       5.031   4.607  16.230  0.00  0.00    +0.000 A 
ATOM      3  C   UNL     1       4.119   4.268  17.232  0.00  0.00    +0.000 A 
ATOM      4  C   UNL     1       4.446   4.473  18.598  0.00  0.00    +0.000 A 
ATOM      5  C   UNL     1       5.714   4.987  18.906  0.00  0.00    +0.000 A 
ATOM      6  C   UNL     1       6.638   5.328  17.894  0.00  0.00    +0.000 A 
ATOM      7  C   UNL     1       3.405   4.271  19.710  0.00  0.00    +0.000 C 
ATOM      8  N   UNL     1       2.001   4.346  19.121  0.00  0.00    +0.000 N 
ATOM      9  C   UNL     1       1.716   5.741  18.663  0.00  0.00    +0.000 C 
ATOM     10  C   UNL     1       0.947   4.026  20.116  0.00  0.00    +0.000 C 
ATOM     11  C   UNL     1       1.876   3.387  17.988  0.00  0.00    +0.000 C 
ATOM     12  C   UNL     1       2.769   3.758  16.800  0.00  0.00    +0.000 C 
ENDROOT
BRANCH   1  14
ATOM     13  C   UNL     1       7.091   4.954  14.216  0.00  0.00    +0.000 C 
ATOM     14  O   UNL     1       7.066   5.501  15.482  0.00  0.00    +0.000 OA
ENDBRANCH   1  14
BRANCH   6  15
ATOM     15  O   UNL     1       7.855   5.837  18.200  0.00  0.00    +0.000 OA
ATOM     16  C   UNL     1       8.148   7.141  18.536  0.00  0.00    +0.000 C 
ENDBRANCH   6  15
BRANCH   7  17
ATOM     17  C   UNL     1       3.666   2.965  20.562  0.00  0.00    +0.000 C 
BRANCH  17  18
ATOM     18  C   UNL     1       4.687   1.887  20.087  0.00  0.00    +0.000 C 
ATOM     19  C   UNL     1       5.252   1.014  21.224  0.00  0.00    +0.000 C 
ATOM     20  C   UNL     1       3.964   0.952  19.094  0.00  0.00    +0.000 C 
ENDBRANCH  17  18
ENDBRANCH   7  17
TORSDOF 4
ENDMDL
MODEL 5
REMARK VINA RESULT:      -5.2      7.297      9.792
REMARK  Name = 
REMARK  10 active torsions:
REMARK  status: ('A' for Active; 'I' for Inactive)
REMARK    1  A    between atoms: C_1  and  O_2
REMARK    2  A    between atoms: O_2  and  C_3
REMARK    3  A    between atoms: C_8  and  O_9
REMARK    4  A    between atoms: O_9  and  C_10
REMARK    5  A    between atoms: C_11  and  C_12
REMARK    6  A    between atoms: C_12  and  C_13
REMARK    7  A    between atoms: C_13  and  C_14
REMARK    8  A    between atoms: C_13  and  C_15
REMARK    9  A    between atoms: N_16  and  C_17
REMARK   10  A    between atoms: N_16  and  C_18
REMARK                            x       y       z     vdW  Elec       q    Type
REMARK                         _______ _______ _______ _____ _____    ______ ____
ROOT
ATOM      1  C   UNL     1      -3.895  11.225  17.996  0.00  0.00    +0.000 A 
ATOM      2  C   UNL     1      -3.773  12.079  19.090  0.00  0.00    +0.000 A 
ATOM      3  C   UNL     1      -2.539  12.310  19.703  0.00  0.00    +0.000 A 
ATOM      4  C   UNL     1      -1.366  11.676  19.215  0.00  0.00    +0.000 A 
ATOM      5  C   UNL     1      -1.492  10.792  18.133  0.00  0.00    +0.000 A 
ATOM      6  C   UNL     1      -2.739  10.556  17.515  0.00  0.00    +0.000 A 
ATOM      7  C   UNL     1       0.025  12.040  19.756  0.00  0.00    +0.000 C 
ATOM      8  N   UNL     1      -0.021  13.411  20.418  0.00  0.00    +0.000 N 
ATOM      9  C   UNL     1      -0.250  14.467  19.384  0.00  0.00    +0.000 C 
ATOM     10  C   UNL     1       1.258  13.769  21.082  0.00  0.00    +0.000 C 
ATOM     11  C   UNL     1      -1.100  13.441  21.444  0.00  0.00    +0.000 C 
ATOM     12  C   UNL     1      -2.499  13.304  20.834  0.00  0.00    +0.000 C 
ENDROOT
BRANCH   1  14
ATOM     13  C   UNL     1      -6.121  12.075  17.381  0.00  0.00    +0.000 C 
ATOM     14  O   UNL     1      -5.128  11.120  17.435  0.00  0.00    +0.000 OA
ENDBRANCH   1  14
BRANCH   6  15
ATOM     15  O   UNL     1      -2.849   9.712  16.461  0.00  0.00    +0.000 OA
ATOM     16  C   UNL     1      -2.835  10.047  15.124  0.00  0.00    +0.000 C 
ENDBRANCH   6  15
BRANCH   7  17
ATOM     17  C   UNL     1       0.636  10.910  20.679  0.00  0.00    +0.000 C 
BRANCH  17  18
ATOM     18  C   UNL     1      -0.278   9.847  21.359  0.00  0.00    +0.000 C 
ATOM     19  C   UNL     1       0.311   8.424  21.365  0.00  0.00    +0.000 C 
ATOM     20  C   UNL     1      -0.490  10.272  22.828  0.00  0.00    +0.000 C 
ENDBRANCH  17  18
ENDBRANCH   7  17
TORSDOF 4
ENDMDL
MODEL 6
REMARK VINA RESULT:      -5.2      8.016      9.845
REMARK  Name = 
REMARK  10 active torsions:
REMARK  status: ('A' for Active; 'I' for Inactive)
REMARK    1  A    between atoms: C_1  and  O_2
REMARK    2  A    between atoms: O_2  and  C_3
REMARK    3  A    between atoms: C_8  and  O_9
REMARK    4  A    between atoms: O_9  and  C_10
REMARK    5  A    between atoms: C_11  and  C_12
REMARK    6  A    between atoms: C_12  and  C_13
REMARK    7  A    between atoms: C_13  and  C_14
REMARK    8  A    between atoms: C_13  and  C_15
REMARK    9  A    between atoms: N_16  and  C_17
REMARK   10  A    between atoms: N_16  and  C_18
REMARK                            x       y       z     vdW  Elec       q    Type
REMARK                         _______ _______ _______ _____ _____    ______ ____
ROOT
ATOM      1  C   UNL     1       8.524  12.664  23.217  0.00  0.00    +0.000 A 
ATOM      2  C   UNL     1       8.727  11.662  22.269  0.00  0.00    +0.000 A 
ATOM      3  C   UNL     1       9.289  11.940  21.020  0.00  0.00    +0.000 A 
ATOM      4  C   UNL     1       9.677  13.265  20.688  0.00  0.00    +0.000 A 
ATOM      5  C   UNL     1       9.446  14.279  21.628  0.00  0.00    +0.000 A 
ATOM      6  C   UNL     1       8.875  14.000  22.889  0.00  0.00    +0.000 A 
ATOM      7  C   UNL     1      10.450  13.572  19.396  0.00  0.00    +0.000 C 
ATOM      8  N   UNL     1      11.123  12.305  18.885  0.00  0.00    +0.000 N 
ATOM      9  C   UNL     1      12.214  11.894  19.823  0.00  0.00    +0.000 C 
ATOM     10  C   UNL     1      11.779  12.498  17.566  0.00  0.00    +0.000 C 
ATOM     11  C   UNL     1      10.116  11.217  18.746  0.00  0.00    +0.000 C 
ATOM     12  C   UNL     1       9.532  10.779  20.093  0.00  0.00    +0.000 C 
ENDROOT
BRANCH   1  14
ATOM     13  C   UNL     1       6.884  11.555  24.678  0.00  0.00    +0.000 C 
ATOM     14  O   UNL     1       8.031  12.277  24.422  0.00  0.00    +0.000 OA
ENDBRANCH   1  14
BRANCH   6  15
ATOM     15  O   UNL     1       8.669  14.983  23.798  0.00  0.00    +0.000 OA
ATOM     16  C   UNL     1       7.518  15.720  23.977  0.00  0.00    +0.000 C 
ENDBRANCH   6  15
BRANCH   7  17
ATOM     17  C   UNL     1       9.561  14.301  18.310  0.00  0.00    +0.000 C 
BRANCH  17  18
ATOM     18  C   UNL     1       8.007  14.194  18.341  0.00  0.00    +0.000 C 
ATOM     19  C   UNL     1       7.280  15.518  18.036  0.00  0.00    +0.000 C 
ATOM     20  C   UNL     1       7.579  13.168  17.270  0.00  0.00    +0.000 C 
ENDBRANCH  17  18
ENDBRANCH   7  17
TORSDOF 4
ENDMDL
MODEL 7
REMARK VINA RESULT:      -5.1      1.779      4.082
REMARK  Name = 
REMARK  10 active torsions:
REMARK  status: ('A' for Active; 'I' for Inactive)
REMARK    1  A    between atoms: C_1  and  O_2
REMARK    2  A    between atoms: O_2  and  C_3
REMARK    3  A    between atoms: C_8  and  O_9
REMARK    4  A    between atoms: O_9  and  C_10
REMARK    5  A    between atoms: C_11  and  C_12
REMARK    6  A    between atoms: C_12  and  C_13
REMARK    7  A    between atoms: C_13  and  C_14
REMARK    8  A    between atoms: C_13  and  C_15
REMARK    9  A    between atoms: N_16  and  C_17
REMARK   10  A    between atoms: N_16  and  C_18
REMARK                            x       y       z     vdW  Elec       q    Type
REMARK                         _______ _______ _______ _____ _____    ______ ____
ROOT
ATOM      1  C   UNL     1       2.165   7.720  19.236  0.00  0.00    +0.000 A 
ATOM      2  C   UNL     1       2.735   6.558  19.755  0.00  0.00    +0.000 A 
ATOM      3  C   UNL     1       3.743   5.871  19.074  0.00  0.00    +0.000 A 
ATOM      4  C   UNL     1       4.219   6.350  17.825  0.00  0.00    +0.000 A 
ATOM      5  C   UNL     1       3.626   7.501  17.287  0.00  0.00    +0.000 A 
ATOM      6  C   UNL     1       2.605   8.194  17.973  0.00  0.00    +0.000 A 
ATOM      7  C   UNL     1       5.438   5.716  17.137  0.00  0.00    +0.000 C 
ATOM      8  N   UNL     1       6.269   4.954  18.161  0.00  0.00    +0.000 N 
ATOM      9  C   UNL     1       6.903   5.914  19.118  0.00  0.00    +0.000 C 
ATOM     10  C   UNL     1       7.392   4.204  17.542  0.00  0.00    +0.000 C 
ATOM     11  C   UNL     1       5.408   3.981  18.890  0.00  0.00    +0.000 C 
ATOM     12  C   UNL     1       4.343   4.666  19.751  0.00  0.00    +0.000 C 
ENDROOT
BRANCH   1  14
ATOM     13  C   UNL     1       1.139   8.348  21.383  0.00  0.00    +0.000 C 
ATOM     14  O   UNL     1       1.238   8.345  20.007  0.00  0.00    +0.000 OA
ENDBRANCH   1  14
BRANCH   6  15
ATOM     15  O   UNL     1       2.048   9.314  17.452  0.00  0.00    +0.000 OA
ATOM     16  C   UNL     1       2.188  10.604  17.916  0.00  0.00    +0.000 C 
ENDBRANCH   6  15
BRANCH   7  17
ATOM     17  C   UNL     1       5.045   4.854  15.871  0.00  0.00    +0.000 C 
BRANCH  17  18
ATOM     18  C   UNL     1       5.716   5.107  14.487  0.00  0.00    +0.000 C 
ATOM     19  C   UNL     1       7.247   5.272  14.551  0.00  0.00    +0.000 C 
ATOM     20  C   UNL     1       5.413   3.894  13.583  0.00  0.00    +0.000 C 
ENDBRANCH  17  18
ENDBRANCH   7  17
TORSDOF 4
ENDMDL
MODEL 8
REMARK VINA RESULT:      -5.1      3.497      6.250
REMARK  Name = 
REMARK  10 active torsions:
REMARK  status: ('A' for Active; 'I' for Inactive)
REMARK    1  A    between atoms: C_1  and  O_2
REMARK    2  A    between atoms: O_2  and  C_3
REMARK    3  A    between atoms: C_8  and  O_9
REMARK    4  A    between atoms: O_9  and  C_10
REMARK    5  A    between atoms: C_11  and  C_12
REMARK    6  A    between atoms: C_12  and  C_13
REMARK    7  A    between atoms: C_13  and  C_14
REMARK    8  A    between atoms: C_13  and  C_15
REMARK    9  A    between atoms: N_16  and  C_17
REMARK   10  A    between atoms: N_16  and  C_18
REMARK                            x       y       z     vdW  Elec       q    Type
REMARK                         _______ _______ _______ _____ _____    ______ ____
ROOT
ATOM      1  C   UNL     1       6.405   5.322  14.180  0.00  0.00    +0.000 A 
ATOM      2  C   UNL     1       5.959   6.263  15.107  0.00  0.00    +0.000 A 
ATOM      3  C   UNL     1       5.190   5.893  16.213  0.00  0.00    +0.000 A 
ATOM      4  C   UNL     1       4.845   4.531  16.422  0.00  0.00    +0.000 A 
ATOM      5  C   UNL     1       5.267   3.587  15.475  0.00  0.00    +0.000 A 
ATOM      6  C   UNL     1       6.042   3.961  14.356  0.00  0.00    +0.000 A 
ATOM      7  C   UNL     1       4.149   4.071  17.713  0.00  0.00    +0.000 C 
ATOM      8  N   UNL     1       4.370   5.102  18.813  0.00  0.00    +0.000 N 
ATOM      9  C   UNL     1       5.811   5.117  19.213  0.00  0.00    +0.000 C 
ATOM     10  C   UNL     1       3.613   4.787  20.051  0.00  0.00    +0.000 C 
ATOM     11  C   UNL     1       3.945   6.448  18.339  0.00  0.00    +0.000 C 
ATOM     12  C   UNL     1       4.817   6.973  17.194  0.00  0.00    +0.000 C 
ENDROOT
BRANCH   1  14
ATOM     13  C   UNL     1       8.572   5.682  13.070  0.00  0.00    +0.000 C 
ATOM     14  O   UNL     1       7.200   5.778  13.178  0.00  0.00    +0.000 OA
ENDBRANCH   1  14
BRANCH   6  15
ATOM     15  O   UNL     1       6.457   3.041  13.453  0.00  0.00    +0.000 OA
ATOM     16  C   UNL     1       5.956   2.836  12.186  0.00  0.00    +0.000 C 
ENDBRANCH   6  15
BRANCH   7  17
ATOM     17  C   UNL     1       2.628   3.700  17.488  0.00  0.00    +0.000 C 
BRANCH  17  18
ATOM     18  C   UNL     1       2.077   2.297  17.880  0.00  0.00    +0.000 C 
ATOM     19  C   UNL     1       3.099   1.400  18.605  0.00  0.00    +0.000 C 
ATOM     20  C   UNL     1       0.879   2.505  18.831  0.00  0.00    +0.000 C 
ENDBRANCH  17  18
ENDBRANCH   7  17
TORSDOF 4
ENDMDL
MODEL 9
REMARK VINA RESULT:      -5.0      6.692      9.799
REMARK  Name = 
REMARK  10 active torsions:
REMARK  status: ('A' for Active; 'I' for Inactive)
REMARK    1  A    between atoms: C_1  and  O_2
REMARK    2  A    between atoms: O_2  and  C_3
REMARK    3  A    between atoms: C_8  and  O_9
REMARK    4  A    between atoms: O_9  and  C_10
REMARK    5  A    between atoms: C_11  and  C_12
REMARK    6  A    between atoms: C_12  and  C_13
REMARK    7  A    between atoms: C_13  and  C_14
REMARK    8  A    between atoms: C_13  and  C_15
REMARK    9  A    between atoms: N_16  and  C_17
REMARK   10  A    between atoms: N_16  and  C_18
REMARK                            x       y       z     vdW  Elec       q    Type
REMARK                         _______ _______ _______ _____ _____    ______ ____
ROOT
ATOM      1  C   UNL     1      -4.135  11.534  18.018  0.00  0.00    +0.000 A 
ATOM      2  C   UNL     1      -3.703  11.901  19.292  0.00  0.00    +0.000 A 
ATOM      3  C   UNL     1      -2.365  12.205  19.550  0.00  0.00    +0.000 A 
ATOM      4  C   UNL     1      -1.403  12.151  18.507  0.00  0.00    +0.000 A 
ATOM      5  C   UNL     1      -1.830  11.752  17.232  0.00  0.00    +0.000 A 
ATOM      6  C   UNL     1      -3.182  11.442  16.970  0.00  0.00    +0.000 A 
ATOM      7  C   UNL     1       0.037  12.642  18.719  0.00  0.00    +0.000 C 
ATOM      8  N   UNL     1       0.089  13.586  19.914  0.00  0.00    +0.000 N 
ATOM      9  C   UNL     1      -0.639  14.853  19.593  0.00  0.00    +0.000 C 
ATOM     10  C   UNL     1       1.474  13.994  20.260  0.00  0.00    +0.000 C 
ATOM     11  C   UNL     1      -0.511  12.926  21.107  0.00  0.00    +0.000 C 
ATOM     12  C   UNL     1      -2.011  12.659  20.942  0.00  0.00    +0.000 C 
ENDROOT
BRANCH   1  14
ATOM     13  C   UNL     1      -6.446  12.246  17.558  0.00  0.00    +0.000 C 
ATOM     14  O   UNL     1      -5.468  11.322  17.860  0.00  0.00    +0.000 OA
ENDBRANCH   1  14
BRANCH   6  15
ATOM     15  O   UNL     1      -3.589  11.071  15.732  0.00  0.00    +0.000 OA
ATOM     16  C   UNL     1      -2.998  10.136  14.910  0.00  0.00    +0.000 C 
ENDBRANCH   6  15
BRANCH   7  17
ATOM     17  C   UNL     1       1.081  11.457  18.802  0.00  0.00    +0.000 C 
BRANCH  17  18
ATOM     18  C   UNL     1       0.611   9.971  18.809  0.00  0.00    +0.000 C 
ATOM     19  C   UNL     1       1.505   9.025  17.984  0.00  0.00    +0.000 C 
ATOM     20  C   UNL     1       0.626   9.474  20.270  0.00  0.00    +0.000 C 
ENDBRANCH  17  18
ENDBRANCH   7  17
TORSDOF 4
ENDMDL
