MODEL 1
REMARK VINA RESULT:      -7.6      0.000      0.000
REMARK  Name = 
REMARK  9 active torsions:
REMARK  status: ('A' for Active; 'I' for Inactive)
REMARK    1  A    between atoms: C_1  and  C_2
REMARK    2  A    between atoms: C_2  and  C_3
REMARK    3  A    between atoms: C_2  and  C_4
REMARK    4  A    between atoms: C_2  and  N_5
REMARK    5  A    between atoms: N_5  and  C_6
REMARK    6  A    between atoms: C_6  and  C_7
REMARK    7  A    between atoms: C_10  and  O_11
REMARK    8  A    between atoms: O_11  and  C_12
REMARK    9  A    between atoms: C_12  and  C_13
REMARK                            x       y       z     vdW  Elec       q    Type
REMARK                         _______ _______ _______ _____ _____    ______ ____
ROOT
ATOM      1  C   UNL     1       5.665   5.150  17.559  0.00  0.00    +0.000 A 
ATOM      2  C   UNL     1       5.886   6.236  16.699  0.00  0.00    +0.000 A 
ATOM      3  C   UNL     1       6.896   7.128  16.973  0.00  0.00    +0.000 A 
ATOM      4  C   UNL     1       7.645   7.026  18.153  0.00  0.00    +0.000 A 
ATOM      5  C   UNL     1       7.483   5.913  18.973  0.00  0.00    +0.000 A 
ATOM      6  C   UNL     1       6.494   4.976  18.673  0.00  0.00    +0.000 A 
ENDROOT
BRANCH   1   7
ATOM      7  C   UNL     1       4.507   4.240  17.270  0.00  0.00    +0.000 C 
BRANCH   7   8
ATOM      8  N   UNL     1       4.100   3.537  18.481  0.00  0.00    +0.000 NA
ATOM      9  H   UNL     1       4.283   2.541  18.376  0.00  0.00    +0.000 HD
BRANCH   8  11
ATOM     10  C   UNL     1       1.838   4.275  17.720  0.00  0.00    +0.000 C 
ATOM     11  C   UNL     1       2.693   3.723  18.872  0.00  0.00    +0.000 C 
ATOM     12  C   UNL     1       2.603   4.628  20.107  0.00  0.00    +0.000 C 
ATOM     13  C   UNL     1       2.161   2.324  19.239  0.00  0.00    +0.000 C 
ENDBRANCH   8  11
ENDBRANCH   7   8
ENDBRANCH   1   7
BRANCH   4  14
ATOM     14  O   UNL     1       8.492   8.016  18.567  0.00  0.00    +0.000 OA
BRANCH  14  15
ATOM     15  C   UNL     1       8.198   9.249  17.898  0.00  0.00    +0.000 C 
BRANCH  15  16
ATOM     16  C   UNL     1       8.895  10.406  18.530  0.00  0.00    +0.000 A 
ATOM     17  C   UNL     1       9.446  10.308  19.815  0.00  0.00    +0.000 A 
ATOM     18  C   UNL     1      10.026  11.430  20.409  0.00  0.00    +0.000 A 
ATOM     19  C   UNL     1      10.045  12.640  19.720  0.00  0.00    +0.000 A 
ATOM     20  C   UNL     1       9.440  12.740  18.471  0.00  0.00    +0.000 A 
ATOM     21  C   UNL     1       8.886  11.629  17.862  0.00  0.00    +0.000 A 
ATOM     22  O   UNL     1       9.344  13.923  17.783  0.00  0.00    +0.000 OA
ATOM     23  C   UNL     1      10.512  14.690  18.046  0.00  0.00    +0.000 C 
ATOM     24  C   UNL     1      10.749  14.877  19.535  0.00  0.00    +0.000 C 
ATOM     25  O   UNL     1      10.700  13.679  20.322  0.00  0.00    +0.000 OA
ENDBRANCH  15  16
ENDBRANCH  14  15
ENDBRANCH   4  14
TORSDOF 6
ENDMDL
MODEL 2
REMARK VINA RESULT:      -7.6      5.583      7.540
REMARK  Name = 
REMARK  9 active torsions:
REMARK  status: ('A' for Active; 'I' for Inactive)
REMARK    1  A    between atoms: C_1  and  C_2
REMARK    2  A    between atoms: C_2  and  C_3
REMARK    3  A    between atoms: C_2  and  C_4
REMARK    4  A    between atoms: C_2  and  N_5
REMARK    5  A    between atoms: N_5  and  C_6
REMARK    6  A    between atoms: C_6  and  C_7
REMARK    7  A    between atoms: C_10  and  O_11
REMARK    8  A    between atoms: O_11  and  C_12
REMARK    9  A    between atoms: C_12  and  C_13
REMARK                            x       y       z     vdW  Elec       q    Type
REMARK                         _______ _______ _______ _____ _____    ______ ____
ROOT
ATOM      1  C   UNL     1       6.384   4.634  15.649  0.00  0.00    +0.000 A 
ATOM      2  C   UNL     1       7.003   5.618  16.433  0.00  0.00    +0.000 A 
ATOM      3  C   UNL     1       6.546   5.862  17.707  0.00  0.00    +0.000 A 
ATOM      4  C   UNL     1       5.406   5.212  18.199  0.00  0.00    +0.000 A 
ATOM      5  C   UNL     1       4.831   4.184  17.458  0.00  0.00    +0.000 A 
ATOM      6  C   UNL     1       5.322   3.895  16.185  0.00  0.00    +0.000 A 
ENDROOT
BRANCH   1   7
ATOM      7  C   UNL     1       6.859   4.448  14.238  0.00  0.00    +0.000 C 
BRANCH   7   8
ATOM      8  N   UNL     1       6.239   3.269  13.644  0.00  0.00    +0.000 NA
ATOM      9  H   UNL     1       6.730   2.432  13.952  0.00  0.00    +0.000 HD
BRANCH   8  11
ATOM     10  C   UNL     1       4.741   3.481  11.657  0.00  0.00    +0.000 C 
ATOM     11  C   UNL     1       6.173   3.267  12.174  0.00  0.00    +0.000 C 
ATOM     12  C   UNL     1       6.770   1.969  11.618  0.00  0.00    +0.000 C 
ATOM     13  C   UNL     1       7.036   4.455  11.705  0.00  0.00    +0.000 C 
ENDBRANCH   8  11
ENDBRANCH   7   8
ENDBRANCH   1   7
BRANCH   4  14
ATOM     14  O   UNL     1       4.794   5.592  19.360  0.00  0.00    +0.000 OA
BRANCH  14  15
ATOM     15  C   UNL     1       3.374   5.416  19.266  0.00  0.00    +0.000 C 
BRANCH  15  16
ATOM     16  C   UNL     1       2.655   6.720  19.186  0.00  0.00    +0.000 A 
ATOM     17  C   UNL     1       2.738   7.527  18.042  0.00  0.00    +0.000 A 
ATOM     18  C   UNL     1       2.115   8.775  18.027  0.00  0.00    +0.000 A 
ATOM     19  C   UNL     1       1.421   9.211  19.153  0.00  0.00    +0.000 A 
ATOM     20  C   UNL     1       1.398   8.429  20.303  0.00  0.00    +0.000 A 
ATOM     21  C   UNL     1       1.989   7.179  20.321  0.00  0.00    +0.000 A 
ATOM     22  O   UNL     1       0.812   8.842  21.473  0.00  0.00    +0.000 OA
ATOM     23  C   UNL     1      -0.330   9.626  21.149  0.00  0.00    +0.000 C 
ATOM     24  C   UNL     1       0.010  10.770  20.209  0.00  0.00    +0.000 C 
ATOM     25  O   UNL     1       0.766  10.407  19.045  0.00  0.00    +0.000 OA
ENDBRANCH  15  16
ENDBRANCH  14  15
ENDBRANCH   4  14
TORSDOF 6
ENDMDL
MODEL 3
REMARK VINA RESULT:      -7.6      5.980      7.645
REMARK  Name = 
REMARK  9 active torsions:
REMARK  status: ('A' for Active; 'I' for Inactive)
REMARK    1  A    between atoms: C_1  and  C_2
REMARK    2  A    between atoms: C_2  and  C_3
REMARK    3  A    between atoms: C_2  and  C_4
REMARK    4  A    between atoms: C_2  and  N_5
REMARK    5  A    between atoms: N_5  and  C_6
REMARK    6  A    between atoms: C_6  and  C_7
REMARK    7  A    between atoms: C_10  and  O_11
REMARK    8  A    between atoms: O_11  and  C_12
REMARK    9  A    between atoms: C_12  and  C_13
REMARK                            x       y       z     vdW  Elec       q    Type
REMARK                         _______ _______ _______ _____ _____    ______ ____
ROOT
ATOM      1  C   UNL     1       6.251   4.537  15.697  0.00  0.00    +0.000 A 
ATOM      2  C   UNL     1       7.092   4.769  16.795  0.00  0.00    +0.000 A 
ATOM      3  C   UNL     1       6.545   5.004  18.035  0.00  0.00    +0.000 A 
ATOM      4  C   UNL     1       5.157   5.114  18.200  0.00  0.00    +0.000 A 
ATOM      5  C   UNL     1       4.315   4.813  17.134  0.00  0.00    +0.000 A 
ATOM      6  C   UNL     1       4.864   4.523  15.884  0.00  0.00    +0.000 A 
ENDROOT
BRANCH   1   7
ATOM      7  C   UNL     1       6.880   4.360  14.347  0.00  0.00    +0.000 C 
BRANCH   7   8
ATOM      8  N   UNL     1       6.322   3.192  13.675  0.00  0.00    +0.000 NA
ATOM      9  H   UNL     1       6.855   2.364  13.928  0.00  0.00    +0.000 HD
BRANCH   8  11
ATOM     10  C   UNL     1       6.700   1.983  11.523  0.00  0.00    +0.000 C 
ATOM     11  C   UNL     1       6.255   3.285  12.207  0.00  0.00    +0.000 C 
ATOM     12  C   UNL     1       7.082   4.478  11.713  0.00  0.00    +0.000 C 
ATOM     13  C   UNL     1       4.773   3.529  11.860  0.00  0.00    +0.000 C 
ENDBRANCH   8  11
ENDBRANCH   7   8
ENDBRANCH   1   7
BRANCH   4  14
ATOM     14  O   UNL     1       4.594   5.570  19.359  0.00  0.00    +0.000 OA
BRANCH  14  15
ATOM     15  C   UNL     1       3.170   5.406  19.329  0.00  0.00    +0.000 C 
BRANCH  15  16
ATOM     16  C   UNL     1       2.458   6.716  19.387  0.00  0.00    +0.000 A 
ATOM     17  C   UNL     1       2.428   7.577  18.281  0.00  0.00    +0.000 A 
ATOM     18  C   UNL     1       1.818   8.827  18.391  0.00  0.00    +0.000 A 
ATOM     19  C   UNL     1       1.249   9.211  19.603  0.00  0.00    +0.000 A 
ATOM     20  C   UNL     1       1.340   8.373  20.710  0.00  0.00    +0.000 A 
ATOM     21  C   UNL     1       1.919   7.122  20.607  0.00  0.00    +0.000 A 
ATOM     22  O   UNL     1       0.883   8.731  21.954  0.00  0.00    +0.000 OA
ATOM     23  C   UNL     1      -0.279   9.534  21.789  0.00  0.00    +0.000 C 
ATOM     24  C   UNL     1      -0.029  10.721  20.874  0.00  0.00    +0.000 C 
ATOM     25  O   UNL     1       0.597  10.412  19.622  0.00  0.00    +0.000 OA
ENDBRANCH  15  16
ENDBRANCH  14  15
ENDBRANCH   4  14
TORSDOF 6
ENDMDL
MODEL 4
REMARK VINA RESULT:      -7.6      0.964      1.086
REMARK  Name = 
REMARK  9 active torsions:
REMARK  status: ('A' for Active; 'I' for Inactive)
REMARK    1  A    between atoms: C_1  and  C_2
REMARK    2  A    between atoms: C_2  and  C_3
REMARK    3  A    between atoms: C_2  and  C_4
REMARK    4  A    between atoms: C_2  and  N_5
REMARK    5  A    between atoms: N_5  and  C_6
REMARK    6  A    between atoms: C_6  and  C_7
REMARK    7  A    between atoms: C_10  and  O_11
REMARK    8  A    between atoms: O_11  and  C_12
REMARK    9  A    between atoms: C_12  and  C_13
REMARK                            x       y       z     vdW  Elec       q    Type
REMARK                         _______ _______ _______ _____ _____    ______ ____
ROOT
ATOM      1  C   UNL     1       4.687   5.123  18.128  0.00  0.00    +0.000 A 
ATOM      2  C   UNL     1       4.925   6.063  17.114  0.00  0.00    +0.000 A 
ATOM      3  C   UNL     1       6.106   6.768  17.100  0.00  0.00    +0.000 A 
ATOM      4  C   UNL     1       7.035   6.634  18.141  0.00  0.00    +0.000 A 
ATOM      5  C   UNL     1       6.842   5.653  19.110  0.00  0.00    +0.000 A 
ATOM      6  C   UNL     1       5.669   4.898  19.100  0.00  0.00    +0.000 A 
ENDROOT
BRANCH   1   7
ATOM      7  C   UNL     1       3.357   4.429  18.155  0.00  0.00    +0.000 C 
BRANCH   7   8
ATOM      8  N   UNL     1       3.287   3.509  19.284  0.00  0.00    +0.000 NA
ATOM      9  H   UNL     1       3.360   2.551  18.950  0.00  0.00    +0.000 HD
BRANCH   8  11
ATOM     10  C   UNL     1       0.865   2.935  19.487  0.00  0.00    +0.000 C 
ATOM     11  C   UNL     1       2.080   3.631  20.119  0.00  0.00    +0.000 C 
ATOM     12  C   UNL     1       1.781   5.108  20.405  0.00  0.00    +0.000 C 
ATOM     13  C   UNL     1       2.405   2.922  21.448  0.00  0.00    +0.000 C 
ENDBRANCH   8  11
ENDBRANCH   7   8
ENDBRANCH   1   7
BRANCH   4  14
ATOM     14  O   UNL     1       8.102   7.477  18.280  0.00  0.00    +0.000 OA
BRANCH  14  15
ATOM     15  C   UNL     1       7.854   8.722  17.613  0.00  0.00    +0.000 C 
BRANCH  15  16
ATOM     16  C   UNL     1       8.570   9.856  18.266  0.00  0.00    +0.000 A 
ATOM     17  C   UNL     1       9.167   9.709  19.527  0.00  0.00    +0.000 A 
ATOM     18  C   UNL     1       9.763  10.808  20.144  0.00  0.00    +0.000 A 
ATOM     19  C   UNL     1       9.755  12.046  19.504  0.00  0.00    +0.000 A 
ATOM     20  C   UNL     1       9.106  12.192  18.282  0.00  0.00    +0.000 A 
ATOM     21  C   UNL     1       8.534  11.105  17.649  0.00  0.00    +0.000 A 
ATOM     22  O   UNL     1       8.982  13.402  17.646  0.00  0.00    +0.000 OA
ATOM     23  C   UNL     1      10.156  14.163  17.899  0.00  0.00    +0.000 C 
ATOM     24  C   UNL     1      10.445  14.291  19.385  0.00  0.00    +0.000 C 
ATOM     25  O   UNL     1      10.427  13.062  20.124  0.00  0.00    +0.000 OA
ENDBRANCH  15  16
ENDBRANCH  14  15
ENDBRANCH   4  14
TORSDOF 6
ENDMDL
MODEL 5
REMARK VINA RESULT:      -7.6      0.423      1.072
REMARK  Name = 
REMARK  9 active torsions:
REMARK  status: ('A' for Active; 'I' for Inactive)
REMARK    1  A    between atoms: C_1  and  C_2
REMARK    2  A    between atoms: C_2  and  C_3
REMARK    3  A    between atoms: C_2  and  C_4
REMARK    4  A    between atoms: C_2  and  N_5
REMARK    5  A    between atoms: N_5  and  C_6
REMARK    6  A    between atoms: C_6  and  C_7
REMARK    7  A    between atoms: C_10  and  O_11
REMARK    8  A    between atoms: O_11  and  C_12
REMARK    9  A    between atoms: C_12  and  C_13
REMARK                            x       y       z     vdW  Elec       q    Type
REMARK                         _______ _______ _______ _____ _____    ______ ____
ROOT
ATOM      1  C   UNL     1       5.271   4.955  17.546  0.00  0.00    +0.000 A 
ATOM      2  C   UNL     1       6.099   4.764  18.662  0.00  0.00    +0.000 A 
ATOM      3  C   UNL     1       7.027   5.723  18.995  0.00  0.00    +0.000 A 
ATOM      4  C   UNL     1       7.227   6.844  18.178  0.00  0.00    +0.000 A 
ATOM      5  C   UNL     1       6.362   7.079  17.113  0.00  0.00    +0.000 A 
ATOM      6  C   UNL     1       5.384   6.134  16.800  0.00  0.00    +0.000 A 
ENDROOT
BRANCH   1   7
ATOM      7  C   UNL     1       4.324   3.854  17.169  0.00  0.00    +0.000 C 
BRANCH   7   8
ATOM      8  N   UNL     1       3.845   3.164  18.361  0.00  0.00    +0.000 NA
ATOM      9  H   UNL     1       3.908   2.158  18.223  0.00  0.00    +0.000 HD
BRANCH   8  11
ATOM     10  C   UNL     1       1.707   4.259  17.678  0.00  0.00    +0.000 C 
ATOM     11  C   UNL     1       2.473   3.503  18.774  0.00  0.00    +0.000 C 
ATOM     12  C   UNL     1       2.497   4.305  20.081  0.00  0.00    +0.000 C 
ATOM     13  C   UNL     1       1.758   2.161  19.025  0.00  0.00    +0.000 C 
ENDBRANCH   8  11
ENDBRANCH   7   8
ENDBRANCH   1   7
BRANCH   4  14
ATOM     14  O   UNL     1       8.285   7.693  18.349  0.00  0.00    +0.000 OA
BRANCH  14  15
ATOM     15  C   UNL     1       8.041   8.946  17.695  0.00  0.00    +0.000 C 
BRANCH  15  16
ATOM     16  C   UNL     1       8.728  10.076  18.386  0.00  0.00    +0.000 A 
ATOM     17  C   UNL     1       9.226   9.937  19.689  0.00  0.00    +0.000 A 
ATOM     18  C   UNL     1       9.796  11.034  20.334  0.00  0.00    +0.000 A 
ATOM     19  C   UNL     1       9.858  12.262  19.679  0.00  0.00    +0.000 A 
ATOM     20  C   UNL     1       9.305  12.402  18.411  0.00  0.00    +0.000 A 
ATOM     21  C   UNL     1       8.761  11.316  17.751  0.00  0.00    +0.000 A 
ATOM     22  O   UNL     1       9.251  13.605  17.751  0.00  0.00    +0.000 OA
ATOM     23  C   UNL     1      10.417  14.348  18.081  0.00  0.00    +0.000 C 
ATOM     24  C   UNL     1      10.597  14.493  19.583  0.00  0.00    +0.000 C 
ATOM     25  O   UNL     1      10.501  13.275  20.335  0.00  0.00    +0.000 OA
ENDBRANCH  15  16
ENDBRANCH  14  15
ENDBRANCH   4  14
TORSDOF 6
ENDMDL
MODEL 6
REMARK VINA RESULT:      -7.5      0.908      1.629
REMARK  Name = 
REMARK  9 active torsions:
REMARK  status: ('A' for Active; 'I' for Inactive)
REMARK    1  A    between atoms: C_1  and  C_2
REMARK    2  A    between atoms: C_2  and  C_3
REMARK    3  A    between atoms: C_2  and  C_4
REMARK    4  A    between atoms: C_2  and  N_5
REMARK    5  A    between atoms: N_5  and  C_6
REMARK    6  A    between atoms: C_6  and  C_7
REMARK    7  A    between atoms: C_10  and  O_11
REMARK    8  A    between atoms: O_11  and  C_12
REMARK    9  A    between atoms: C_12  and  C_13
REMARK                            x       y       z     vdW  Elec       q    Type
REMARK                         _______ _______ _______ _____ _____    ______ ____
ROOT
ATOM      1  C   UNL     1       5.774   5.219  17.797  0.00  0.00    +0.000 A 
ATOM      2  C   UNL     1       6.697   5.023  18.834  0.00  0.00    +0.000 A 
ATOM      3  C   UNL     1       7.609   6.009  19.133  0.00  0.00    +0.000 A 
ATOM      4  C   UNL     1       7.694   7.169  18.351  0.00  0.00    +0.000 A 
ATOM      5  C   UNL     1       6.736   7.405  17.368  0.00  0.00    +0.000 A 
ATOM      6  C   UNL     1       5.777   6.430  17.095  0.00  0.00    +0.000 A 
ENDROOT
BRANCH   1   7
ATOM      7  C   UNL     1       4.846   4.093  17.450  0.00  0.00    +0.000 C 
BRANCH   7   8
ATOM      8  N   UNL     1       4.275   3.513  18.660  0.00  0.00    +0.000 NA
ATOM      9  H   UNL     1       4.728   2.625  18.861  0.00  0.00    +0.000 HD
BRANCH   8  11
ATOM     10  C   UNL     1       2.196   3.359  20.035  0.00  0.00    +0.000 C 
ATOM     11  C   UNL     1       2.817   3.308  18.631  0.00  0.00    +0.000 C 
ATOM     12  C   UNL     1       2.483   1.987  17.928  0.00  0.00    +0.000 C 
ATOM     13  C   UNL     1       2.237   4.473  17.805  0.00  0.00    +0.000 C 
ENDBRANCH   8  11
ENDBRANCH   7   8
ENDBRANCH   1   7
BRANCH   4  14
ATOM     14  O   UNL     1       8.727   8.056  18.473  0.00  0.00    +0.000 OA
BRANCH  14  15
ATOM     15  C   UNL     1       8.309   9.376  18.096  0.00  0.00    +0.000 C 
BRANCH  15  16
ATOM     16  C   UNL     1       9.201  10.426  18.668  0.00  0.00    +0.000 A 
ATOM     17  C   UNL     1       9.342  10.584  20.054  0.00  0.00    +0.000 A 
ATOM     18  C   UNL     1      10.125  11.623  20.557  0.00  0.00    +0.000 A 
ATOM     19  C   UNL     1      10.754  12.500  19.676  0.00  0.00    +0.000 A 
ATOM     20  C   UNL     1      10.555  12.370  18.305  0.00  0.00    +0.000 A 
ATOM     21  C   UNL     1       9.803  11.329  17.794  0.00  0.00    +0.000 A 
ATOM     22  O   UNL     1      11.070  13.255  17.391  0.00  0.00    +0.000 OA
ATOM     23  C   UNL     1      12.333  13.704  17.866  0.00  0.00    +0.000 C 
ATOM     24  C   UNL     1      12.247  14.273  19.272  0.00  0.00    +0.000 C 
ATOM     25  O   UNL     1      11.571  13.446  20.230  0.00  0.00    +0.000 OA
ENDBRANCH  15  16
ENDBRANCH  14  15
ENDBRANCH   4  14
TORSDOF 6
ENDMDL
MODEL 7
REMARK VINA RESULT:      -7.5      3.761      9.161
REMARK  Name = 
REMARK  9 active torsions:
REMARK  status: ('A' for Active; 'I' for Inactive)
REMARK    1  A    between atoms: C_1  and  C_2
REMARK    2  A    between atoms: C_2  and  C_3
REMARK    3  A    between atoms: C_2  and  C_4
REMARK    4  A    between atoms: C_2  and  N_5
REMARK    5  A    between atoms: N_5  and  C_6
REMARK    6  A    between atoms: C_6  and  C_7
REMARK    7  A    between atoms: C_10  and  O_11
REMARK    8  A    between atoms: O_11  and  C_12
REMARK    9  A    between atoms: C_12  and  C_13
REMARK                            x       y       z     vdW  Elec       q    Type
REMARK                         _______ _______ _______ _____ _____    ______ ____
ROOT
ATOM      1  C   UNL     1       8.248   7.861  18.452  0.00  0.00    +0.000 A 
ATOM      2  C   UNL     1       7.602   7.892  17.208  0.00  0.00    +0.000 A 
ATOM      3  C   UNL     1       7.017   6.749  16.714  0.00  0.00    +0.000 A 
ATOM      4  C   UNL     1       7.142   5.528  17.391  0.00  0.00    +0.000 A 
ATOM      5  C   UNL     1       7.716   5.503  18.659  0.00  0.00    +0.000 A 
ATOM      6  C   UNL     1       8.266   6.671  19.188  0.00  0.00    +0.000 A 
ENDROOT
BRANCH   1   7
ATOM      7  C   UNL     1       8.940   9.106  18.924  0.00  0.00    +0.000 C 
BRANCH   7   8
ATOM      8  N   UNL     1       8.509  10.256  18.137  0.00  0.00    +0.000 NA
ATOM      9  H   UNL     1       8.544  10.025  17.147  0.00  0.00    +0.000 HD
BRANCH   8  11
ATOM     10  C   UNL     1       8.576  12.724  17.764  0.00  0.00    +0.000 C 
ATOM     11  C   UNL     1       9.274  11.494  18.364  0.00  0.00    +0.000 C 
ATOM     12  C   UNL     1      10.698  11.345  17.815  0.00  0.00    +0.000 C 
ATOM     13  C   UNL     1       9.345  11.679  19.892  0.00  0.00    +0.000 C 
ENDBRANCH   8  11
ENDBRANCH   7   8
ENDBRANCH   1   7
BRANCH   4  14
ATOM     14  O   UNL     1       6.777   4.339  16.824  0.00  0.00    +0.000 OA
BRANCH  14  15
ATOM     15  C   UNL     1       5.488   4.447  16.204  0.00  0.00    +0.000 C 
BRANCH  15  16
ATOM     16  C   UNL     1       4.391   4.529  17.212  0.00  0.00    +0.000 A 
ATOM     17  C   UNL     1       3.720   5.734  17.460  0.00  0.00    +0.000 A 
ATOM     18  C   UNL     1       2.750   5.795  18.461  0.00  0.00    +0.000 A 
ATOM     19  C   UNL     1       2.463   4.656  19.211  0.00  0.00    +0.000 A 
ATOM     20  C   UNL     1       3.180   3.484  18.998  0.00  0.00    +0.000 A 
ATOM     21  C   UNL     1       4.124   3.404  17.991  0.00  0.00    +0.000 A 
ATOM     22  O   UNL     1       3.010   2.357  19.764  0.00  0.00    +0.000 OA
ATOM     23  C   UNL     1       1.640   2.271  20.134  0.00  0.00    +0.000 C 
ATOM     24  C   UNL     1       1.150   3.539  20.811  0.00  0.00    +0.000 C 
ATOM     25  O   UNL     1       1.447   4.760  20.121  0.00  0.00    +0.000 OA
ENDBRANCH  15  16
ENDBRANCH  14  15
ENDBRANCH   4  14
TORSDOF 6
ENDMDL
MODEL 8
REMARK VINA RESULT:      -7.4      6.135      7.528
REMARK  Name = 
REMARK  9 active torsions:
REMARK  status: ('A' for Active; 'I' for Inactive)
REMARK    1  A    between atoms: C_1  and  C_2
REMARK    2  A    between atoms: C_2  and  C_3
REMARK    3  A    between atoms: C_2  and  C_4
REMARK    4  A    between atoms: C_2  and  N_5
REMARK    5  A    between atoms: N_5  and  C_6
REMARK    6  A    between atoms: C_6  and  C_7
REMARK    7  A    between atoms: C_10  and  O_11
REMARK    8  A    between atoms: O_11  and  C_12
REMARK    9  A    between atoms: C_12  and  C_13
REMARK                            x       y       z     vdW  Elec       q    Type
REMARK                         _______ _______ _______ _____ _____    ______ ____
ROOT
ATOM      1  C   UNL     1       5.705   4.736  15.554  0.00  0.00    +0.000 A 
ATOM      2  C   UNL     1       5.453   6.076  15.882  0.00  0.00    +0.000 A 
ATOM      3  C   UNL     1       4.497   6.381  16.822  0.00  0.00    +0.000 A 
ATOM      4  C   UNL     1       3.699   5.377  17.387  0.00  0.00    +0.000 A 
ATOM      5  C   UNL     1       3.990   4.041  17.124  0.00  0.00    +0.000 A 
ATOM      6  C   UNL     1       4.994   3.724  16.209  0.00  0.00    +0.000 A 
ENDROOT
BRANCH   1   7
ATOM      7  C   UNL     1       6.700   4.445  14.470  0.00  0.00    +0.000 C 
BRANCH   7   8
ATOM      8  N   UNL     1       6.316   3.246  13.735  0.00  0.00    +0.000 NA
ATOM      9  H   UNL     1       6.965   2.492  13.946  0.00  0.00    +0.000 HD
BRANCH   8  11
ATOM     10  C   UNL     1       7.101   4.563  11.764  0.00  0.00    +0.000 C 
ATOM     11  C   UNL     1       6.229   3.405  12.274  0.00  0.00    +0.000 C 
ATOM     12  C   UNL     1       4.768   3.586  11.847  0.00  0.00    +0.000 C 
ATOM     13  C   UNL     1       6.767   2.094  11.668  0.00  0.00    +0.000 C 
ENDBRANCH   8  11
ENDBRANCH   7   8
ENDBRANCH   1   7
BRANCH   4  14
ATOM     14  O   UNL     1       2.596   5.661  18.143  0.00  0.00    +0.000 OA
BRANCH  14  15
ATOM     15  C   UNL     1       2.979   6.177  19.425  0.00  0.00    +0.000 C 
BRANCH  15  16
ATOM     16  C   UNL     1       2.164   7.364  19.813  0.00  0.00    +0.000 A 
ATOM     17  C   UNL     1       1.463   7.399  21.027  0.00  0.00    +0.000 A 
ATOM     18  C   UNL     1       0.650   8.491  21.327  0.00  0.00    +0.000 A 
ATOM     19  C   UNL     1       0.535   9.536  20.413  0.00  0.00    +0.000 A 
ATOM     20  C   UNL     1       1.186   9.461  19.186  0.00  0.00    +0.000 A 
ATOM     21  C   UNL     1       2.016   8.396  18.888  0.00  0.00    +0.000 A 
ATOM     22  O   UNL     1       1.041  10.412  18.207  0.00  0.00    +0.000 OA
ATOM     23  C   UNL     1       0.893  11.680  18.833  0.00  0.00    +0.000 C 
ATOM     24  C   UNL     1      -0.234  11.687  19.851  0.00  0.00    +0.000 C 
ATOM     25  O   UNL     1      -0.212  10.613  20.802  0.00  0.00    +0.000 OA
ENDBRANCH  15  16
ENDBRANCH  14  15
ENDBRANCH   4  14
TORSDOF 6
ENDMDL
MODEL 9
REMARK VINA RESULT:      -7.4      5.946      8.118
REMARK  Name = 
REMARK  9 active torsions:
REMARK  status: ('A' for Active; 'I' for Inactive)
REMARK    1  A    between atoms: C_1  and  C_2
REMARK    2  A    between atoms: C_2  and  C_3
REMARK    3  A    between atoms: C_2  and  C_4
REMARK    4  A    between atoms: C_2  and  N_5
REMARK    5  A    between atoms: N_5  and  C_6
REMARK    6  A    between atoms: C_6  and  C_7
REMARK    7  A    between atoms: C_10  and  O_11
REMARK    8  A    between atoms: O_11  and  C_12
REMARK    9  A    between atoms: C_12  and  C_13
REMARK                            x       y       z     vdW  Elec       q    Type
REMARK                         _______ _______ _______ _____ _____    ______ ____
ROOT
ATOM      1  C   UNL     1       1.731   7.977  20.088  0.00  0.00    +0.000 A 
ATOM      2  C   UNL     1       1.602   6.829  20.883  0.00  0.00    +0.000 A 
ATOM      3  C   UNL     1       1.993   5.607  20.387  0.00  0.00    +0.000 A 
ATOM      4  C   UNL     1       2.427   5.476  19.061  0.00  0.00    +0.000 A 
ATOM      5  C   UNL     1       2.629   6.617  18.290  0.00  0.00    +0.000 A 
ATOM      6  C   UNL     1       2.282   7.866  18.806  0.00  0.00    +0.000 A 
ENDROOT
BRANCH   1   7
ATOM      7  C   UNL     1       1.224   9.279  20.633  0.00  0.00    +0.000 C 
BRANCH   7   8
ATOM      8  N   UNL     1      -0.159   9.497  20.225  0.00  0.00    +0.000 NA
ATOM      9  H   UNL     1      -0.532   8.646  19.812  0.00  0.00    +0.000 HD
BRANCH   8  11
ATOM     10  C   UNL     1       0.909  11.439  19.074  0.00  0.00    +0.000 C 
ATOM     11  C   UNL     1      -0.369  10.613  19.287  0.00  0.00    +0.000 C 
ATOM     12  C   UNL     1      -1.524  11.499  19.769  0.00  0.00    +0.000 C 
ATOM     13  C   UNL     1      -0.759   9.973  17.941  0.00  0.00    +0.000 C 
ENDBRANCH   8  11
ENDBRANCH   7   8
ENDBRANCH   1   7
BRANCH   4  14
ATOM     14  O   UNL     1       2.604   4.256  18.469  0.00  0.00    +0.000 OA
BRANCH  14  15
ATOM     15  C   UNL     1       3.883   3.706  18.811  0.00  0.00    +0.000 C 
BRANCH  15  16
ATOM     16  C   UNL     1       4.932   4.079  17.818  0.00  0.00    +0.000 A 
ATOM     17  C   UNL     1       6.135   4.675  18.220  0.00  0.00    +0.000 A 
ATOM     18  C   UNL     1       7.063   5.080  17.261  0.00  0.00    +0.000 A 
ATOM     19  C   UNL     1       6.783   4.893  15.910  0.00  0.00    +0.000 A 
ATOM     20  C   UNL     1       5.560   4.356  15.521  0.00  0.00    +0.000 A 
ATOM     21  C   UNL     1       4.643   3.927  16.463  0.00  0.00    +0.000 A 
ATOM     22  O   UNL     1       5.185   4.232  14.206  0.00  0.00    +0.000 OA
ATOM     23  C   UNL     1       6.344   3.935  13.438  0.00  0.00    +0.000 C 
ATOM     24  C   UNL     1       7.450   4.954  13.655  0.00  0.00    +0.000 C 
ATOM     25  O   UNL     1       7.768   5.235  15.025  0.00  0.00    +0.000 OA
ENDBRANCH  15  16
ENDBRANCH  14  15
ENDBRANCH   4  14
TORSDOF 6
ENDMDL
