MODEL 1
REMARK VINA RESULT:      -8.9      0.000      0.000
REMARK  Name = 
REMARK  10 active torsions:
REMARK  status: ('A' for Active; 'I' for Inactive)
REMARK    1  A    between atoms: C_1  and  N_2
REMARK    2  A    between atoms: N_2  and  C_3
REMARK    3  A    between atoms: C_3  and  C_4
REMARK    4  A    between atoms: C_10  and  C_13
REMARK    5  A    between atoms: N_11  and  O_12
REMARK    6  A    between atoms: C_18  and  O_19
REMARK    7  A    between atoms: O_19  and  C_20
REMARK    8  A    between atoms: C_25  and  O_26
REMARK    9  A    between atoms: O_26  and  C_27
REMARK   10  A    between atoms: C_27  and  C_28
REMARK                            x       y       z     vdW  Elec       q    Type
REMARK                         _______ _______ _______ _____ _____    ______ ____
ROOT
ATOM      1  C   UNL     1       3.908   4.074  18.644  0.00  0.00    +0.000 A 
ATOM      2  C   UNL     1       3.678   2.923  17.832  0.00  0.00    +0.000 A 
ATOM      3  C   UNL     1       2.420   2.353  17.691  0.00  0.00    +0.000 A 
ATOM      4  C   UNL     1       1.403   2.923  18.404  0.00  0.00    +0.000 A 
ATOM      5  N   UNL     1       1.592   4.004  19.178  0.00  0.00    +0.000 NA
ATOM      6  C   UNL     1       2.807   4.613  19.295  0.00  0.00    +0.000 A 
ENDROOT
BRANCH   1   9
ATOM      7  C   UNL     1       7.438   5.335  17.444  0.00  0.00    +0.000 C 
ATOM      8  N   UNL     1       6.015   4.975  17.438  0.00  0.00    +0.000 N 
ATOM      9  C   UNL     1       5.369   4.547  18.614  0.00  0.00    +0.000 C 
ATOM     10  N   UNL     1       5.862   4.581  19.834  0.00  0.00    +0.000 NA
BRANCH  10  11
ATOM     11  O   UNL     1       7.095   5.205  19.995  0.00  0.00    +0.000 OA
ATOM     12  H   UNL     1       7.276   5.539  19.097  0.00  0.00    +0.000 HD
ENDBRANCH  10  11
BRANCH   8  13
ATOM     13  C   UNL     1       5.322   5.415  16.225  0.00  0.00    +0.000 C 
BRANCH  13  14
ATOM     14  C   UNL     1       5.892   4.926  14.922  0.00  0.00    +0.000 A 
ATOM     15  C   UNL     1       5.346   3.917  14.127  0.00  0.00    +0.000 A 
ATOM     16  C   UNL     1       5.979   3.559  12.938  0.00  0.00    +0.000 A 
ATOM     17  C   UNL     1       7.136   4.227  12.578  0.00  0.00    +0.000 A 
ATOM     18  N   UNL     1       7.693   5.208  13.316  0.00  0.00    +0.000 NA
ATOM     19  C   UNL     1       7.065   5.529  14.463  0.00  0.00    +0.000 A 
ENDBRANCH  13  14
ENDBRANCH   8  13
ENDBRANCH   1   9
BRANCH   6  20
ATOM     20  O   UNL     1       2.841   5.828  20.009  0.00  0.00    +0.000 OA
BRANCH  20  21
ATOM     21  C   UNL     1       2.575   7.036  19.350  0.00  0.00    +0.000 A 
ATOM     22  C   UNL     1       3.156   7.385  18.113  0.00  0.00    +0.000 A 
ATOM     23  C   UNL     1       2.663   8.417  17.313  0.00  0.00    +0.000 A 
ATOM     24  C   UNL     1       1.675   9.244  17.808  0.00  0.00    +0.000 A 
ATOM     25  C   UNL     1       1.224   9.050  19.114  0.00  0.00    +0.000 A 
ATOM     26  C   UNL     1       1.668   7.962  19.898  0.00  0.00    +0.000 A 
BRANCH  26  27
ATOM     27  O   UNL     1       1.066   7.913  21.135  0.00  0.00    +0.000 OA
BRANCH  27  28
ATOM     28  C   UNL     1       1.481   8.907  22.077  0.00  0.00    +0.000 C 
BRANCH  28  29
ATOM     29  C   UNL     1       0.481  10.051  22.197  0.00  0.00    +0.000 A 
ATOM     30  C   UNL     1       0.534  11.210  21.414  0.00  0.00    +0.000 A 
ATOM     31  C   UNL     1      -0.449  12.208  21.537  0.00  0.00    +0.000 A 
ATOM     32  C   UNL     1      -1.489  12.060  22.446  0.00  0.00    +0.000 A 
ATOM     33  C   UNL     1      -1.544  10.928  23.255  0.00  0.00    +0.000 A 
ATOM     34  C   UNL     1      -0.564   9.936  23.131  0.00  0.00    +0.000 A 
ENDBRANCH  28  29
ENDBRANCH  27  28
ENDBRANCH  26  27
ENDBRANCH  20  21
ENDBRANCH   6  20
TORSDOF 9
ENDMDL
MODEL 2
REMARK VINA RESULT:      -8.1      4.371     10.430
REMARK  Name = 
REMARK  10 active torsions:
REMARK  status: ('A' for Active; 'I' for Inactive)
REMARK    1  A    between atoms: C_1  and  N_2
REMARK    2  A    between atoms: N_2  and  C_3
REMARK    3  A    between atoms: C_3  and  C_4
REMARK    4  A    between atoms: C_10  and  C_13
REMARK    5  A    between atoms: N_11  and  O_12
REMARK    6  A    between atoms: C_18  and  O_19
REMARK    7  A    between atoms: O_19  and  C_20
REMARK    8  A    between atoms: C_25  and  O_26
REMARK    9  A    between atoms: O_26  and  C_27
REMARK   10  A    between atoms: C_27  and  C_28
REMARK                            x       y       z     vdW  Elec       q    Type
REMARK                         _______ _______ _______ _____ _____    ______ ____
ROOT
ATOM      1  C   UNL     1      -1.674  11.861  18.565  0.00  0.00    +0.000 A 
ATOM      2  C   UNL     1      -3.083  11.762  18.363  0.00  0.00    +0.000 A 
ATOM      3  C   UNL     1      -3.667  10.685  17.711  0.00  0.00    +0.000 A 
ATOM      4  C   UNL     1      -2.821   9.728  17.226  0.00  0.00    +0.000 A 
ATOM      5  N   UNL     1      -1.491   9.797  17.398  0.00  0.00    +0.000 NA
ATOM      6  C   UNL     1      -0.897  10.819  18.078  0.00  0.00    +0.000 A 
ENDROOT
BRANCH   1   9
ATOM      7  C   UNL     1      -1.272  14.590  21.372  0.00  0.00    +0.000 C 
ATOM      8  N   UNL     1      -1.611  13.333  20.694  0.00  0.00    +0.000 N 
ATOM      9  C   UNL     1      -1.265  13.119  19.345  0.00  0.00    +0.000 C 
ATOM     10  N   UNL     1      -0.486  13.880  18.607  0.00  0.00    +0.000 NA
BRANCH  10  11
ATOM     11  O   UNL     1       0.150  14.937  19.250  0.00  0.00    +0.000 OA
ATOM     12  H   UNL     1      -0.576  15.329  19.769  0.00  0.00    +0.000 HD
ENDBRANCH  10  11
BRANCH   8  13
ATOM     13  C   UNL     1      -2.014  12.276  21.625  0.00  0.00    +0.000 C 
BRANCH  13  14
ATOM     14  C   UNL     1      -3.325  12.481  22.332  0.00  0.00    +0.000 A 
ATOM     15  C   UNL     1      -4.521  12.866  21.724  0.00  0.00    +0.000 A 
ATOM     16  C   UNL     1      -5.668  13.021  22.500  0.00  0.00    +0.000 A 
ATOM     17  C   UNL     1      -5.585  12.781  23.860  0.00  0.00    +0.000 A 
ATOM     18  N   UNL     1      -4.449  12.406  24.484  0.00  0.00    +0.000 NA
ATOM     19  C   UNL     1      -3.355  12.269  23.712  0.00  0.00    +0.000 A 
ENDBRANCH  13  14
ENDBRANCH   8  13
ENDBRANCH   1   9
BRANCH   6  20
ATOM     20  O   UNL     1       0.485  10.694  18.326  0.00  0.00    +0.000 OA
BRANCH  20  21
ATOM     21  C   UNL     1       0.936   9.962  19.433  0.00  0.00    +0.000 A 
ATOM     22  C   UNL     1       0.862  10.441  20.758  0.00  0.00    +0.000 A 
ATOM     23  C   UNL     1       1.007   9.609  21.869  0.00  0.00    +0.000 A 
ATOM     24  C   UNL     1       1.402   8.299  21.688  0.00  0.00    +0.000 A 
ATOM     25  C   UNL     1       1.684   7.853  20.396  0.00  0.00    +0.000 A 
ATOM     26  C   UNL     1       1.467   8.669  19.264  0.00  0.00    +0.000 A 
BRANCH  26  27
ATOM     27  O   UNL     1       1.752   8.030  18.080  0.00  0.00    +0.000 OA
BRANCH  27  28
ATOM     28  C   UNL     1       3.108   7.605  17.905  0.00  0.00    +0.000 C 
BRANCH  28  29
ATOM     29  C   UNL     1       3.295   6.120  18.194  0.00  0.00    +0.000 A 
ATOM     30  C   UNL     1       4.453   5.584  18.769  0.00  0.00    +0.000 A 
ATOM     31  C   UNL     1       4.545   4.211  19.057  0.00  0.00    +0.000 A 
ATOM     32  C   UNL     1       3.485   3.361  18.768  0.00  0.00    +0.000 A 
ATOM     33  C   UNL     1       2.336   3.869  18.168  0.00  0.00    +0.000 A 
ATOM     34  C   UNL     1       2.247   5.236  17.882  0.00  0.00    +0.000 A 
ENDBRANCH  28  29
ENDBRANCH  27  28
ENDBRANCH  26  27
ENDBRANCH  20  21
ENDBRANCH   6  20
TORSDOF 9
ENDMDL
MODEL 3
REMARK VINA RESULT:      -8.1      0.795      1.282
REMARK  Name = 
REMARK  10 active torsions:
REMARK  status: ('A' for Active; 'I' for Inactive)
REMARK    1  A    between atoms: C_1  and  N_2
REMARK    2  A    between atoms: N_2  and  C_3
REMARK    3  A    between atoms: C_3  and  C_4
REMARK    4  A    between atoms: C_10  and  C_13
REMARK    5  A    between atoms: N_11  and  O_12
REMARK    6  A    between atoms: C_18  and  O_19
REMARK    7  A    between atoms: O_19  and  C_20
REMARK    8  A    between atoms: C_25  and  O_26
REMARK    9  A    between atoms: O_26  and  C_27
REMARK   10  A    between atoms: C_27  and  C_28
REMARK                            x       y       z     vdW  Elec       q    Type
REMARK                         _______ _______ _______ _____ _____    ______ ____
ROOT
ATOM      1  C   UNL     1       3.766   3.808  18.797  0.00  0.00    +0.000 A 
ATOM      2  C   UNL     1       3.435   2.616  18.086  0.00  0.00    +0.000 A 
ATOM      3  C   UNL     1       2.153   2.086  18.081  0.00  0.00    +0.000 A 
ATOM      4  C   UNL     1       1.214   2.739  18.828  0.00  0.00    +0.000 A 
ATOM      5  N   UNL     1       1.499   3.861  19.511  0.00  0.00    +0.000 NA
ATOM      6  C   UNL     1       2.738   4.429  19.492  0.00  0.00    +0.000 A 
ENDROOT
BRANCH   1   9
ATOM      7  C   UNL     1       7.260   4.746  17.247  0.00  0.00    +0.000 C 
ATOM      8  N   UNL     1       5.830   4.435  17.365  0.00  0.00    +0.000 N 
ATOM      9  C   UNL     1       5.235   4.224  18.624  0.00  0.00    +0.000 C 
ATOM     10  N   UNL     1       5.789   4.438  19.798  0.00  0.00    +0.000 NA
BRANCH  10  11
ATOM     11  O   UNL     1       7.043   5.040  19.798  0.00  0.00    +0.000 OA
ATOM     12  H   UNL     1       6.825   5.973  19.618  0.00  0.00    +0.000 HD
ENDBRANCH  10  11
BRANCH   8  13
ATOM     13  C   UNL     1       5.087   4.697  16.130  0.00  0.00    +0.000 C 
BRANCH  13  14
ATOM     14  C   UNL     1       5.868   4.579  14.850  0.00  0.00    +0.000 A 
ATOM     15  C   UNL     1       7.034   5.284  14.545  0.00  0.00    +0.000 A 
ATOM     16  C   UNL     1       7.660   5.079  13.317  0.00  0.00    +0.000 A 
ATOM     17  C   UNL     1       7.104   4.169  12.434  0.00  0.00    +0.000 A 
ATOM     18  N   UNL     1       5.982   3.467  12.693  0.00  0.00    +0.000 NA
ATOM     19  C   UNL     1       5.394   3.690  13.883  0.00  0.00    +0.000 A 
ENDBRANCH  13  14
ENDBRANCH   8  13
ENDBRANCH   1   9
BRANCH   6  20
ATOM     20  O   UNL     1       2.867   5.686  20.117  0.00  0.00    +0.000 OA
BRANCH  20  21
ATOM     21  C   UNL     1       2.695   6.861  19.372  0.00  0.00    +0.000 A 
ATOM     22  C   UNL     1       3.178   7.018  18.056  0.00  0.00    +0.000 A 
ATOM     23  C   UNL     1       2.742   8.040  17.211  0.00  0.00    +0.000 A 
ATOM     24  C   UNL     1       1.935   9.039  17.715  0.00  0.00    +0.000 A 
ATOM     25  C   UNL     1       1.609   9.021  19.072  0.00  0.00    +0.000 A 
ATOM     26  C   UNL     1       1.986   7.951  19.913  0.00  0.00    +0.000 A 
BRANCH  26  27
ATOM     27  O   UNL     1       1.523   8.092  21.201  0.00  0.00    +0.000 OA
BRANCH  27  28
ATOM     28  C   UNL     1       0.100   8.101  21.360  0.00  0.00    +0.000 C 
BRANCH  28  29
ATOM     29  C   UNL     1      -0.441   9.489  21.681  0.00  0.00    +0.000 A 
ATOM     30  C   UNL     1      -0.689   9.941  22.983  0.00  0.00    +0.000 A 
ATOM     31  C   UNL     1      -1.142  11.251  23.216  0.00  0.00    +0.000 A 
ATOM     32  C   UNL     1      -1.356  12.119  22.153  0.00  0.00    +0.000 A 
ATOM     33  C   UNL     1      -1.144  11.680  20.849  0.00  0.00    +0.000 A 
ATOM     34  C   UNL     1      -0.694  10.375  20.619  0.00  0.00    +0.000 A 
ENDBRANCH  28  29
ENDBRANCH  27  28
ENDBRANCH  26  27
ENDBRANCH  20  21
ENDBRANCH   6  20
TORSDOF 9
ENDMDL
MODEL 4
REMARK VINA RESULT:      -8.1      4.641     10.715
REMARK  Name = 
REMARK  10 active torsions:
REMARK  status: ('A' for Active; 'I' for Inactive)
REMARK    1  A    between atoms: C_1  and  N_2
REMARK    2  A    between atoms: N_2  and  C_3
REMARK    3  A    between atoms: C_3  and  C_4
REMARK    4  A    between atoms: C_10  and  C_13
REMARK    5  A    between atoms: N_11  and  O_12
REMARK    6  A    between atoms: C_18  and  O_19
REMARK    7  A    between atoms: O_19  and  C_20
REMARK    8  A    between atoms: C_25  and  O_26
REMARK    9  A    between atoms: O_26  and  C_27
REMARK   10  A    between atoms: C_27  and  C_28
REMARK                            x       y       z     vdW  Elec       q    Type
REMARK                         _______ _______ _______ _____ _____    ______ ____
ROOT
ATOM      1  C   UNL     1      -0.223  13.056  18.893  0.00  0.00    +0.000 A 
ATOM      2  C   UNL     1      -0.085  14.465  18.723  0.00  0.00    +0.000 A 
ATOM      3  C   UNL     1       1.144  15.106  18.801  0.00  0.00    +0.000 A 
ATOM      4  C   UNL     1       2.227  14.326  19.091  0.00  0.00    +0.000 A 
ATOM      5  N   UNL     1       2.125  12.997  19.259  0.00  0.00    +0.000 NA
ATOM      6  C   UNL     1       0.938  12.337  19.139  0.00  0.00    +0.000 A 
ENDROOT
BRANCH   1   9
ATOM      7  C   UNL     1      -4.016  12.217  19.527  0.00  0.00    +0.000 C 
ATOM      8  N   UNL     1      -2.670  12.777  19.695  0.00  0.00    +0.000 N 
ATOM      9  C   UNL     1      -1.671  12.569  18.724  0.00  0.00    +0.000 C 
ATOM     10  N   UNL     1      -1.837  12.039  17.531  0.00  0.00    +0.000 NA
BRANCH  10  11
ATOM     11  O   UNL     1      -3.144  11.763  17.145  0.00  0.00    +0.000 OA
ATOM     12  H   UNL     1      -3.663  12.212  17.838  0.00  0.00    +0.000 HD
ENDBRANCH  10  11
BRANCH   8  13
ATOM     13  C   UNL     1      -2.603  13.792  20.750  0.00  0.00    +0.000 C 
BRANCH  13  14
ATOM     14  C   UNL     1      -3.378  13.495  22.004  0.00  0.00    +0.000 A 
ATOM     15  C   UNL     1      -4.486  14.211  22.460  0.00  0.00    +0.000 A 
ATOM     16  C   UNL     1      -5.113  13.828  23.644  0.00  0.00    +0.000 A 
ATOM     17  C   UNL     1      -4.616  12.735  24.332  0.00  0.00    +0.000 A 
ATOM     18  N   UNL     1      -3.550  12.016  23.923  0.00  0.00    +0.000 NA
ATOM     19  C   UNL     1      -2.959  12.412  22.781  0.00  0.00    +0.000 A 
ENDBRANCH  13  14
ENDBRANCH   8  13
ENDBRANCH   1   9
BRANCH   6  20
ATOM     20  O   UNL     1       0.990  10.929  19.181  0.00  0.00    +0.000 OA
BRANCH  20  21
ATOM     21  C   UNL     1       0.755  10.254  20.387  0.00  0.00    +0.000 A 
ATOM     22  C   UNL     1       0.200  10.876  21.525  0.00  0.00    +0.000 A 
ATOM     23  C   UNL     1      -0.323  10.155  22.599  0.00  0.00    +0.000 A 
ATOM     24  C   UNL     1      -0.152   8.786  22.643  0.00  0.00    +0.000 A 
ATOM     25  C   UNL     1       0.578   8.165  21.628  0.00  0.00    +0.000 A 
ATOM     26  C   UNL     1       1.044   8.881  20.504  0.00  0.00    +0.000 A 
BRANCH  26  27
ATOM     27  O   UNL     1       1.692   8.082  19.590  0.00  0.00    +0.000 OA
BRANCH  27  28
ATOM     28  C   UNL     1       2.479   7.016  20.133  0.00  0.00    +0.000 C 
BRANCH  28  29
ATOM     29  C   UNL     1       2.019   5.646  19.646  0.00  0.00    +0.000 A 
ATOM     30  C   UNL     1       1.386   4.706  20.466  0.00  0.00    +0.000 A 
ATOM     31  C   UNL     1       0.941   3.479  19.944  0.00  0.00    +0.000 A 
ATOM     32  C   UNL     1       1.129   3.178  18.602  0.00  0.00    +0.000 A 
ATOM     33  C   UNL     1       1.783   4.087  17.775  0.00  0.00    +0.000 A 
ATOM     34  C   UNL     1       2.226   5.308  18.297  0.00  0.00    +0.000 A 
ENDBRANCH  28  29
ENDBRANCH  27  28
ENDBRANCH  26  27
ENDBRANCH  20  21
ENDBRANCH   6  20
TORSDOF 9
ENDMDL
MODEL 5
REMARK VINA RESULT:      -8.1      4.420      8.420
REMARK  Name = 
REMARK  10 active torsions:
REMARK  status: ('A' for Active; 'I' for Inactive)
REMARK    1  A    between atoms: C_1  and  N_2
REMARK    2  A    between atoms: N_2  and  C_3
REMARK    3  A    between atoms: C_3  and  C_4
REMARK    4  A    between atoms: C_10  and  C_13
REMARK    5  A    between atoms: N_11  and  O_12
REMARK    6  A    between atoms: C_18  and  O_19
REMARK    7  A    between atoms: O_19  and  C_20
REMARK    8  A    between atoms: C_25  and  O_26
REMARK    9  A    between atoms: O_26  and  C_27
REMARK   10  A    between atoms: C_27  and  C_28
REMARK                            x       y       z     vdW  Elec       q    Type
REMARK                         _______ _______ _______ _____ _____    ______ ____
ROOT
ATOM      1  C   UNL     1       1.180  12.790  19.367  0.00  0.00    +0.000 A 
ATOM      2  C   UNL     1       2.087  13.361  18.425  0.00  0.00    +0.000 A 
ATOM      3  C   UNL     1       3.226  14.052  18.815  0.00  0.00    +0.000 A 
ATOM      4  C   UNL     1       3.425  14.201  20.159  0.00  0.00    +0.000 A 
ATOM      5  N   UNL     1       2.586  13.677  21.067  0.00  0.00    +0.000 NA
ATOM      6  C   UNL     1       1.488  12.951  20.711  0.00  0.00    +0.000 A 
ENDROOT
BRANCH   1   9
ATOM      7  C   UNL     1      -1.202   9.960  18.022  0.00  0.00    +0.000 C 
ATOM      8  N   UNL     1      -0.121  10.638  18.747  0.00  0.00    +0.000 N 
ATOM      9  C   UNL     1       0.016  12.039  18.702  0.00  0.00    +0.000 C 
ATOM     10  N   UNL     1      -0.846  12.894  18.195  0.00  0.00    +0.000 NA
BRANCH  10  11
ATOM     11  O   UNL     1      -2.062  12.376  17.763  0.00  0.00    +0.000 OA
ATOM     12  H   UNL     1      -2.171  11.597  18.341  0.00  0.00    +0.000 HD
ENDBRANCH  10  11
BRANCH   8  13
ATOM     13  C   UNL     1       0.538   9.771  19.727  0.00  0.00    +0.000 C 
BRANCH  13  14
ATOM     14  C   UNL     1       1.513   8.769  19.175  0.00  0.00    +0.000 A 
ATOM     15  C   UNL     1       2.148   8.855  17.934  0.00  0.00    +0.000 A 
ATOM     16  C   UNL     1       3.032   7.852  17.543  0.00  0.00    +0.000 A 
ATOM     17  C   UNL     1       3.260   6.795  18.409  0.00  0.00    +0.000 A 
ATOM     18  N   UNL     1       2.669   6.677  19.615  0.00  0.00    +0.000 NA
ATOM     19  C   UNL     1       1.814   7.656  19.965  0.00  0.00    +0.000 A 
ENDBRANCH  13  14
ENDBRANCH   8  13
ENDBRANCH   1   9
BRANCH   6  20
ATOM     20  O   UNL     1       0.778  12.323  21.755  0.00  0.00    +0.000 OA
BRANCH  20  21
ATOM     21  C   UNL     1      -0.490  12.794  22.123  0.00  0.00    +0.000 A 
ATOM     22  C   UNL     1      -1.672  12.046  21.947  0.00  0.00    +0.000 A 
ATOM     23  C   UNL     1      -2.869  12.366  22.590  0.00  0.00    +0.000 A 
ATOM     24  C   UNL     1      -2.964  13.547  23.297  0.00  0.00    +0.000 A 
ATOM     25  C   UNL     1      -1.868  14.411  23.316  0.00  0.00    +0.000 A 
ATOM     26  C   UNL     1      -0.633  14.056  22.730  0.00  0.00    +0.000 A 
BRANCH  26  27
ATOM     27  O   UNL     1       0.337  15.017  22.903  0.00  0.00    +0.000 OA
BRANCH  27  28
ATOM     28  C   UNL     1       0.006  16.334  22.452  0.00  0.00    +0.000 C 
BRANCH  28  29
ATOM     29  C   UNL     1       0.329  16.544  20.977  0.00  0.00    +0.000 A 
ATOM     30  C   UNL     1      -0.500  16.111  19.935  0.00  0.00    +0.000 A 
ATOM     31  C   UNL     1      -0.170  16.379  18.595  0.00  0.00    +0.000 A 
ATOM     32  C   UNL     1       0.990  17.076  18.283  0.00  0.00    +0.000 A 
ATOM     33  C   UNL     1       1.843  17.489  19.304  0.00  0.00    +0.000 A 
ATOM     34  C   UNL     1       1.513  17.220  20.637  0.00  0.00    +0.000 A 
ENDBRANCH  28  29
ENDBRANCH  27  28
ENDBRANCH  26  27
ENDBRANCH  20  21
ENDBRANCH   6  20
TORSDOF 9
ENDMDL
MODEL 6
REMARK VINA RESULT:      -8.0      4.461      9.283
REMARK  Name = 
REMARK  10 active torsions:
REMARK  status: ('A' for Active; 'I' for Inactive)
REMARK    1  A    between atoms: C_1  and  N_2
REMARK    2  A    between atoms: N_2  and  C_3
REMARK    3  A    between atoms: C_3  and  C_4
REMARK    4  A    between atoms: C_10  and  C_13
REMARK    5  A    between atoms: N_11  and  O_12
REMARK    6  A    between atoms: C_18  and  O_19
REMARK    7  A    between atoms: O_19  and  C_20
REMARK    8  A    between atoms: C_25  and  O_26
REMARK    9  A    between atoms: O_26  and  C_27
REMARK   10  A    between atoms: C_27  and  C_28
REMARK                            x       y       z     vdW  Elec       q    Type
REMARK                         _______ _______ _______ _____ _____    ______ ____
ROOT
ATOM      1  C   UNL     1      -0.229  11.270  19.140  0.00  0.00    +0.000 A 
ATOM      2  C   UNL     1      -1.597  11.589  18.891  0.00  0.00    +0.000 A 
ATOM      3  C   UNL     1      -2.355  10.918  17.940  0.00  0.00    +0.000 A 
ATOM      4  C   UNL     1      -1.717   9.954  17.213  0.00  0.00    +0.000 A 
ATOM      5  N   UNL     1      -0.429   9.637  17.424  0.00  0.00    +0.000 NA
ATOM      6  C   UNL     1       0.324  10.245  18.385  0.00  0.00    +0.000 A 
ENDROOT
BRANCH   1   9
ATOM      7  C   UNL     1       2.052  13.758  21.164  0.00  0.00    +0.000 C 
ATOM      8  N   UNL     1       1.434  13.037  20.045  0.00  0.00    +0.000 N 
ATOM      9  C   UNL     1       0.390  12.116  20.263  0.00  0.00    +0.000 C 
ATOM     10  N   UNL     1      -0.257  11.919  21.391  0.00  0.00    +0.000 NA
BRANCH  10  11
ATOM     11  O   UNL     1       0.037  12.782  22.441  0.00  0.00    +0.000 OA
ATOM     12  H   UNL     1      -0.846  12.965  22.813  0.00  0.00    +0.000 HD
ENDBRANCH  10  11
BRANCH   8  13
ATOM     13  C   UNL     1       1.776  13.609  18.741  0.00  0.00    +0.000 C 
BRANCH  13  14
ATOM     14  C   UNL     1       1.391  15.047  18.528  0.00  0.00    +0.000 A 
ATOM     15  C   UNL     1       0.098  15.563  18.630  0.00  0.00    +0.000 A 
ATOM     16  C   UNL     1      -0.120  16.921  18.406  0.00  0.00    +0.000 A 
ATOM     17  C   UNL     1       0.963  17.723  18.092  0.00  0.00    +0.000 A 
ATOM     18  N   UNL     1       2.227  17.264  17.986  0.00  0.00    +0.000 NA
ATOM     19  C   UNL     1       2.409  15.947  18.201  0.00  0.00    +0.000 A 
ENDBRANCH  13  14
ENDBRANCH   8  13
ENDBRANCH   1   9
BRANCH   6  20
ATOM     20  O   UNL     1       1.609   9.714  18.613  0.00  0.00    +0.000 OA
BRANCH  20  21
ATOM     21  C   UNL     1       1.761   8.542  19.366  0.00  0.00    +0.000 A 
ATOM     22  C   UNL     1       1.247   8.391  20.671  0.00  0.00    +0.000 A 
ATOM     23  C   UNL     1       1.115   7.146  21.289  0.00  0.00    +0.000 A 
ATOM     24  C   UNL     1       1.654   6.029  20.685  0.00  0.00    +0.000 A 
ATOM     25  C   UNL     1       2.353   6.181  19.486  0.00  0.00    +0.000 A 
ATOM     26  C   UNL     1       2.424   7.425  18.821  0.00  0.00    +0.000 A 
BRANCH  26  27
ATOM     27  O   UNL     1       3.109   7.358  17.630  0.00  0.00    +0.000 OA
BRANCH  27  28
ATOM     28  C   UNL     1       3.847   6.154  17.396  0.00  0.00    +0.000 C 
BRANCH  28  29
ATOM     29  C   UNL     1       5.315   6.286  17.785  0.00  0.00    +0.000 A 
ATOM     30  C   UNL     1       6.196   7.191  17.182  0.00  0.00    +0.000 A 
ATOM     31  C   UNL     1       7.528   7.301  17.620  0.00  0.00    +0.000 A 
ATOM     32  C   UNL     1       7.992   6.504  18.659  0.00  0.00    +0.000 A 
ATOM     33  C   UNL     1       7.140   5.577  19.253  0.00  0.00    +0.000 A 
ATOM     34  C   UNL     1       5.815   5.470  18.814  0.00  0.00    +0.000 A 
ENDBRANCH  28  29
ENDBRANCH  27  28
ENDBRANCH  26  27
ENDBRANCH  20  21
ENDBRANCH   6  20
TORSDOF 9
ENDMDL
MODEL 7
REMARK VINA RESULT:      -8.0      7.298     11.878
REMARK  Name = 
REMARK  10 active torsions:
REMARK  status: ('A' for Active; 'I' for Inactive)
REMARK    1  A    between atoms: C_1  and  N_2
REMARK    2  A    between atoms: N_2  and  C_3
REMARK    3  A    between atoms: C_3  and  C_4
REMARK    4  A    between atoms: C_10  and  C_13
REMARK    5  A    between atoms: N_11  and  O_12
REMARK    6  A    between atoms: C_18  and  O_19
REMARK    7  A    between atoms: O_19  and  C_20
REMARK    8  A    between atoms: C_25  and  O_26
REMARK    9  A    between atoms: O_26  and  C_27
REMARK   10  A    between atoms: C_27  and  C_28
REMARK                            x       y       z     vdW  Elec       q    Type
REMARK                         _______ _______ _______ _____ _____    ______ ____
ROOT
ATOM      1  C   UNL     1      -3.138  13.684  22.707  0.00  0.00    +0.000 A 
ATOM      2  C   UNL     1      -3.051  15.041  23.139  0.00  0.00    +0.000 A 
ATOM      3  C   UNL     1      -1.935  15.829  22.895  0.00  0.00    +0.000 A 
ATOM      4  C   UNL     1      -0.890  15.231  22.250  0.00  0.00    +0.000 A 
ATOM      5  N   UNL     1      -0.942  13.954  21.835  0.00  0.00    +0.000 NA
ATOM      6  C   UNL     1      -2.046  13.174  22.019  0.00  0.00    +0.000 A 
ENDROOT
BRANCH   1   9
ATOM      7  C   UNL     1      -6.825  12.320  22.526  0.00  0.00    +0.000 C 
ATOM      8  N   UNL     1      -5.527  12.875  22.124  0.00  0.00    +0.000 N 
ATOM      9  C   UNL     1      -4.482  13.027  23.055  0.00  0.00    +0.000 C 
ATOM     10  N   UNL     1      -4.456  12.560  24.285  0.00  0.00    +0.000 NA
BRANCH  10  11
ATOM     11  O   UNL     1      -5.512  11.738  24.666  0.00  0.00    +0.000 OA
ATOM     12  H   UNL     1      -5.959  12.278  25.345  0.00  0.00    +0.000 HD
ENDBRANCH  10  11
BRANCH   8  13
ATOM     13  C   UNL     1      -5.356  12.923  20.669  0.00  0.00    +0.000 C 
BRANCH  13  14
ATOM     14  C   UNL     1      -5.776  14.199  19.995  0.00  0.00    +0.000 A 
ATOM     15  C   UNL     1      -5.502  15.488  20.456  0.00  0.00    +0.000 A 
ATOM     16  C   UNL     1      -5.952  16.589  19.731  0.00  0.00    +0.000 A 
ATOM     17  C   UNL     1      -6.660  16.367  18.562  0.00  0.00    +0.000 A 
ATOM     18  N   UNL     1      -6.943  15.139  18.082  0.00  0.00    +0.000 NA
ATOM     19  C   UNL     1      -6.501  14.093  18.805  0.00  0.00    +0.000 A 
ENDBRANCH  13  14
ENDBRANCH   8  13
ENDBRANCH   1   9
BRANCH   6  20
ATOM     20  O   UNL     1      -2.035  11.908  21.400  0.00  0.00    +0.000 OA
BRANCH  20  21
ATOM     21  C   UNL     1      -0.982  11.016  21.644  0.00  0.00    +0.000 A 
ATOM     22  C   UNL     1      -0.672  10.521  22.928  0.00  0.00    +0.000 A 
ATOM     23  C   UNL     1       0.151   9.411  23.129  0.00  0.00    +0.000 A 
ATOM     24  C   UNL     1       0.827   8.866  22.056  0.00  0.00    +0.000 A 
ATOM     25  C   UNL     1       0.700   9.467  20.803  0.00  0.00    +0.000 A 
ATOM     26  C   UNL     1      -0.188  10.543  20.582  0.00  0.00    +0.000 A 
BRANCH  26  27
ATOM     27  O   UNL     1      -0.210  10.959  19.271  0.00  0.00    +0.000 OA
BRANCH  27  28
ATOM     28  C   UNL     1      -0.620   9.982  18.308  0.00  0.00    +0.000 C 
BRANCH  28  29
ATOM     29  C   UNL     1      -1.923  10.360  17.614  0.00  0.00    +0.000 A 
ATOM     30  C   UNL     1      -2.921  11.138  18.213  0.00  0.00    +0.000 A 
ATOM     31  C   UNL     1      -4.080  11.495  17.502  0.00  0.00    +0.000 A 
ATOM     32  C   UNL     1      -4.255  11.074  16.189  0.00  0.00    +0.000 A 
ATOM     33  C   UNL     1      -3.288  10.276  15.585  0.00  0.00    +0.000 A 
ATOM     34  C   UNL     1      -2.136   9.921  16.295  0.00  0.00    +0.000 A 
ENDBRANCH  28  29
ENDBRANCH  27  28
ENDBRANCH  26  27
ENDBRANCH  20  21
ENDBRANCH   6  20
TORSDOF 9
ENDMDL
MODEL 8
REMARK VINA RESULT:      -7.9      4.338     10.503
REMARK  Name = 
REMARK  10 active torsions:
REMARK  status: ('A' for Active; 'I' for Inactive)
REMARK    1  A    between atoms: C_1  and  N_2
REMARK    2  A    between atoms: N_2  and  C_3
REMARK    3  A    between atoms: C_3  and  C_4
REMARK    4  A    between atoms: C_10  and  C_13
REMARK    5  A    between atoms: N_11  and  O_12
REMARK    6  A    between atoms: C_18  and  O_19
REMARK    7  A    between atoms: O_19  and  C_20
REMARK    8  A    between atoms: C_25  and  O_26
REMARK    9  A    between atoms: O_26  and  C_27
REMARK   10  A    between atoms: C_27  and  C_28
REMARK                            x       y       z     vdW  Elec       q    Type
REMARK                         _______ _______ _______ _____ _____    ______ ____
ROOT
ATOM      1  C   UNL     1      -1.595  11.808  18.510  0.00  0.00    +0.000 A 
ATOM      2  C   UNL     1      -3.006  11.785  18.299  0.00  0.00    +0.000 A 
ATOM      3  C   UNL     1      -3.650  10.710  17.702  0.00  0.00    +0.000 A 
ATOM      4  C   UNL     1      -2.862   9.677  17.281  0.00  0.00    +0.000 A 
ATOM      5  N   UNL     1      -1.531   9.674  17.464  0.00  0.00    +0.000 NA
ATOM      6  C   UNL     1      -0.880  10.695  18.092  0.00  0.00    +0.000 A 
ENDROOT
BRANCH   1   9
ATOM      7  C   UNL     1      -1.008  14.639  21.181  0.00  0.00    +0.000 C 
ATOM      8  N   UNL     1      -1.416  13.369  20.569  0.00  0.00    +0.000 N 
ATOM      9  C   UNL     1      -1.115  13.082  19.223  0.00  0.00    +0.000 C 
ATOM     10  N   UNL     1      -0.327  13.777  18.431  0.00  0.00    +0.000 NA
BRANCH  10  11
ATOM     11  O   UNL     1       0.368  14.834  19.011  0.00  0.00    +0.000 OA
ATOM     12  H   UNL     1      -0.296  15.548  19.001  0.00  0.00    +0.000 HD
ENDBRANCH  10  11
BRANCH   8  13
ATOM     13  C   UNL     1      -1.836  12.371  21.556  0.00  0.00    +0.000 C 
BRANCH  13  14
ATOM     14  C   UNL     1      -3.178  12.596  22.195  0.00  0.00    +0.000 A 
ATOM     15  C   UNL     1      -4.310  13.096  21.548  0.00  0.00    +0.000 A 
ATOM     16  C   UNL     1      -5.495  13.256  22.262  0.00  0.00    +0.000 A 
ATOM     17  C   UNL     1      -5.514  12.907  23.601  0.00  0.00    +0.000 A 
ATOM     18  N   UNL     1      -4.444  12.420  24.261  0.00  0.00    +0.000 NA
ATOM     19  C   UNL     1      -3.310  12.281  23.550  0.00  0.00    +0.000 A 
ENDBRANCH  13  14
ENDBRANCH   8  13
ENDBRANCH   1   9
BRANCH   6  20
ATOM     20  O   UNL     1       0.490  10.501  18.362  0.00  0.00    +0.000 OA
BRANCH  20  21
ATOM     21  C   UNL     1       0.886   9.787  19.502  0.00  0.00    +0.000 A 
ATOM     22  C   UNL     1       0.507  10.151  20.810  0.00  0.00    +0.000 A 
ATOM     23  C   UNL     1       0.626   9.284  21.898  0.00  0.00    +0.000 A 
ATOM     24  C   UNL     1       1.287   8.084  21.738  0.00  0.00    +0.000 A 
ATOM     25  C   UNL     1       1.856   7.787  20.499  0.00  0.00    +0.000 A 
ATOM     26  C   UNL     1       1.674   8.627  19.378  0.00  0.00    +0.000 A 
BRANCH  26  27
ATOM     27  O   UNL     1       2.266   8.135  18.238  0.00  0.00    +0.000 OA
BRANCH  27  28
ATOM     28  C   UNL     1       2.173   6.720  18.042  0.00  0.00    +0.000 C 
BRANCH  28  29
ATOM     29  C   UNL     1       3.485   6.112  17.558  0.00  0.00    +0.000 A 
ATOM     30  C   UNL     1       3.704   4.734  17.447  0.00  0.00    +0.000 A 
ATOM     31  C   UNL     1       4.919   4.236  16.946  0.00  0.00    +0.000 A 
ATOM     32  C   UNL     1       5.928   5.109  16.558  0.00  0.00    +0.000 A 
ATOM     33  C   UNL     1       5.742   6.482  16.689  0.00  0.00    +0.000 A 
ATOM     34  C   UNL     1       4.531   6.975  17.188  0.00  0.00    +0.000 A 
ENDBRANCH  28  29
ENDBRANCH  27  28
ENDBRANCH  26  27
ENDBRANCH  20  21
ENDBRANCH   6  20
TORSDOF 9
ENDMDL
MODEL 9
REMARK VINA RESULT:      -7.9      4.650      9.382
REMARK  Name = 
REMARK  10 active torsions:
REMARK  status: ('A' for Active; 'I' for Inactive)
REMARK    1  A    between atoms: C_1  and  N_2
REMARK    2  A    between atoms: N_2  and  C_3
REMARK    3  A    between atoms: C_3  and  C_4
REMARK    4  A    between atoms: C_10  and  C_13
REMARK    5  A    between atoms: N_11  and  O_12
REMARK    6  A    between atoms: C_18  and  O_19
REMARK    7  A    between atoms: O_19  and  C_20
REMARK    8  A    between atoms: C_25  and  O_26
REMARK    9  A    between atoms: O_26  and  C_27
REMARK   10  A    between atoms: C_27  and  C_28
REMARK                            x       y       z     vdW  Elec       q    Type
REMARK                         _______ _______ _______ _____ _____    ______ ____
ROOT
ATOM      1  C   UNL     1      -2.011  11.712  18.869  0.00  0.00    +0.000 A 
ATOM      2  C   UNL     1      -3.373  11.491  18.505  0.00  0.00    +0.000 A 
ATOM      3  C   UNL     1      -3.743  10.565  17.541  0.00  0.00    +0.000 A 
ATOM      4  C   UNL     1      -2.733   9.891  16.915  0.00  0.00    +0.000 A 
ATOM      5  N   UNL     1      -1.442  10.081  17.234  0.00  0.00    +0.000 NA
ATOM      6  C   UNL     1      -1.055  10.949  18.212  0.00  0.00    +0.000 A 
ENDROOT
BRANCH   1   9
ATOM      7  C   UNL     1      -0.741  14.732  21.050  0.00  0.00    +0.000 C 
ATOM      8  N   UNL     1      -0.921  13.812  19.921  0.00  0.00    +0.000 N 
ATOM      9  C   UNL     1      -1.848  12.754  19.986  0.00  0.00    +0.000 C 
ATOM     10  N   UNL     1      -2.750  12.561  20.924  0.00  0.00    +0.000 NA
BRANCH  10  11
ATOM     11  O   UNL     1      -2.878  13.558  21.885  0.00  0.00    +0.000 OA
ATOM     12  H   UNL     1      -2.100  13.401  22.451  0.00  0.00    +0.000 HD
ENDBRANCH  10  11
BRANCH   8  13
ATOM     13  C   UNL     1      -0.311  14.306  18.683  0.00  0.00    +0.000 C 
BRANCH  13  14
ATOM     14  C   UNL     1       1.145  14.672  18.762  0.00  0.00    +0.000 A 
ATOM     15  C   UNL     1       2.202  13.768  18.883  0.00  0.00    +0.000 A 
ATOM     16  C   UNL     1       3.510  14.243  18.947  0.00  0.00    +0.000 A 
ATOM     17  C   UNL     1       3.722  15.609  18.881  0.00  0.00    +0.000 A 
ATOM     18  N   UNL     1       2.729  16.514  18.761  0.00  0.00    +0.000 NA
ATOM     19  C   UNL     1       1.475  16.028  18.709  0.00  0.00    +0.000 A 
ENDBRANCH  13  14
ENDBRANCH   8  13
ENDBRANCH   1   9
BRANCH   6  20
ATOM     20  O   UNL     1       0.311  10.941  18.561  0.00  0.00    +0.000 OA
BRANCH  20  21
ATOM     21  C   UNL     1       0.755  10.163  19.639  0.00  0.00    +0.000 A 
ATOM     22  C   UNL     1       0.653  10.576  20.983  0.00  0.00    +0.000 A 
ATOM     23  C   UNL     1       0.794   9.694  22.056  0.00  0.00    +0.000 A 
ATOM     24  C   UNL     1       1.211   8.400  21.818  0.00  0.00    +0.000 A 
ATOM     25  C   UNL     1       1.521   8.021  20.511  0.00  0.00    +0.000 A 
ATOM     26  C   UNL     1       1.309   8.888  19.417  0.00  0.00    +0.000 A 
BRANCH  26  27
ATOM     27  O   UNL     1       1.623   8.311  18.208  0.00  0.00    +0.000 OA
BRANCH  27  28
ATOM     28  C   UNL     1       2.986   7.908  18.038  0.00  0.00    +0.000 C 
BRANCH  28  29
ATOM     29  C   UNL     1       3.119   6.426  17.709  0.00  0.00    +0.000 A 
ATOM     30  C   UNL     1       4.278   5.853  17.173  0.00  0.00    +0.000 A 
ATOM     31  C   UNL     1       4.356   4.469  16.938  0.00  0.00    +0.000 A 
ATOM     32  C   UNL     1       3.276   3.647  17.230  0.00  0.00    +0.000 A 
ATOM     33  C   UNL     1       2.102   4.200  17.736  0.00  0.00    +0.000 A 
ATOM     34  C   UNL     1       2.028   5.578  17.968  0.00  0.00    +0.000 A 
ENDBRANCH  28  29
ENDBRANCH  27  28
ENDBRANCH  26  27
ENDBRANCH  20  21
ENDBRANCH   6  20
TORSDOF 9
ENDMDL
