MODEL 1
REMARK VINA RESULT:      -8.5      0.000      0.000
REMARK  Name = 
REMARK  6 active torsions:
REMARK  status: ('A' for Active; 'I' for Inactive)
REMARK    1  A    between atoms: C_1  and  N_2
REMARK    2  A    between atoms: N_2  and  C_3
REMARK    3  A    between atoms: N_2  and  C_16
REMARK    4  A    between atoms: C_3  and  C_4
REMARK    5  A    between atoms: C_5  and  C_6
REMARK    6  A    between atoms: C_16  and  C_17
REMARK                            x       y       z     vdW  Elec       q    Type
REMARK                         _______ _______ _______ _____ _____    ______ ____
ROOT
ATOM      1  C   UNL     1       2.359   3.718  20.585  0.00  0.00    +0.000 C 
ENDROOT
BRANCH   1   3
ATOM      2  C   UNL     1       2.060   1.966  18.951  0.00  0.00    +0.000 C 
ATOM      3  N   UNL     1       2.804   3.197  19.275  0.00  0.00    +0.000 NA
BRANCH   3   4
ATOM      4  C   UNL     1       4.279   3.032  19.151  0.00  0.00    +0.000 C 
BRANCH   4   5
ATOM      5  C   UNL     1       4.949   4.157  18.397  0.00  0.00    +0.000 A 
ATOM      6  C   UNL     1       4.444   4.589  17.148  0.00  0.00    +0.000 A 
ATOM      7  C   UNL     1       5.017   5.679  16.479  0.00  0.00    +0.000 A 
ATOM      8  C   UNL     1       6.111   6.305  17.065  0.00  0.00    +0.000 A 
ATOM      9  C   UNL     1       6.633   5.867  18.247  0.00  0.00    +0.000 A 
ATOM     10  C   UNL     1       6.087   4.792  18.937  0.00  0.00    +0.000 A 
ATOM     11  C   UNL     1       7.826   6.674  18.562  0.00  0.00    +0.000 C 
ATOM     12  C   UNL     1       7.705   7.796  17.508  0.00  0.00    +0.000 C 
ATOM     13  O   UNL     1       6.768   7.365  16.584  0.00  0.00    +0.000 OA
ENDBRANCH   4   5
ENDBRANCH   3   4
ENDBRANCH   1   3
BRANCH   1  14
ATOM     14  C   UNL     1       1.802   5.113  20.464  0.00  0.00    +0.000 C 
ATOM     15  C   UNL     1       2.485   6.075  19.825  0.00  0.00    +0.000 C 
BRANCH  15  16
ATOM     16  C   UNL     1       2.023   7.473  19.632  0.00  0.00    +0.000 A 
ATOM     17  C   UNL     1       2.186   8.174  18.422  0.00  0.00    +0.000 A 
ATOM     18  C   UNL     1       1.694   9.474  18.284  0.00  0.00    +0.000 A 
ATOM     19  C   UNL     1       1.037  10.097  19.352  0.00  0.00    +0.000 A 
ATOM     20  C   UNL     1       0.513  11.390  19.210  0.00  0.00    +0.000 A 
ATOM     21  C   UNL     1      -0.146  12.001  20.280  0.00  0.00    +0.000 A 
ATOM     22  C   UNL     1      -0.276  11.332  21.501  0.00  0.00    +0.000 A 
ATOM     23  C   UNL     1       0.243  10.043  21.654  0.00  0.00    +0.000 A 
ATOM     24  C   UNL     1       0.891   9.415  20.581  0.00  0.00    +0.000 A 
ATOM     25  C   UNL     1       1.387   8.108  20.712  0.00  0.00    +0.000 A 
ENDBRANCH  15  16
ENDBRANCH   1  14
TORSDOF 5
ENDMDL
MODEL 2
REMARK VINA RESULT:      -8.2      2.291      4.252
REMARK  Name = 
REMARK  6 active torsions:
REMARK  status: ('A' for Active; 'I' for Inactive)
REMARK    1  A    between atoms: C_1  and  N_2
REMARK    2  A    between atoms: N_2  and  C_3
REMARK    3  A    between atoms: N_2  and  C_16
REMARK    4  A    between atoms: C_3  and  C_4
REMARK    5  A    between atoms: C_5  and  C_6
REMARK    6  A    between atoms: C_16  and  C_17
REMARK                            x       y       z     vdW  Elec       q    Type
REMARK                         _______ _______ _______ _____ _____    ______ ____
ROOT
ATOM      1  C   UNL     1       4.995   6.507  16.351  0.00  0.00    +0.000 C 
ENDROOT
BRANCH   1   3
ATOM      2  C   UNL     1       6.834   5.106  17.046  0.00  0.00    +0.000 C 
ATOM      3  N   UNL     1       5.372   5.290  17.100  0.00  0.00    +0.000 NA
BRANCH   3   4
ATOM      4  C   UNL     1       4.621   4.067  16.700  0.00  0.00    +0.000 C 
BRANCH   4   5
ATOM      5  C   UNL     1       3.606   3.621  17.727  0.00  0.00    +0.000 A 
ATOM      6  C   UNL     1       2.667   2.609  17.419  0.00  0.00    +0.000 A 
ATOM      7  C   UNL     1       1.772   2.140  18.389  0.00  0.00    +0.000 A 
ATOM      8  C   UNL     1       1.816   2.717  19.654  0.00  0.00    +0.000 A 
ATOM      9  C   UNL     1       2.688   3.724  19.947  0.00  0.00    +0.000 A 
ATOM     10  C   UNL     1       3.590   4.210  19.008  0.00  0.00    +0.000 A 
ATOM     11  C   UNL     1       2.436   4.178  21.327  0.00  0.00    +0.000 C 
ATOM     12  C   UNL     1       1.482   3.072  21.827  0.00  0.00    +0.000 C 
ATOM     13  O   UNL     1       1.056   2.384  20.703  0.00  0.00    +0.000 OA
ENDBRANCH   4   5
ENDBRANCH   3   4
ENDBRANCH   1   3
BRANCH   1  14
ATOM     14  C   UNL     1       4.296   7.505  17.237  0.00  0.00    +0.000 C 
ATOM     15  C   UNL     1       2.973   7.428  17.454  0.00  0.00    +0.000 C 
BRANCH  15  16
ATOM     16  C   UNL     1       2.191   8.345  18.321  0.00  0.00    +0.000 A 
ATOM     17  C   UNL     1       1.629   9.549  17.853  0.00  0.00    +0.000 A 
ATOM     18  C   UNL     1       0.865  10.352  18.704  0.00  0.00    +0.000 A 
ATOM     19  C   UNL     1       0.656   9.971  20.035  0.00  0.00    +0.000 A 
ATOM     20  C   UNL     1      -0.135  10.756  20.885  0.00  0.00    +0.000 A 
ATOM     21  C   UNL     1      -0.344  10.365  22.210  0.00  0.00    +0.000 A 
ATOM     22  C   UNL     1       0.245   9.194  22.698  0.00  0.00    +0.000 A 
ATOM     23  C   UNL     1       1.036   8.403  21.860  0.00  0.00    +0.000 A 
ATOM     24  C   UNL     1       1.237   8.779  20.524  0.00  0.00    +0.000 A 
ATOM     25  C   UNL     1       2.001   7.976  19.663  0.00  0.00    +0.000 A 
ENDBRANCH  15  16
ENDBRANCH   1  14
TORSDOF 5
ENDMDL
MODEL 3
REMARK VINA RESULT:      -8.2      1.438      2.179
REMARK  Name = 
REMARK  6 active torsions:
REMARK  status: ('A' for Active; 'I' for Inactive)
REMARK    1  A    between atoms: C_1  and  N_2
REMARK    2  A    between atoms: N_2  and  C_3
REMARK    3  A    between atoms: N_2  and  C_16
REMARK    4  A    between atoms: C_3  and  C_4
REMARK    5  A    between atoms: C_5  and  C_6
REMARK    6  A    between atoms: C_16  and  C_17
REMARK                            x       y       z     vdW  Elec       q    Type
REMARK                         _______ _______ _______ _____ _____    ______ ____
ROOT
ATOM      1  C   UNL     1       2.469   4.380  20.580  0.00  0.00    +0.000 C 
ENDROOT
BRANCH   1   3
ATOM      2  C   UNL     1       1.444   3.488  18.584  0.00  0.00    +0.000 C 
ATOM      3  N   UNL     1       2.679   4.060  19.152  0.00  0.00    +0.000 NA
BRANCH   3   4
ATOM      4  C   UNL     1       3.881   3.222  18.883  0.00  0.00    +0.000 C 
BRANCH   4   5
ATOM      5  C   UNL     1       4.868   3.871  17.940  0.00  0.00    +0.000 A 
ATOM      6  C   UNL     1       5.958   4.620  18.442  0.00  0.00    +0.000 A 
ATOM      7  C   UNL     1       6.917   5.162  17.576  0.00  0.00    +0.000 A 
ATOM      8  C   UNL     1       6.751   4.966  16.210  0.00  0.00    +0.000 A 
ATOM      9  C   UNL     1       5.679   4.284  15.714  0.00  0.00    +0.000 A 
ATOM     10  C   UNL     1       4.712   3.731  16.545  0.00  0.00    +0.000 A 
ATOM     11  C   UNL     1       5.739   4.318  14.241  0.00  0.00    +0.000 C 
ATOM     12  C   UNL     1       7.159   4.885  14.022  0.00  0.00    +0.000 C 
ATOM     13  O   UNL     1       7.571   5.390  15.243  0.00  0.00    +0.000 OA
ENDBRANCH   4   5
ENDBRANCH   3   4
ENDBRANCH   1   3
BRANCH   1  14
ATOM     14  C   UNL     1       1.680   5.653  20.749  0.00  0.00    +0.000 C 
ATOM     15  C   UNL     1       2.140   6.818  20.267  0.00  0.00    +0.000 C 
BRANCH  15  16
ATOM     16  C   UNL     1       1.438   8.123  20.362  0.00  0.00    +0.000 A 
ATOM     17  C   UNL     1       1.362   9.031  19.288  0.00  0.00    +0.000 A 
ATOM     18  C   UNL     1       0.652  10.227  19.421  0.00  0.00    +0.000 A 
ATOM     19  C   UNL     1       0.013  10.539  20.628  0.00  0.00    +0.000 A 
ATOM     20  C   UNL     1      -0.728  11.722  20.758  0.00  0.00    +0.000 A 
ATOM     21  C   UNL     1      -1.368  12.021  21.963  0.00  0.00    +0.000 A 
ATOM     22  C   UNL     1      -1.263  11.147  23.051  0.00  0.00    +0.000 A 
ATOM     23  C   UNL     1      -0.527   9.964  22.933  0.00  0.00    +0.000 A 
ATOM     24  C   UNL     1       0.104   9.648  21.721  0.00  0.00    +0.000 A 
ATOM     25  C   UNL     1       0.818   8.447  21.579  0.00  0.00    +0.000 A 
ENDBRANCH  15  16
ENDBRANCH   1  14
TORSDOF 5
ENDMDL
MODEL 4
REMARK VINA RESULT:      -8.2      2.154      4.247
REMARK  Name = 
REMARK  6 active torsions:
REMARK  status: ('A' for Active; 'I' for Inactive)
REMARK    1  A    between atoms: C_1  and  N_2
REMARK    2  A    between atoms: N_2  and  C_3
REMARK    3  A    between atoms: N_2  and  C_16
REMARK    4  A    between atoms: C_3  and  C_4
REMARK    5  A    between atoms: C_5  and  C_6
REMARK    6  A    between atoms: C_16  and  C_17
REMARK                            x       y       z     vdW  Elec       q    Type
REMARK                         _______ _______ _______ _____ _____    ______ ____
ROOT
ATOM      1  C   UNL     1       4.889   6.607  16.454  0.00  0.00    +0.000 C 
ENDROOT
BRANCH   1   3
ATOM      2  C   UNL     1       7.195   6.151  17.005  0.00  0.00    +0.000 C 
ATOM      3  N   UNL     1       5.795   5.798  17.298  0.00  0.00    +0.000 NA
BRANCH   3   4
ATOM      4  C   UNL     1       5.543   4.331  17.234  0.00  0.00    +0.000 C 
BRANCH   4   5
ATOM      5  C   UNL     1       4.265   3.909  17.922  0.00  0.00    +0.000 A 
ATOM      6  C   UNL     1       3.196   3.355  17.179  0.00  0.00    +0.000 A 
ATOM      7  C   UNL     1       2.039   2.894  17.820  0.00  0.00    +0.000 A 
ATOM      8  C   UNL     1       1.960   3.023  19.202  0.00  0.00    +0.000 A 
ATOM      9  C   UNL     1       2.967   3.596  19.922  0.00  0.00    +0.000 A 
ATOM     10  C   UNL     1       4.129   4.060  19.317  0.00  0.00    +0.000 A 
ATOM     11  C   UNL     1       2.555   3.664  21.336  0.00  0.00    +0.000 C 
ATOM     12  C   UNL     1       1.287   2.784  21.312  0.00  0.00    +0.000 C 
ATOM     13  O   UNL     1       0.948   2.623  19.979  0.00  0.00    +0.000 OA
ENDBRANCH   4   5
ENDBRANCH   3   4
ENDBRANCH   1   3
BRANCH   1  14
ATOM     14  C   UNL     1       4.022   7.513  17.288  0.00  0.00    +0.000 C 
ATOM     15  C   UNL     1       3.069   7.011  18.089  0.00  0.00    +0.000 C 
BRANCH  15  16
ATOM     16  C   UNL     1       2.174   7.809  18.964  0.00  0.00    +0.000 A 
ATOM     17  C   UNL     1       1.873   7.444  20.291  0.00  0.00    +0.000 A 
ATOM     18  C   UNL     1       1.057   8.256  21.082  0.00  0.00    +0.000 A 
ATOM     19  C   UNL     1       0.523   9.442  20.562  0.00  0.00    +0.000 A 
ATOM     20  C   UNL     1      -0.270  10.277  21.360  0.00  0.00    +0.000 A 
ATOM     21  C   UNL     1      -0.793  11.461  20.834  0.00  0.00    +0.000 A 
ATOM     22  C   UNL     1      -0.537  11.813  19.504  0.00  0.00    +0.000 A 
ATOM     23  C   UNL     1       0.253  10.987  18.699  0.00  0.00    +0.000 A 
ATOM     24  C   UNL     1       0.796   9.806  19.223  0.00  0.00    +0.000 A 
ATOM     25  C   UNL     1       1.618   8.986  18.435  0.00  0.00    +0.000 A 
ENDBRANCH  15  16
ENDBRANCH   1  14
TORSDOF 5
ENDMDL
MODEL 5
REMARK VINA RESULT:      -7.9      4.195      7.459
REMARK  Name = 
REMARK  6 active torsions:
REMARK  status: ('A' for Active; 'I' for Inactive)
REMARK    1  A    between atoms: C_1  and  N_2
REMARK    2  A    between atoms: N_2  and  C_3
REMARK    3  A    between atoms: N_2  and  C_16
REMARK    4  A    between atoms: C_3  and  C_4
REMARK    5  A    between atoms: C_5  and  C_6
REMARK    6  A    between atoms: C_16  and  C_17
REMARK                            x       y       z     vdW  Elec       q    Type
REMARK                         _______ _______ _______ _____ _____    ______ ____
ROOT
ATOM      1  C   UNL     1       7.304   7.014  17.073  0.00  0.00    +0.000 C 
ENDROOT
BRANCH   1   3
ATOM      2  C   UNL     1       7.057   4.847  18.107  0.00  0.00    +0.000 C 
ATOM      3  N   UNL     1       6.370   6.108  17.774  0.00  0.00    +0.000 NA
BRANCH   3   4
ATOM      4  C   UNL     1       5.078   5.892  17.066  0.00  0.00    +0.000 C 
BRANCH   4   5
ATOM      5  C   UNL     1       4.135   4.968  17.802  0.00  0.00    +0.000 A 
ATOM      6  C   UNL     1       3.714   3.752  17.214  0.00  0.00    +0.000 A 
ATOM      7  C   UNL     1       2.899   2.857  17.920  0.00  0.00    +0.000 A 
ATOM      8  C   UNL     1       2.495   3.211  19.202  0.00  0.00    +0.000 A 
ATOM      9  C   UNL     1       2.859   4.401  19.760  0.00  0.00    +0.000 A 
ATOM     10  C   UNL     1       3.669   5.309  19.088  0.00  0.00    +0.000 A 
ATOM     11  C   UNL     1       2.211   4.521  21.079  0.00  0.00    +0.000 C 
ATOM     12  C   UNL     1       1.666   3.089  21.265  0.00  0.00    +0.000 C 
ATOM     13  O   UNL     1       1.738   2.478  20.025  0.00  0.00    +0.000 OA
ENDBRANCH   4   5
ENDBRANCH   3   4
ENDBRANCH   1   3
BRANCH   1  14
ATOM     14  C   UNL     1       7.905   8.024  18.015  0.00  0.00    +0.000 C 
ATOM     15  C   UNL     1       8.257   9.246  17.585  0.00  0.00    +0.000 C 
BRANCH  15  16
ATOM     16  C   UNL     1       8.839  10.319  18.430  0.00  0.00    +0.000 A 
ATOM     17  C   UNL     1       9.239  10.112  19.764  0.00  0.00    +0.000 A 
ATOM     18  C   UNL     1       9.819  11.149  20.499  0.00  0.00    +0.000 A 
ATOM     19  C   UNL     1      10.003  12.410  19.918  0.00  0.00    +0.000 A 
ATOM     20  C   UNL     1      10.613  13.446  20.639  0.00  0.00    +0.000 A 
ATOM     21  C   UNL     1      10.798  14.698  20.048  0.00  0.00    +0.000 A 
ATOM     22  C   UNL     1      10.365  14.928  18.738  0.00  0.00    +0.000 A 
ATOM     23  C   UNL     1       9.755  13.903  18.009  0.00  0.00    +0.000 A 
ATOM     24  C   UNL     1       9.581  12.638  18.588  0.00  0.00    +0.000 A 
ATOM     25  C   UNL     1       9.000  11.591  17.855  0.00  0.00    +0.000 A 
ENDBRANCH  15  16
ENDBRANCH   1  14
TORSDOF 5
ENDMDL
MODEL 6
REMARK VINA RESULT:      -7.9      0.642      1.573
REMARK  Name = 
REMARK  6 active torsions:
REMARK  status: ('A' for Active; 'I' for Inactive)
REMARK    1  A    between atoms: C_1  and  N_2
REMARK    2  A    between atoms: N_2  and  C_3
REMARK    3  A    between atoms: N_2  and  C_16
REMARK    4  A    between atoms: C_3  and  C_4
REMARK    5  A    between atoms: C_5  and  C_6
REMARK    6  A    between atoms: C_16  and  C_17
REMARK                            x       y       z     vdW  Elec       q    Type
REMARK                         _______ _______ _______ _____ _____    ______ ____
ROOT
ATOM      1  C   UNL     1       2.152   3.254  20.379  0.00  0.00    +0.000 C 
ENDROOT
BRANCH   1   3
ATOM      2  C   UNL     1       2.149   1.945  18.350  0.00  0.00    +0.000 C 
ATOM      3  N   UNL     1       2.761   3.095  19.040  0.00  0.00    +0.000 NA
BRANCH   3   4
ATOM      4  C   UNL     1       4.249   3.041  19.047  0.00  0.00    +0.000 C 
BRANCH   4   5
ATOM      5  C   UNL     1       4.898   4.229  18.374  0.00  0.00    +0.000 A 
ATOM      6  C   UNL     1       4.298   4.833  17.245  0.00  0.00    +0.000 A 
ATOM      7  C   UNL     1       4.855   5.979  16.662  0.00  0.00    +0.000 A 
ATOM      8  C   UNL     1       6.029   6.486  17.208  0.00  0.00    +0.000 A 
ATOM      9  C   UNL     1       6.639   5.884  18.269  0.00  0.00    +0.000 A 
ATOM     10  C   UNL     1       6.110   4.749  18.872  0.00  0.00    +0.000 A 
ATOM     11  C   UNL     1       7.894   6.601  18.560  0.00  0.00    +0.000 C 
ATOM     12  C   UNL     1       7.727   7.852  17.670  0.00  0.00    +0.000 C 
ATOM     13  O   UNL     1       6.687   7.575  16.798  0.00  0.00    +0.000 OA
ENDBRANCH   4   5
ENDBRANCH   3   4
ENDBRANCH   1   3
BRANCH   1  14
ATOM     14  C   UNL     1       1.558   4.628  20.555  0.00  0.00    +0.000 C 
ATOM     15  C   UNL     1       2.211   5.721  20.130  0.00  0.00    +0.000 C 
BRANCH  15  16
ATOM     16  C   UNL     1       1.711   7.115  20.236  0.00  0.00    +0.000 A 
ATOM     17  C   UNL     1       0.983   7.586  21.346  0.00  0.00    +0.000 A 
ATOM     18  C   UNL     1       0.573   8.920  21.411  0.00  0.00    +0.000 A 
ATOM     19  C   UNL     1       0.877   9.803  20.367  0.00  0.00    +0.000 A 
ATOM     20  C   UNL     1       0.497  11.151  20.440  0.00  0.00    +0.000 A 
ATOM     21  C   UNL     1       0.810  12.026  19.397  0.00  0.00    +0.000 A 
ATOM     22  C   UNL     1       1.495  11.560  18.270  0.00  0.00    +0.000 A 
ATOM     23  C   UNL     1       1.879  10.219  18.186  0.00  0.00    +0.000 A 
ATOM     24  C   UNL     1       1.584   9.337  19.236  0.00  0.00    +0.000 A 
ATOM     25  C   UNL     1       1.994   7.996  19.179  0.00  0.00    +0.000 A 
ENDBRANCH  15  16
ENDBRANCH   1  14
TORSDOF 5
ENDMDL
MODEL 7
REMARK VINA RESULT:      -7.9      1.300      1.960
REMARK  Name = 
REMARK  6 active torsions:
REMARK  status: ('A' for Active; 'I' for Inactive)
REMARK    1  A    between atoms: C_1  and  N_2
REMARK    2  A    between atoms: N_2  and  C_3
REMARK    3  A    between atoms: N_2  and  C_16
REMARK    4  A    between atoms: C_3  and  C_4
REMARK    5  A    between atoms: C_5  and  C_6
REMARK    6  A    between atoms: C_16  and  C_17
REMARK                            x       y       z     vdW  Elec       q    Type
REMARK                         _______ _______ _______ _____ _____    ______ ____
ROOT
ATOM      1  C   UNL     1       2.259   3.546  19.846  0.00  0.00    +0.000 C 
ENDROOT
BRANCH   1   3
ATOM      2  C   UNL     1       3.277   1.633  18.782  0.00  0.00    +0.000 C 
ATOM      3  N   UNL     1       3.337   3.098  18.939  0.00  0.00    +0.000 NA
BRANCH   3   4
ATOM      4  C   UNL     1       4.694   3.584  19.313  0.00  0.00    +0.000 C 
BRANCH   4   5
ATOM      5  C   UNL     1       5.463   4.174  18.153  0.00  0.00    +0.000 A 
ATOM      6  C   UNL     1       6.561   5.036  18.380  0.00  0.00    +0.000 A 
ATOM      7  C   UNL     1       7.323   5.526  17.311  0.00  0.00    +0.000 A 
ATOM      8  C   UNL     1       6.951   5.164  16.022  0.00  0.00    +0.000 A 
ATOM      9  C   UNL     1       5.867   4.369  15.790  0.00  0.00    +0.000 A 
ATOM     10  C   UNL     1       5.093   3.864  16.828  0.00  0.00    +0.000 A 
ATOM     11  C   UNL     1       5.684   4.235  14.333  0.00  0.00    +0.000 C 
ATOM     12  C   UNL     1       7.002   4.851  13.817  0.00  0.00    +0.000 C 
ATOM     13  O   UNL     1       7.569   5.518  14.890  0.00  0.00    +0.000 OA
ENDBRANCH   4   5
ENDBRANCH   3   4
ENDBRANCH   1   3
BRANCH   1  14
ATOM     14  C   UNL     1       1.820   4.952  19.529  0.00  0.00    +0.000 C 
ATOM     15  C   UNL     1       2.080   5.963  20.372  0.00  0.00    +0.000 C 
BRANCH  15  16
ATOM     16  C   UNL     1       1.711   7.384  20.149  0.00  0.00    +0.000 A 
ATOM     17  C   UNL     1       1.938   8.053  18.931  0.00  0.00    +0.000 A 
ATOM     18  C   UNL     1       1.531   9.379  18.764  0.00  0.00    +0.000 A 
ATOM     19  C   UNL     1       0.898  10.061  19.811  0.00  0.00    +0.000 A 
ATOM     20  C   UNL     1       0.459  11.381  19.640  0.00  0.00    +0.000 A 
ATOM     21  C   UNL     1      -0.177  12.051  20.688  0.00  0.00    +0.000 A 
ATOM     22  C   UNL     1      -0.369  11.411  21.917  0.00  0.00    +0.000 A 
ATOM     23  C   UNL     1       0.065  10.095  22.099  0.00  0.00    +0.000 A 
ATOM     24  C   UNL     1       0.689   9.409  21.047  0.00  0.00    +0.000 A 
ATOM     25  C   UNL     1       1.098   8.076  21.207  0.00  0.00    +0.000 A 
ENDBRANCH  15  16
ENDBRANCH   1  14
TORSDOF 5
ENDMDL
MODEL 8
REMARK VINA RESULT:      -7.8      2.361      4.411
REMARK  Name = 
REMARK  6 active torsions:
REMARK  status: ('A' for Active; 'I' for Inactive)
REMARK    1  A    between atoms: C_1  and  N_2
REMARK    2  A    between atoms: N_2  and  C_3
REMARK    3  A    between atoms: N_2  and  C_16
REMARK    4  A    between atoms: C_3  and  C_4
REMARK    5  A    between atoms: C_5  and  C_6
REMARK    6  A    between atoms: C_16  and  C_17
REMARK                            x       y       z     vdW  Elec       q    Type
REMARK                         _______ _______ _______ _____ _____    ______ ____
ROOT
ATOM      1  C   UNL     1       4.356   6.826  16.655  0.00  0.00    +0.000 C 
ENDROOT
BRANCH   1   3
ATOM      2  C   UNL     1       6.302   5.593  15.934  0.00  0.00    +0.000 C 
ATOM      3  N   UNL     1       5.117   5.569  16.811  0.00  0.00    +0.000 NA
BRANCH   3   4
ATOM      4  C   UNL     1       4.301   4.334  16.647  0.00  0.00    +0.000 C 
BRANCH   4   5
ATOM      5  C   UNL     1       3.849   3.732  17.957  0.00  0.00    +0.000 A 
ATOM      6  C   UNL     1       4.727   2.927  18.721  0.00  0.00    +0.000 A 
ATOM      7  C   UNL     1       4.339   2.427  19.971  0.00  0.00    +0.000 A 
ATOM      8  C   UNL     1       3.058   2.721  20.425  0.00  0.00    +0.000 A 
ATOM      9  C   UNL     1       2.190   3.458  19.676  0.00  0.00    +0.000 A 
ATOM     10  C   UNL     1       2.544   3.971  18.434  0.00  0.00    +0.000 A 
ATOM     11  C   UNL     1       0.897   3.525  20.383  0.00  0.00    +0.000 C 
ATOM     12  C   UNL     1       1.289   2.945  21.759  0.00  0.00    +0.000 C 
ATOM     13  O   UNL     1       2.527   2.347  21.594  0.00  0.00    +0.000 OA
ENDBRANCH   4   5
ENDBRANCH   3   4
ENDBRANCH   1   3
BRANCH   1  14
ATOM     14  C   UNL     1       3.696   7.235  17.946  0.00  0.00    +0.000 C 
ATOM     15  C   UNL     1       2.550   7.934  17.945  0.00  0.00    +0.000 C 
BRANCH  15  16
ATOM     16  C   UNL     1       1.808   8.370  19.154  0.00  0.00    +0.000 A 
ATOM     17  C   UNL     1       1.817   7.645  20.362  0.00  0.00    +0.000 A 
ATOM     18  C   UNL     1       1.134   8.126  21.482  0.00  0.00    +0.000 A 
ATOM     19  C   UNL     1       0.427   9.333  21.414  0.00  0.00    +0.000 A 
ATOM     20  C   UNL     1      -0.234   9.837  22.543  0.00  0.00    +0.000 A 
ATOM     21  C   UNL     1      -0.932  11.045  22.467  0.00  0.00    +0.000 A 
ATOM     22  C   UNL     1      -0.984  11.752  21.261  0.00  0.00    +0.000 A 
ATOM     23  C   UNL     1      -0.329  11.259  20.129  0.00  0.00    +0.000 A 
ATOM     24  C   UNL     1       0.388  10.056  20.200  0.00  0.00    +0.000 A 
ATOM     25  C   UNL     1       1.078   9.568  19.079  0.00  0.00    +0.000 A 
ENDBRANCH  15  16
ENDBRANCH   1  14
TORSDOF 5
ENDMDL
MODEL 9
REMARK VINA RESULT:      -7.8      1.517      2.226
REMARK  Name = 
REMARK  6 active torsions:
REMARK  status: ('A' for Active; 'I' for Inactive)
REMARK    1  A    between atoms: C_1  and  N_2
REMARK    2  A    between atoms: N_2  and  C_3
REMARK    3  A    between atoms: N_2  and  C_16
REMARK    4  A    between atoms: C_3  and  C_4
REMARK    5  A    between atoms: C_5  and  C_6
REMARK    6  A    between atoms: C_16  and  C_17
REMARK                            x       y       z     vdW  Elec       q    Type
REMARK                         _______ _______ _______ _____ _____    ______ ____
ROOT
ATOM      1  C   UNL     1       2.706   4.228  17.755  0.00  0.00    +0.000 C 
ENDROOT
BRANCH   1   3
ATOM      2  C   UNL     1       2.419   3.454  20.024  0.00  0.00    +0.000 C 
ATOM      3  N   UNL     1       3.236   3.329  18.803  0.00  0.00    +0.000 NA
BRANCH   3   4
ATOM      4  C   UNL     1       4.694   3.486  19.064  0.00  0.00    +0.000 C 
BRANCH   4   5
ATOM      5  C   UNL     1       5.442   4.142  17.927  0.00  0.00    +0.000 A 
ATOM      6  C   UNL     1       6.256   5.276  18.159  0.00  0.00    +0.000 A 
ATOM      7  C   UNL     1       7.009   5.844  17.124  0.00  0.00    +0.000 A 
ATOM      8  C   UNL     1       6.913   5.279  15.857  0.00  0.00    +0.000 A 
ATOM      9  C   UNL     1       6.097   4.213  15.614  0.00  0.00    +0.000 A 
ATOM     10  C   UNL     1       5.339   3.624  16.619  0.00  0.00    +0.000 A 
ATOM     11  C   UNL     1       6.147   3.900  14.174  0.00  0.00    +0.000 C 
ATOM     12  C   UNL     1       7.331   4.785  13.726  0.00  0.00    +0.000 C 
ATOM     13  O   UNL     1       7.569   5.673  14.761  0.00  0.00    +0.000 OA
ENDBRANCH   4   5
ENDBRANCH   3   4
ENDBRANCH   1   3
BRANCH   1  14
ATOM     14  C   UNL     1       2.006   5.420  18.354  0.00  0.00    +0.000 C 
ATOM     15  C   UNL     1       2.607   6.619  18.407  0.00  0.00    +0.000 C 
BRANCH  15  16
ATOM     16  C   UNL     1       2.004   7.859  18.956  0.00  0.00    +0.000 A 
ATOM     17  C   UNL     1       1.812   9.024  18.188  0.00  0.00    +0.000 A 
ATOM     18  C   UNL     1       1.200  10.149  18.747  0.00  0.00    +0.000 A 
ATOM     19  C   UNL     1       0.776  10.132  20.081  0.00  0.00    +0.000 A 
ATOM     20  C   UNL     1       0.133  11.246  20.639  0.00  0.00    +0.000 A 
ATOM     21  C   UNL     1      -0.292  11.218  21.970  0.00  0.00    +0.000 A 
ATOM     22  C   UNL     1      -0.068  10.082  22.756  0.00  0.00    +0.000 A 
ATOM     23  C   UNL     1       0.573   8.966  22.210  0.00  0.00    +0.000 A 
ATOM     24  C   UNL     1       0.987   8.979  20.871  0.00  0.00    +0.000 A 
ATOM     25  C   UNL     1       1.601   7.852  20.302  0.00  0.00    +0.000 A 
ENDBRANCH  15  16
ENDBRANCH   1  14
TORSDOF 5
ENDMDL
