MODEL 1
REMARK VINA RESULT:      -7.0      0.000      0.000
REMARK  Name = 
REMARK  7 active torsions:
REMARK  status: ('A' for Active; 'I' for Inactive)
REMARK    1  A    between atoms: C_1  and  C_2
REMARK    2  A    between atoms: C_2  and  N_3
REMARK    3  A    between atoms: N_3  and  C_4
REMARK    4  A    between atoms: C_4  and  C_5
REMARK    5  A    between atoms: C_6  and  C_8
REMARK    6  A    between atoms: N_12  and  C_13
REMARK    7  A    between atoms: C_13  and  C_14
REMARK                            x       y       z     vdW  Elec       q    Type
REMARK                         _______ _______ _______ _____ _____    ______ ____
ROOT
ATOM      1  C   UNL     1       4.440   3.537  18.927  0.00  0.00    +0.000 C 
ATOM      2  C   UNL     1       3.499   2.345  19.217  0.00  0.00    +0.000 C 
ATOM      3  C   UNL     1       2.065   2.717  18.859  0.00  0.00    +0.000 C 
ATOM      4  C   UNL     1       1.625   3.909  19.709  0.00  0.00    +0.000 C 
ATOM      5  N   UNL     1       2.529   5.072  19.521  0.00  0.00    +0.000 NA
ATOM      6  C   UNL     1       3.936   4.700  19.831  0.00  0.00    +0.000 C 
ENDROOT
BRANCH   1   8
ATOM      7  N   UNL     1       5.654   4.647  16.901  0.00  0.00    +0.000 N 
ATOM      8  C   UNL     1       4.561   3.983  17.443  0.00  0.00    +0.000 C 
ATOM      9  O   UNL     1       3.590   3.775  16.727  0.00  0.00    +0.000 OA
BRANCH   7  11
ATOM     10  C   UNL     1       6.667   4.529  14.599  0.00  0.00    +0.000 C 
ATOM     11  C   UNL     1       5.577   5.124  15.504  0.00  0.00    +0.000 C 
ENDBRANCH   7  11
BRANCH   7  12
ATOM     12  C   UNL     1       6.876   4.828  17.702  0.00  0.00    +0.000 C 
ATOM     13  C   UNL     1       7.383   6.261  17.916  0.00  0.00    +0.000 C 
ENDBRANCH   7  12
ENDBRANCH   1   8
BRANCH   5  14
ATOM     14  C   UNL     1       2.124   6.193  20.404  0.00  0.00    +0.000 C 
BRANCH  14  15
ATOM     15  C   UNL     1       1.935   7.503  19.657  0.00  0.00    +0.000 A 
ATOM     16  C   UNL     1       2.404   7.611  18.332  0.00  0.00    +0.000 A 
ATOM     17  C   UNL     1       2.225   8.797  17.612  0.00  0.00    +0.000 A 
ATOM     18  C   UNL     1       1.581   9.885  18.202  0.00  0.00    +0.000 A 
ATOM     19  C   UNL     1       1.114   9.793  19.516  0.00  0.00    +0.000 A 
ATOM     20  C   UNL     1       1.286   8.611  20.249  0.00  0.00    +0.000 A 
ATOM     21 CL   UNL     1       0.668   8.546  21.894  0.00  0.00    +0.000 Cl
ENDBRANCH  14  15
ENDBRANCH   5  14
TORSDOF 5
ENDMDL
MODEL 2
REMARK VINA RESULT:      -6.8      2.410      4.441
REMARK  Name = 
REMARK  7 active torsions:
REMARK  status: ('A' for Active; 'I' for Inactive)
REMARK    1  A    between atoms: C_1  and  C_2
REMARK    2  A    between atoms: C_2  and  N_3
REMARK    3  A    between atoms: N_3  and  C_4
REMARK    4  A    between atoms: C_4  and  C_5
REMARK    5  A    between atoms: C_6  and  C_8
REMARK    6  A    between atoms: N_12  and  C_13
REMARK    7  A    between atoms: C_13  and  C_14
REMARK                            x       y       z     vdW  Elec       q    Type
REMARK                         _______ _______ _______ _____ _____    ______ ____
ROOT
ATOM      1  C   UNL     1       6.190   6.009  15.773  0.00  0.00    +0.000 C 
ATOM      2  C   UNL     1       7.331   5.912  16.810  0.00  0.00    +0.000 C 
ATOM      3  C   UNL     1       6.996   4.853  17.854  0.00  0.00    +0.000 C 
ATOM      4  C   UNL     1       5.707   5.248  18.576  0.00  0.00    +0.000 C 
ATOM      5  N   UNL     1       4.581   5.417  17.623  0.00  0.00    +0.000 NA
ATOM      6  C   UNL     1       4.923   6.421  16.578  0.00  0.00    +0.000 C 
ENDROOT
BRANCH   1   8
ATOM      7  N   UNL     1       6.615   4.418  13.748  0.00  0.00    +0.000 N 
ATOM      8  C   UNL     1       5.925   4.745  14.908  0.00  0.00    +0.000 C 
ATOM      9  O   UNL     1       4.999   4.024  15.260  0.00  0.00    +0.000 OA
BRANCH   7  11
ATOM     10  C   UNL     1       4.999   3.567  12.015  0.00  0.00    +0.000 C 
ATOM     11  C   UNL     1       6.169   3.250  12.959  0.00  0.00    +0.000 C 
ENDBRANCH   7  11
BRANCH   7  12
ATOM     12  C   UNL     1       7.794   5.205  13.347  0.00  0.00    +0.000 C 
ATOM     13  C   UNL     1       7.838   5.741  11.910  0.00  0.00    +0.000 C 
ENDBRANCH   7  12
ENDBRANCH   1   8
BRANCH   5  14
ATOM     14  C   UNL     1       3.360   5.864  18.336  0.00  0.00    +0.000 C 
BRANCH  14  15
ATOM     15  C   UNL     1       2.445   4.717  18.729  0.00  0.00    +0.000 A 
ATOM     16  C   UNL     1       2.422   3.553  17.934  0.00  0.00    +0.000 A 
ATOM     17  C   UNL     1       1.606   2.472  18.283  0.00  0.00    +0.000 A 
ATOM     18  C   UNL     1       0.804   2.538  19.423  0.00  0.00    +0.000 A 
ATOM     19  C   UNL     1       0.813   3.687  20.219  0.00  0.00    +0.000 A 
ATOM     20  C   UNL     1       1.627   4.777  19.881  0.00  0.00    +0.000 A 
ATOM     21 CL   UNL     1       1.609   6.193  20.925  0.00  0.00    +0.000 Cl
ENDBRANCH  14  15
ENDBRANCH   5  14
TORSDOF 5
ENDMDL
MODEL 3
REMARK VINA RESULT:      -6.8      2.654      4.527
REMARK  Name = 
REMARK  7 active torsions:
REMARK  status: ('A' for Active; 'I' for Inactive)
REMARK    1  A    between atoms: C_1  and  C_2
REMARK    2  A    between atoms: C_2  and  N_3
REMARK    3  A    between atoms: N_3  and  C_4
REMARK    4  A    between atoms: C_4  and  C_5
REMARK    5  A    between atoms: C_6  and  C_8
REMARK    6  A    between atoms: N_12  and  C_13
REMARK    7  A    between atoms: C_13  and  C_14
REMARK                            x       y       z     vdW  Elec       q    Type
REMARK                         _______ _______ _______ _____ _____    ______ ____
ROOT
ATOM      1  C   UNL     1       5.848   6.226  16.367  0.00  0.00    +0.000 C 
ATOM      2  C   UNL     1       7.080   6.206  17.301  0.00  0.00    +0.000 C 
ATOM      3  C   UNL     1       6.895   5.144  18.380  0.00  0.00    +0.000 C 
ATOM      4  C   UNL     1       5.654   5.478  19.209  0.00  0.00    +0.000 C 
ATOM      5  N   UNL     1       4.441   5.573  18.356  0.00  0.00    +0.000 NA
ATOM      6  C   UNL     1       4.636   6.580  17.277  0.00  0.00    +0.000 C 
ENDROOT
BRANCH   1   8
ATOM      7  N   UNL     1       6.297   4.554  14.415  0.00  0.00    +0.000 N 
ATOM      8  C   UNL     1       5.579   4.938  15.540  0.00  0.00    +0.000 C 
ATOM      9  O   UNL     1       4.627   4.252  15.888  0.00  0.00    +0.000 OA
BRANCH   7  11
ATOM     10  C   UNL     1       4.957   3.721  12.452  0.00  0.00    +0.000 C 
ATOM     11  C   UNL     1       5.847   3.369  13.654  0.00  0.00    +0.000 C 
ENDBRANCH   7  11
BRANCH   7  12
ATOM     12  C   UNL     1       7.506   5.298  14.023  0.00  0.00    +0.000 C 
ATOM     13  C   UNL     1       7.884   5.313  12.536  0.00  0.00    +0.000 C 
ENDBRANCH   7  12
ENDBRANCH   1   8
BRANCH   5  14
ATOM     14  C   UNL     1       3.264   5.963  19.170  0.00  0.00    +0.000 C 
BRANCH  14  15
ATOM     15  C   UNL     1       2.535   4.774  19.771  0.00  0.00    +0.000 A 
ATOM     16  C   UNL     1       2.724   4.470  21.135  0.00  0.00    +0.000 A 
ATOM     17  C   UNL     1       2.049   3.393  21.721  0.00  0.00    +0.000 A 
ATOM     18  C   UNL     1       1.182   2.610  20.957  0.00  0.00    +0.000 A 
ATOM     19  C   UNL     1       0.988   2.897  19.604  0.00  0.00    +0.000 A 
ATOM     20  C   UNL     1       1.657   3.973  19.004  0.00  0.00    +0.000 A 
ATOM     21 CL   UNL     1       1.366   4.297  17.300  0.00  0.00    +0.000 Cl
ENDBRANCH  14  15
ENDBRANCH   5  14
TORSDOF 5
ENDMDL
MODEL 4
REMARK VINA RESULT:      -6.7      3.483      6.816
REMARK  Name = 
REMARK  7 active torsions:
REMARK  status: ('A' for Active; 'I' for Inactive)
REMARK    1  A    between atoms: C_1  and  C_2
REMARK    2  A    between atoms: C_2  and  N_3
REMARK    3  A    between atoms: N_3  and  C_4
REMARK    4  A    between atoms: C_4  and  C_5
REMARK    5  A    between atoms: C_6  and  C_8
REMARK    6  A    between atoms: N_12  and  C_13
REMARK    7  A    between atoms: C_13  and  C_14
REMARK                            x       y       z     vdW  Elec       q    Type
REMARK                         _______ _______ _______ _____ _____    ______ ____
ROOT
ATOM      1  C   UNL     1       5.051   4.706  18.842  0.00  0.00    +0.000 C 
ATOM      2  C   UNL     1       4.492   6.144  18.942  0.00  0.00    +0.000 C 
ATOM      3  C   UNL     1       4.003   6.607  17.575  0.00  0.00    +0.000 C 
ATOM      4  C   UNL     1       5.174   6.602  16.592  0.00  0.00    +0.000 C 
ATOM      5  N   UNL     1       5.796   5.257  16.496  0.00  0.00    +0.000 NA
ATOM      6  C   UNL     1       6.237   4.785  17.837  0.00  0.00    +0.000 C 
ENDROOT
BRANCH   1   8
ATOM      7  N   UNL     1       2.992   3.152  19.237  0.00  0.00    +0.000 N 
ATOM      8  C   UNL     1       4.043   3.593  18.443  0.00  0.00    +0.000 C 
ATOM      9  O   UNL     1       4.237   3.037  17.369  0.00  0.00    +0.000 OA
BRANCH   7  11
ATOM     10  C   UNL     1       0.686   2.298  18.695  0.00  0.00    +0.000 C 
ATOM     11  C   UNL     1       2.190   1.997  18.780  0.00  0.00    +0.000 C 
ENDBRANCH   7  11
BRANCH   7  12
ATOM     12  C   UNL     1       2.668   3.859  20.487  0.00  0.00    +0.000 C 
ATOM     13  C   UNL     1       2.336   3.009  21.721  0.00  0.00    +0.000 C 
ENDBRANCH   7  12
ENDBRANCH   1   8
BRANCH   5  14
ATOM     14  C   UNL     1       6.969   5.291  15.589  0.00  0.00    +0.000 C 
BRANCH  14  15
ATOM     15  C   UNL     1       6.693   4.664  14.233  0.00  0.00    +0.000 A 
ATOM     16  C   UNL     1       5.565   3.833  14.078  0.00  0.00    +0.000 A 
ATOM     17  C   UNL     1       5.273   3.259  12.835  0.00  0.00    +0.000 A 
ATOM     18  C   UNL     1       6.101   3.504  11.738  0.00  0.00    +0.000 A 
ATOM     19  C   UNL     1       7.224   4.323  11.879  0.00  0.00    +0.000 A 
ATOM     20  C   UNL     1       7.528   4.905  13.117  0.00  0.00    +0.000 A 
ATOM     21 CL   UNL     1       8.947   5.937  13.234  0.00  0.00    +0.000 Cl
ENDBRANCH  14  15
ENDBRANCH   5  14
TORSDOF 5
ENDMDL
MODEL 5
REMARK VINA RESULT:      -6.5      3.063      4.810
REMARK  Name = 
REMARK  7 active torsions:
REMARK  status: ('A' for Active; 'I' for Inactive)
REMARK    1  A    between atoms: C_1  and  C_2
REMARK    2  A    between atoms: C_2  and  N_3
REMARK    3  A    between atoms: N_3  and  C_4
REMARK    4  A    between atoms: C_4  and  C_5
REMARK    5  A    between atoms: C_6  and  C_8
REMARK    6  A    between atoms: N_12  and  C_13
REMARK    7  A    between atoms: C_13  and  C_14
REMARK                            x       y       z     vdW  Elec       q    Type
REMARK                         _______ _______ _______ _____ _____    ______ ____
ROOT
ATOM      1  C   UNL     1       5.865   6.146  16.312  0.00  0.00    +0.000 C 
ATOM      2  C   UNL     1       7.223   6.412  17.002  0.00  0.00    +0.000 C 
ATOM      3  C   UNL     1       7.522   5.303  18.004  0.00  0.00    +0.000 C 
ATOM      4  C   UNL     1       6.425   5.277  19.069  0.00  0.00    +0.000 C 
ATOM      5  N   UNL     1       5.083   5.084  18.462  0.00  0.00    +0.000 NA
ATOM      6  C   UNL     1       4.807   6.143  17.454  0.00  0.00    +0.000 C 
ENDROOT
BRANCH   1   8
ATOM      7  N   UNL     1       6.493   4.630  14.284  0.00  0.00    +0.000 N 
ATOM      8  C   UNL     1       5.765   4.861  15.443  0.00  0.00    +0.000 C 
ATOM      9  O   UNL     1       4.940   4.027  15.791  0.00  0.00    +0.000 OA
BRANCH   7  11
ATOM     10  C   UNL     1       5.122   3.637  12.419  0.00  0.00    +0.000 C 
ATOM     11  C   UNL     1       6.202   3.416  13.490  0.00  0.00    +0.000 C 
ENDBRANCH   7  11
BRANCH   7  12
ATOM     12  C   UNL     1       7.562   5.561  13.887  0.00  0.00    +0.000 C 
ATOM     13  C   UNL     1       8.096   5.465  12.452  0.00  0.00    +0.000 C 
ENDBRANCH   7  12
ENDBRANCH   1   8
BRANCH   5  14
ATOM     14  C   UNL     1       4.031   5.129  19.506  0.00  0.00    +0.000 C 
BRANCH  14  15
ATOM     15  C   UNL     1       2.932   4.102  19.289  0.00  0.00    +0.000 A 
ATOM     16  C   UNL     1       1.734   4.500  18.660  0.00  0.00    +0.000 A 
ATOM     17  C   UNL     1       0.714   3.571  18.428  0.00  0.00    +0.000 A 
ATOM     18  C   UNL     1       0.874   2.241  18.819  0.00  0.00    +0.000 A 
ATOM     19  C   UNL     1       2.054   1.833  19.446  0.00  0.00    +0.000 A 
ATOM     20  C   UNL     1       3.085   2.753  19.685  0.00  0.00    +0.000 A 
ATOM     21 CL   UNL     1       4.554   2.183  20.466  0.00  0.00    +0.000 Cl
ENDBRANCH  14  15
ENDBRANCH   5  14
TORSDOF 5
ENDMDL
MODEL 6
REMARK VINA RESULT:      -6.5      2.471      5.342
REMARK  Name = 
REMARK  7 active torsions:
REMARK  status: ('A' for Active; 'I' for Inactive)
REMARK    1  A    between atoms: C_1  and  C_2
REMARK    2  A    between atoms: C_2  and  N_3
REMARK    3  A    between atoms: N_3  and  C_4
REMARK    4  A    between atoms: C_4  and  C_5
REMARK    5  A    between atoms: C_6  and  C_8
REMARK    6  A    between atoms: N_12  and  C_13
REMARK    7  A    between atoms: C_13  and  C_14
REMARK                            x       y       z     vdW  Elec       q    Type
REMARK                         _______ _______ _______ _____ _____    ______ ____
ROOT
ATOM      1  C   UNL     1       1.525   4.133  18.280  0.00  0.00    +0.000 C 
ATOM      2  C   UNL     1       1.391   2.631  18.623  0.00  0.00    +0.000 C 
ATOM      3  C   UNL     1       2.631   2.157  19.371  0.00  0.00    +0.000 C 
ATOM      4  C   UNL     1       3.861   2.351  18.483  0.00  0.00    +0.000 C 
ATOM      5  N   UNL     1       4.012   3.769  18.068  0.00  0.00    +0.000 NA
ATOM      6  C   UNL     1       2.785   4.246  17.373  0.00  0.00    +0.000 C 
ENDROOT
BRANCH   1   8
ATOM      7  N   UNL     1       2.120   6.403  19.420  0.00  0.00    +0.000 N 
ATOM      8  C   UNL     1       1.599   5.117  19.480  0.00  0.00    +0.000 C 
ATOM      9  O   UNL     1       1.217   4.692  20.563  0.00  0.00    +0.000 OA
BRANCH   7  11
ATOM     10  C   UNL     1       0.984   7.997  21.005  0.00  0.00    +0.000 C 
ATOM     11  C   UNL     1       2.243   7.181  20.671  0.00  0.00    +0.000 C 
ENDBRANCH   7  11
BRANCH   7  12
ATOM     12  C   UNL     1       2.499   6.984  18.121  0.00  0.00    +0.000 C 
ATOM     13  C   UNL     1       2.348   8.501  17.947  0.00  0.00    +0.000 C 
ENDBRANCH   7  12
ENDBRANCH   1   8
BRANCH   5  14
ATOM     14  C   UNL     1       5.170   3.922  17.155  0.00  0.00    +0.000 C 
BRANCH  14  15
ATOM     15  C   UNL     1       6.112   5.041  17.568  0.00  0.00    +0.000 A 
ATOM     16  C   UNL     1       6.999   4.830  18.644  0.00  0.00    +0.000 A 
ATOM     17  C   UNL     1       7.892   5.834  19.033  0.00  0.00    +0.000 A 
ATOM     18  C   UNL     1       7.910   7.056  18.359  0.00  0.00    +0.000 A 
ATOM     19  C   UNL     1       7.034   7.281  17.294  0.00  0.00    +0.000 A 
ATOM     20  C   UNL     1       6.134   6.283  16.893  0.00  0.00    +0.000 A 
ATOM     21 CL   UNL     1       5.063   6.615  15.538  0.00  0.00    +0.000 Cl
ENDBRANCH  14  15
ENDBRANCH   5  14
TORSDOF 5
ENDMDL
MODEL 7
REMARK VINA RESULT:      -6.5      1.877      4.162
REMARK  Name = 
REMARK  7 active torsions:
REMARK  status: ('A' for Active; 'I' for Inactive)
REMARK    1  A    between atoms: C_1  and  C_2
REMARK    2  A    between atoms: C_2  and  N_3
REMARK    3  A    between atoms: N_3  and  C_4
REMARK    4  A    between atoms: C_4  and  C_5
REMARK    5  A    between atoms: C_6  and  C_8
REMARK    6  A    between atoms: N_12  and  C_13
REMARK    7  A    between atoms: C_13  and  C_14
REMARK                            x       y       z     vdW  Elec       q    Type
REMARK                         _______ _______ _______ _____ _____    ______ ____
ROOT
ATOM      1  C   UNL     1       5.080   4.075  17.165  0.00  0.00    +0.000 C 
ATOM      2  C   UNL     1       6.439   4.640  16.692  0.00  0.00    +0.000 C 
ATOM      3  C   UNL     1       6.820   5.850  17.538  0.00  0.00    +0.000 C 
ATOM      4  C   UNL     1       5.754   6.934  17.378  0.00  0.00    +0.000 C 
ATOM      5  N   UNL     1       4.409   6.432  17.760  0.00  0.00    +0.000 NA
ATOM      6  C   UNL     1       4.052   5.227  16.963  0.00  0.00    +0.000 C 
ENDROOT
BRANCH   1   8
ATOM      7  N   UNL     1       4.066   2.625  19.084  0.00  0.00    +0.000 N 
ATOM      8  C   UNL     1       5.024   3.513  18.613  0.00  0.00    +0.000 C 
ATOM      9  O   UNL     1       5.863   3.937  19.398  0.00  0.00    +0.000 OA
BRANCH   7  11
ATOM     10  C   UNL     1       2.812   2.769  21.263  0.00  0.00    +0.000 C 
ATOM     11  C   UNL     1       4.063   2.275  20.520  0.00  0.00    +0.000 C 
ENDBRANCH   7  11
BRANCH   7  12
ATOM     12  C   UNL     1       3.103   2.019  18.149  0.00  0.00    +0.000 C 
ATOM     13  C   UNL     1       1.706   2.647  18.058  0.00  0.00    +0.000 C 
ENDBRANCH   7  12
ENDBRANCH   1   8
BRANCH   5  14
ATOM     14  C   UNL     1       3.382   7.478  17.533  0.00  0.00    +0.000 C 
BRANCH  14  15
ATOM     15  C   UNL     1       2.492   7.712  18.742  0.00  0.00    +0.000 A 
ATOM     16  C   UNL     1       2.356   6.688  19.703  0.00  0.00    +0.000 A 
ATOM     17  C   UNL     1       1.560   6.883  20.837  0.00  0.00    +0.000 A 
ATOM     18  C   UNL     1       0.892   8.093  21.025  0.00  0.00    +0.000 A 
ATOM     19  C   UNL     1       1.015   9.115  20.080  0.00  0.00    +0.000 A 
ATOM     20  C   UNL     1       1.809   8.934  18.940  0.00  0.00    +0.000 A 
ATOM     21 CL   UNL     1       1.938  10.258  17.788  0.00  0.00    +0.000 Cl
ENDBRANCH  14  15
ENDBRANCH   5  14
TORSDOF 5
ENDMDL
MODEL 8
REMARK VINA RESULT:      -6.5      2.406      5.396
REMARK  Name = 
REMARK  7 active torsions:
REMARK  status: ('A' for Active; 'I' for Inactive)
REMARK    1  A    between atoms: C_1  and  C_2
REMARK    2  A    between atoms: C_2  and  N_3
REMARK    3  A    between atoms: N_3  and  C_4
REMARK    4  A    between atoms: C_4  and  C_5
REMARK    5  A    between atoms: C_6  and  C_8
REMARK    6  A    between atoms: N_12  and  C_13
REMARK    7  A    between atoms: C_13  and  C_14
REMARK                            x       y       z     vdW  Elec       q    Type
REMARK                         _______ _______ _______ _____ _____    ______ ____
ROOT
ATOM      1  C   UNL     1       5.312   6.174  17.710  0.00  0.00    +0.000 C 
ATOM      2  C   UNL     1       6.301   5.880  16.559  0.00  0.00    +0.000 C 
ATOM      3  C   UNL     1       5.594   5.104  15.453  0.00  0.00    +0.000 C 
ATOM      4  C   UNL     1       5.085   3.777  16.015  0.00  0.00    +0.000 C 
ATOM      5  N   UNL     1       4.173   3.990  17.168  0.00  0.00    +0.000 NA
ATOM      6  C   UNL     1       4.848   4.783  18.232  0.00  0.00    +0.000 C 
ENDROOT
BRANCH   1   8
ATOM      7  N   UNL     1       2.999   7.280  18.195  0.00  0.00    +0.000 N 
ATOM      8  C   UNL     1       4.099   7.085  17.371  0.00  0.00    +0.000 C 
ATOM      9  O   UNL     1       4.106   7.620  16.270  0.00  0.00    +0.000 OA
BRANCH   7  11
ATOM     10  C   UNL     1       2.001   9.580  17.961  0.00  0.00    +0.000 C 
ATOM     11  C   UNL     1       1.860   8.075  17.687  0.00  0.00    +0.000 C 
ENDBRANCH   7  11
BRANCH   7  12
ATOM     12  C   UNL     1       2.997   6.734  19.563  0.00  0.00    +0.000 C 
ATOM     13  C   UNL     1       1.757   6.987  20.430  0.00  0.00    +0.000 C 
ENDBRANCH   7  12
ENDBRANCH   1   8
BRANCH   5  14
ATOM     14  C   UNL     1       3.745   2.689  17.738  0.00  0.00    +0.000 C 
BRANCH  14  15
ATOM     15  C   UNL     1       2.874   2.838  18.975  0.00  0.00    +0.000 A 
ATOM     16  C   UNL     1       1.556   3.319  18.832  0.00  0.00    +0.000 A 
ATOM     17  C   UNL     1       0.724   3.447  19.949  0.00  0.00    +0.000 A 
ATOM     18  C   UNL     1       1.194   3.099  21.217  0.00  0.00    +0.000 A 
ATOM     19  C   UNL     1       2.498   2.625  21.373  0.00  0.00    +0.000 A 
ATOM     20  C   UNL     1       3.343   2.492  20.263  0.00  0.00    +0.000 A 
ATOM     21 CL   UNL     1       4.972   1.877  20.516  0.00  0.00    +0.000 Cl
ENDBRANCH  14  15
ENDBRANCH   5  14
TORSDOF 5
ENDMDL
MODEL 9
REMARK VINA RESULT:      -6.4      2.143      5.267
REMARK  Name = 
REMARK  7 active torsions:
REMARK  status: ('A' for Active; 'I' for Inactive)
REMARK    1  A    between atoms: C_1  and  C_2
REMARK    2  A    between atoms: C_2  and  N_3
REMARK    3  A    between atoms: N_3  and  C_4
REMARK    4  A    between atoms: C_4  and  C_5
REMARK    5  A    between atoms: C_6  and  C_8
REMARK    6  A    between atoms: N_12  and  C_13
REMARK    7  A    between atoms: C_13  and  C_14
REMARK                            x       y       z     vdW  Elec       q    Type
REMARK                         _______ _______ _______ _____ _____    ______ ____
ROOT
ATOM      1  C   UNL     1       5.377   6.277  17.756  0.00  0.00    +0.000 C 
ATOM      2  C   UNL     1       6.373   5.978  16.613  0.00  0.00    +0.000 C 
ATOM      3  C   UNL     1       5.692   5.142  15.536  0.00  0.00    +0.000 C 
ATOM      4  C   UNL     1       5.228   3.817  16.144  0.00  0.00    +0.000 C 
ATOM      5  N   UNL     1       4.311   4.039  17.291  0.00  0.00    +0.000 NA
ATOM      6  C   UNL     1       4.961   4.889  18.326  0.00  0.00    +0.000 C 
ENDROOT
BRANCH   1   8
ATOM      7  N   UNL     1       3.028   7.320  18.210  0.00  0.00    +0.000 N 
ATOM      8  C   UNL     1       4.134   7.135  17.390  0.00  0.00    +0.000 C 
ATOM      9  O   UNL     1       4.122   7.633  16.271  0.00  0.00    +0.000 OA
BRANCH   7  11
ATOM     10  C   UNL     1       1.958   9.577  17.893  0.00  0.00    +0.000 C 
ATOM     11  C   UNL     1       1.863   8.059  17.678  0.00  0.00    +0.000 C 
ENDBRANCH   7  11
BRANCH   7  12
ATOM     12  C   UNL     1       3.047   6.819  19.595  0.00  0.00    +0.000 C 
ATOM     13  C   UNL     1       1.823   7.109  20.474  0.00  0.00    +0.000 C 
ENDBRANCH   7  12
ENDBRANCH   1   8
BRANCH   5  14
ATOM     14  C   UNL     1       3.928   2.745  17.906  0.00  0.00    +0.000 C 
BRANCH  14  15
ATOM     15  C   UNL     1       2.999   2.903  19.098  0.00  0.00    +0.000 A 
ATOM     16  C   UNL     1       3.409   2.418  20.357  0.00  0.00    +0.000 A 
ATOM     17  C   UNL     1       2.584   2.568  21.477  0.00  0.00    +0.000 A 
ATOM     18  C   UNL     1       1.345   3.200  21.356  0.00  0.00    +0.000 A 
ATOM     19  C   UNL     1       0.925   3.682  20.114  0.00  0.00    +0.000 A 
ATOM     20  C   UNL     1       1.741   3.539  18.983  0.00  0.00    +0.000 A 
ATOM     21 CL   UNL     1       1.167   4.176  17.447  0.00  0.00    +0.000 Cl
ENDBRANCH  14  15
ENDBRANCH   5  14
TORSDOF 5
ENDMDL
