MODEL 1
REMARK VINA RESULT:      -9.0      0.000      0.000
REMARK  Name = 
REMARK  4 active torsions:
REMARK  status: ('A' for Active; 'I' for Inactive)
REMARK    1  A    between atoms: C_2  and  C_3
REMARK    2  A    between atoms: C_3  and  O_4
REMARK    3  A    between atoms: O_4  and  C_5
REMARK    4  A    between atoms: N_16  and  N_17
REMARK                            x       y       z     vdW  Elec       q    Type
REMARK                         _______ _______ _______ _____ _____    ______ ____
ROOT
ATOM      1  O   UNL     1       0.497   9.825  19.866  0.00  0.00    +0.000 OA
ATOM      2  C   UNL     1       0.387   9.704  18.646  0.00  0.00    +0.000 C 
ATOM      3  N   UNL     1      -0.688  10.159  17.894  0.00  0.00    +0.000 N 
ATOM      4  H   UNL     1      -0.701  10.034  16.880  0.00  0.00    +0.000 HD
ENDROOT
BRANCH   3   5
ATOM      5  N   UNL     1      -1.693  10.877  18.491  0.00  0.00    +0.000 NA
ATOM      6  C   UNL     1      -2.799  10.988  17.826  0.00  0.00    +0.000 C 
ATOM      7  C   UNL     1      -3.119  10.446  16.428  0.00  0.00    +0.000 C 
ATOM      8  O   UNL     1      -2.388   9.724  15.785  0.00  0.00    +0.000 OA
ATOM      9  N   UNL     1      -4.360  10.950  16.110  0.00  0.00    +0.000 N 
ATOM     10  C   UNL     1      -4.873  11.698  17.166  0.00  0.00    +0.000 A 
ATOM     11  C   UNL     1      -6.092  12.338  17.218  0.00  0.00    +0.000 A 
ATOM     12  C   UNL     1      -6.420  13.000  18.408  0.00  0.00    +0.000 A 
ATOM     13  C   UNL     1      -5.526  13.006  19.500  0.00  0.00    +0.000 A 
ATOM     14 BR   UNL     1      -6.039  13.872  21.103  0.00  0.00    +0.000 Br
ATOM     15  C   UNL     1      -4.282  12.375  19.429  0.00  0.00    +0.000 A 
ATOM     16  C   UNL     1      -3.988  11.731  18.245  0.00  0.00    +0.000 A 
ATOM     17  H   UNL     1      -4.829  10.759  15.237  0.00  0.00    +0.000 HD
ENDBRANCH   3   5
BRANCH   2  18
ATOM     18  C   UNL     1       1.494   9.079  17.798  0.00  0.00    +0.000 C 
BRANCH  18  19
ATOM     19  O   UNL     1       2.421   8.371  18.613  0.00  0.00    +0.000 OA
BRANCH  19  20
ATOM     20  C   UNL     1       3.069   7.314  18.031  0.00  0.00    +0.000 A 
ATOM     21  C   UNL     1       2.483   6.064  18.261  0.00  0.00    +0.000 A 
ATOM     22  C   UNL     1       3.050   4.892  17.737  0.00  0.00    +0.000 A 
ATOM     23  C   UNL     1       4.216   4.964  16.974  0.00  0.00    +0.000 A 
ATOM     24  C   UNL     1       4.866   3.782  16.437  0.00  0.00    +0.000 A 
ATOM     25  C   UNL     1       5.979   3.919  15.708  0.00  0.00    +0.000 A 
ATOM     26  C   UNL     1       6.576   5.234  15.412  0.00  0.00    +0.000 A 
ATOM     27  O   UNL     1       7.582   5.321  14.718  0.00  0.00    +0.000 OA
ATOM     28  O   UNL     1       5.946   6.345  15.954  0.00  0.00    +0.000 OA
ATOM     29  C   UNL     1       4.778   6.216  16.735  0.00  0.00    +0.000 A 
ATOM     30  C   UNL     1       4.224   7.390  17.252  0.00  0.00    +0.000 A 
ENDBRANCH  19  20
ENDBRANCH  18  19
ENDBRANCH   2  18
TORSDOF 4
ENDMDL
MODEL 2
REMARK VINA RESULT:      -8.8      5.710     10.635
REMARK  Name = 
REMARK  4 active torsions:
REMARK  status: ('A' for Active; 'I' for Inactive)
REMARK    1  A    between atoms: C_2  and  C_3
REMARK    2  A    between atoms: C_3  and  O_4
REMARK    3  A    between atoms: O_4  and  C_5
REMARK    4  A    between atoms: N_16  and  N_17
REMARK                            x       y       z     vdW  Elec       q    Type
REMARK                         _______ _______ _______ _____ _____    ______ ____
ROOT
ATOM      1  O   UNL     1       1.919   3.200  17.711  0.00  0.00    +0.000 OA
ATOM      2  C   UNL     1       2.728   3.971  18.228  0.00  0.00    +0.000 C 
ATOM      3  N   UNL     1       3.940   4.348  17.667  0.00  0.00    +0.000 N 
ATOM      4  H   UNL     1       4.554   5.006  18.153  0.00  0.00    +0.000 HD
ENDROOT
BRANCH   3   5
ATOM      5  N   UNL     1       4.278   3.927  16.406  0.00  0.00    +0.000 NA
ATOM      6  C   UNL     1       5.348   4.444  15.889  0.00  0.00    +0.000 C 
ATOM      7  C   UNL     1       6.272   5.505  16.499  0.00  0.00    +0.000 C 
ATOM      8  O   UNL     1       6.179   5.934  17.629  0.00  0.00    +0.000 OA
ATOM      9  N   UNL     1       7.173   5.825  15.507  0.00  0.00    +0.000 N 
ATOM     10  C   UNL     1       6.950   5.051  14.372  0.00  0.00    +0.000 A 
ATOM     11  C   UNL     1       7.662   5.080  13.192  0.00  0.00    +0.000 A 
ATOM     12  C   UNL     1       7.286   4.174  12.193  0.00  0.00    +0.000 A 
ATOM     13  C   UNL     1       6.217   3.276  12.399  0.00  0.00    +0.000 A 
ATOM     14 BR   UNL     1       5.782   2.038  11.035  0.00  0.00    +0.000 Br
ATOM     15  C   UNL     1       5.485   3.272  13.588  0.00  0.00    +0.000 A 
ATOM     16  C   UNL     1       5.880   4.174  14.555  0.00  0.00    +0.000 A 
ATOM     17  H   UNL     1       7.908   6.507  15.625  0.00  0.00    +0.000 HD
ENDBRANCH   3   5
BRANCH   2  18
ATOM     18  C   UNL     1       2.436   4.667  19.558  0.00  0.00    +0.000 C 
BRANCH  18  19
ATOM     19  O   UNL     1       3.179   5.875  19.672  0.00  0.00    +0.000 OA
BRANCH  19  20
ATOM     20  C   UNL     1       2.478   7.043  19.530  0.00  0.00    +0.000 A 
ATOM     21  C   UNL     1       2.554   7.626  18.260  0.00  0.00    +0.000 A 
ATOM     22  C   UNL     1       1.896   8.833  17.977  0.00  0.00    +0.000 A 
ATOM     23  C   UNL     1       1.153   9.470  18.971  0.00  0.00    +0.000 A 
ATOM     24  C   UNL     1       0.481  10.737  18.746  0.00  0.00    +0.000 A 
ATOM     25  C   UNL     1      -0.220  11.294  19.740  0.00  0.00    +0.000 A 
ATOM     26  C   UNL     1      -0.354  10.664  21.066  0.00  0.00    +0.000 A 
ATOM     27  O   UNL     1      -1.027  11.191  21.943  0.00  0.00    +0.000 OA
ATOM     28  O   UNL     1       0.314   9.463  21.260  0.00  0.00    +0.000 OA
ATOM     29  C   UNL     1       1.068   8.870  20.225  0.00  0.00    +0.000 A 
ATOM     30  C   UNL     1       1.719   7.669  20.520  0.00  0.00    +0.000 A 
ENDBRANCH  19  20
ENDBRANCH  18  19
ENDBRANCH   2  18
TORSDOF 4
ENDMDL
MODEL 3
REMARK VINA RESULT:      -8.8      3.498      4.596
REMARK  Name = 
REMARK  4 active torsions:
REMARK  status: ('A' for Active; 'I' for Inactive)
REMARK    1  A    between atoms: C_2  and  C_3
REMARK    2  A    between atoms: C_3  and  O_4
REMARK    3  A    between atoms: O_4  and  C_5
REMARK    4  A    between atoms: N_16  and  N_17
REMARK                            x       y       z     vdW  Elec       q    Type
REMARK                         _______ _______ _______ _____ _____    ______ ____
ROOT
ATOM      1  O   UNL     1       1.064   5.027  20.672  0.00  0.00    +0.000 OA
ATOM      2  C   UNL     1       2.130   5.414  20.194  0.00  0.00    +0.000 C 
ATOM      3  N   UNL     1       2.517   6.742  20.079  0.00  0.00    +0.000 N 
ATOM      4  H   UNL     1       3.428   6.984  19.682  0.00  0.00    +0.000 HD
ENDROOT
BRANCH   3   5
ATOM      5  N   UNL     1       1.729   7.738  20.597  0.00  0.00    +0.000 NA
ATOM      6  C   UNL     1       1.402   8.697  19.790  0.00  0.00    +0.000 C 
ATOM      7  C   UNL     1       1.819   8.882  18.327  0.00  0.00    +0.000 C 
ATOM      8  O   UNL     1       2.444   8.069  17.679  0.00  0.00    +0.000 OA
ATOM      9  N   UNL     1       1.339  10.119  17.958  0.00  0.00    +0.000 N 
ATOM     10  C   UNL     1       0.627  10.702  19.003  0.00  0.00    +0.000 A 
ATOM     11  C   UNL     1      -0.011  11.923  18.997  0.00  0.00    +0.000 A 
ATOM     12  C   UNL     1      -0.707  12.290  20.155  0.00  0.00    +0.000 A 
ATOM     13  C   UNL     1      -0.744  11.434  21.276  0.00  0.00    +0.000 A 
ATOM     14 BR   UNL     1      -1.742  11.955  22.797  0.00  0.00    +0.000 Br
ATOM     15  C   UNL     1      -0.073  10.209  21.282  0.00  0.00    +0.000 A 
ATOM     16  C   UNL     1       0.603   9.874  20.127  0.00  0.00    +0.000 A 
ATOM     17  H   UNL     1       1.467  10.513  17.038  0.00  0.00    +0.000 HD
ENDBRANCH   3   5
BRANCH   2  18
ATOM     18  C   UNL     1       3.202   4.431  19.722  0.00  0.00    +0.000 C 
BRANCH  18  19
ATOM     19  O   UNL     1       4.488   5.040  19.727  0.00  0.00    +0.000 OA
BRANCH  19  20
ATOM     20  C   UNL     1       5.180   5.023  18.544  0.00  0.00    +0.000 A 
ATOM     21  C   UNL     1       6.454   5.600  18.598  0.00  0.00    +0.000 A 
ATOM     22  C   UNL     1       7.267   5.665  17.457  0.00  0.00    +0.000 A 
ATOM     23  C   UNL     1       6.807   5.151  16.245  0.00  0.00    +0.000 A 
ATOM     24  C   UNL     1       7.590   5.222  15.023  0.00  0.00    +0.000 A 
ATOM     25  C   UNL     1       7.094   4.705  13.894  0.00  0.00    +0.000 A 
ATOM     26  C   UNL     1       5.776   4.047  13.835  0.00  0.00    +0.000 A 
ATOM     27  O   UNL     1       5.367   3.561  12.788  0.00  0.00    +0.000 OA
ATOM     28  O   UNL     1       5.041   4.009  15.012  0.00  0.00    +0.000 OA
ATOM     29  C   UNL     1       5.545   4.561  16.208  0.00  0.00    +0.000 A 
ATOM     30  C   UNL     1       4.725   4.491  17.338  0.00  0.00    +0.000 A 
ENDBRANCH  19  20
ENDBRANCH  18  19
ENDBRANCH   2  18
TORSDOF 4
ENDMDL
MODEL 4
REMARK VINA RESULT:      -8.7      5.438     10.596
REMARK  Name = 
REMARK  4 active torsions:
REMARK  status: ('A' for Active; 'I' for Inactive)
REMARK    1  A    between atoms: C_2  and  C_3
REMARK    2  A    between atoms: C_3  and  O_4
REMARK    3  A    between atoms: O_4  and  C_5
REMARK    4  A    between atoms: N_16  and  N_17
REMARK                            x       y       z     vdW  Elec       q    Type
REMARK                         _______ _______ _______ _____ _____    ______ ____
ROOT
ATOM      1  O   UNL     1       1.561   4.135  17.508  0.00  0.00    +0.000 OA
ATOM      2  C   UNL     1       2.478   4.679  18.124  0.00  0.00    +0.000 C 
ATOM      3  N   UNL     1       3.796   4.747  17.693  0.00  0.00    +0.000 N 
ATOM      4  H   UNL     1       4.500   5.230  18.256  0.00  0.00    +0.000 HD
ENDROOT
BRANCH   3   5
ATOM      5  N   UNL     1       4.145   4.263  16.459  0.00  0.00    +0.000 NA
ATOM      6  C   UNL     1       5.268   4.683  15.968  0.00  0.00    +0.000 C 
ATOM      7  C   UNL     1       6.246   5.692  16.579  0.00  0.00    +0.000 C 
ATOM      8  O   UNL     1       6.146   6.164  17.692  0.00  0.00    +0.000 OA
ATOM      9  N   UNL     1       7.202   5.914  15.613  0.00  0.00    +0.000 N 
ATOM     10  C   UNL     1       6.963   5.122  14.493  0.00  0.00    +0.000 A 
ATOM     11  C   UNL     1       7.715   5.060  13.341  0.00  0.00    +0.000 A 
ATOM     12  C   UNL     1       7.308   4.153  12.355  0.00  0.00    +0.000 A 
ATOM     13  C   UNL     1       6.169   3.342  12.548  0.00  0.00    +0.000 A 
ATOM     14 BR   UNL     1       5.691   2.096  11.206  0.00  0.00    +0.000 Br
ATOM     15  C   UNL     1       5.398   3.430  13.709  0.00  0.00    +0.000 A 
ATOM     16  C   UNL     1       5.824   4.332  14.662  0.00  0.00    +0.000 A 
ATOM     17  H   UNL     1       7.981   6.544  15.737  0.00  0.00    +0.000 HD
ENDBRANCH   3   5
BRANCH   2  18
ATOM     18  C   UNL     1       2.233   5.419  19.439  0.00  0.00    +0.000 C 
BRANCH  18  19
ATOM     19  O   UNL     1       2.811   6.719  19.406  0.00  0.00    +0.000 OA
BRANCH  19  20
ATOM     20  C   UNL     1       1.990   7.765  19.735  0.00  0.00    +0.000 A 
ATOM     21  C   UNL     1       1.443   7.703  21.022  0.00  0.00    +0.000 A 
ATOM     22  C   UNL     1       0.573   8.700  21.486  0.00  0.00    +0.000 A 
ATOM     23  C   UNL     1       0.240   9.774  20.660  0.00  0.00    +0.000 A 
ATOM     24  C   UNL     1      -0.683  10.816  21.074  0.00  0.00    +0.000 A 
ATOM     25  C   UNL     1      -0.956  11.822  20.236  0.00  0.00    +0.000 A 
ATOM     26  C   UNL     1      -0.345  11.928  18.898  0.00  0.00    +0.000 A 
ATOM     27  O   UNL     1      -0.600  12.878  18.169  0.00  0.00    +0.000 OA
ATOM     28  O   UNL     1       0.518  10.909  18.521  0.00  0.00    +0.000 OA
ATOM     29  C   UNL     1       0.806   9.834  19.389  0.00  0.00    +0.000 A 
ATOM     30  C   UNL     1       1.674   8.847  18.914  0.00  0.00    +0.000 A 
ENDBRANCH  19  20
ENDBRANCH  18  19
ENDBRANCH   2  18
TORSDOF 4
ENDMDL
MODEL 5
REMARK VINA RESULT:      -8.5      5.047     10.795
REMARK  Name = 
REMARK  4 active torsions:
REMARK  status: ('A' for Active; 'I' for Inactive)
REMARK    1  A    between atoms: C_2  and  C_3
REMARK    2  A    between atoms: C_3  and  O_4
REMARK    3  A    between atoms: O_4  and  C_5
REMARK    4  A    between atoms: N_16  and  N_17
REMARK                            x       y       z     vdW  Elec       q    Type
REMARK                         _______ _______ _______ _____ _____    ______ ____
ROOT
ATOM      1  O   UNL     1       2.519  11.095  17.995  0.00  0.00    +0.000 OA
ATOM      2  C   UNL     1       1.541  10.461  18.390  0.00  0.00    +0.000 C 
ATOM      3  N   UNL     1       1.349   9.097  18.208  0.00  0.00    +0.000 N 
ATOM      4  H   UNL     1       0.514   8.638  18.579  0.00  0.00    +0.000 HD
ENDROOT
BRANCH   3   5
ATOM      5  N   UNL     1       2.328   8.334  17.626  0.00  0.00    +0.000 NA
ATOM      6  C   UNL     1       2.785   7.344  18.326  0.00  0.00    +0.000 C 
ATOM      7  C   UNL     1       2.393   6.937  19.751  0.00  0.00    +0.000 C 
ATOM      8  O   UNL     1       1.494   7.441  20.391  0.00  0.00    +0.000 OA
ATOM      9  N   UNL     1       3.258   5.923  20.097  0.00  0.00    +0.000 N 
ATOM     10  C   UNL     1       4.107   5.617  19.037  0.00  0.00    +0.000 A 
ATOM     11  C   UNL     1       5.088   4.649  19.009  0.00  0.00    +0.000 A 
ATOM     12  C   UNL     1       5.795   4.487  17.811  0.00  0.00    +0.000 A 
ATOM     13  C   UNL     1       5.506   5.291  16.688  0.00  0.00    +0.000 A 
ATOM     14 BR   UNL     1       6.456   4.995  15.078  0.00  0.00    +0.000 Br
ATOM     15  C   UNL     1       4.527   6.285  16.734  0.00  0.00    +0.000 A 
ATOM     16  C   UNL     1       3.846   6.421  17.927  0.00  0.00    +0.000 A 
ATOM     17  H   UNL     1       3.237   5.457  20.993  0.00  0.00    +0.000 HD
ENDBRANCH   3   5
BRANCH   2  18
ATOM     18  C   UNL     1       0.431  11.122  19.207  0.00  0.00    +0.000 C 
BRANCH  18  19
ATOM     19  O   UNL     1       0.751  11.120  20.593  0.00  0.00    +0.000 OA
BRANCH  19  20
ATOM     20  C   UNL     1      -0.069  11.848  21.415  0.00  0.00    +0.000 A 
ATOM     21  C   UNL     1       0.329  13.173  21.622  0.00  0.00    +0.000 A 
ATOM     22  C   UNL     1      -0.410  14.029  22.453  0.00  0.00    +0.000 A 
ATOM     23  C   UNL     1      -1.560  13.560  23.087  0.00  0.00    +0.000 A 
ATOM     24  C   UNL     1      -2.344  14.389  23.986  0.00  0.00    +0.000 A 
ATOM     25  C   UNL     1      -3.441  13.881  24.559  0.00  0.00    +0.000 A 
ATOM     26  C   UNL     1      -3.902  12.504  24.306  0.00  0.00    +0.000 A 
ATOM     27  O   UNL     1      -4.927  12.083  24.829  0.00  0.00    +0.000 OA
ATOM     28  O   UNL     1      -3.124  11.727  23.459  0.00  0.00    +0.000 OA
ATOM     29  C   UNL     1      -1.958  12.245  22.857  0.00  0.00    +0.000 A 
ATOM     30  C   UNL     1      -1.230  11.382  22.033  0.00  0.00    +0.000 A 
ENDBRANCH  19  20
ENDBRANCH  18  19
ENDBRANCH   2  18
TORSDOF 4
ENDMDL
MODEL 6
REMARK VINA RESULT:      -8.4      2.472      3.195
REMARK  Name = 
REMARK  4 active torsions:
REMARK  status: ('A' for Active; 'I' for Inactive)
REMARK    1  A    between atoms: C_2  and  C_3
REMARK    2  A    between atoms: C_3  and  O_4
REMARK    3  A    between atoms: O_4  and  C_5
REMARK    4  A    between atoms: N_16  and  N_17
REMARK                            x       y       z     vdW  Elec       q    Type
REMARK                         _______ _______ _______ _____ _____    ______ ____
ROOT
ATOM      1  O   UNL     1      -0.691   9.676  19.930  0.00  0.00    +0.000 OA
ATOM      2  C   UNL     1      -0.435  10.115  18.809  0.00  0.00    +0.000 C 
ATOM      3  N   UNL     1      -1.202  11.049  18.125  0.00  0.00    +0.000 N 
ATOM      4  H   UNL     1      -0.916  11.377  17.200  0.00  0.00    +0.000 HD
ENDROOT
BRANCH   3   5
ATOM      5  N   UNL     1      -2.293  11.621  18.728  0.00  0.00    +0.000 NA
ATOM      6  C   UNL     1      -3.423  11.515  18.103  0.00  0.00    +0.000 C 
ATOM      7  C   UNL     1      -3.691  10.858  16.744  0.00  0.00    +0.000 C 
ATOM      8  O   UNL     1      -2.871  10.235  16.105  0.00  0.00    +0.000 OA
ATOM      9  N   UNL     1      -5.008  11.135  16.452  0.00  0.00    +0.000 N 
ATOM     10  C   UNL     1      -5.605  11.841  17.494  0.00  0.00    +0.000 A 
ATOM     11  C   UNL     1      -6.911  12.274  17.565  0.00  0.00    +0.000 A 
ATOM     12  C   UNL     1      -7.306  12.932  18.735  0.00  0.00    +0.000 A 
ATOM     13  C   UNL     1      -6.392  13.139  19.791  0.00  0.00    +0.000 A 
ATOM     14 BR   UNL     1      -6.992  13.989  21.372  0.00  0.00    +0.000 Br
ATOM     15  C   UNL     1      -5.064  12.719  19.699  0.00  0.00    +0.000 A 
ATOM     16  C   UNL     1      -4.704  12.072  18.534  0.00  0.00    +0.000 A 
ATOM     17  H   UNL     1      -5.466  10.826  15.608  0.00  0.00    +0.000 HD
ENDBRANCH   3   5
BRANCH   2  18
ATOM     18  C   UNL     1       0.836   9.713  18.060  0.00  0.00    +0.000 C 
BRANCH  18  19
ATOM     19  O   UNL     1       1.868   9.349  18.968  0.00  0.00    +0.000 OA
BRANCH  19  20
ATOM     20  C   UNL     1       2.174   8.016  19.048  0.00  0.00    +0.000 A 
ATOM     21  C   UNL     1       2.820   7.491  17.923  0.00  0.00    +0.000 A 
ATOM     22  C   UNL     1       3.179   6.136  17.862  0.00  0.00    +0.000 A 
ATOM     23  C   UNL     1       2.891   5.291  18.934  0.00  0.00    +0.000 A 
ATOM     24  C   UNL     1       3.207   3.874  18.912  0.00  0.00    +0.000 A 
ATOM     25  C   UNL     1       2.910   3.118  19.975  0.00  0.00    +0.000 A 
ATOM     26  C   UNL     1       2.278   3.669  21.188  0.00  0.00    +0.000 A 
ATOM     27  O   UNL     1       2.046   2.951  22.152  0.00  0.00    +0.000 OA
ATOM     28  O   UNL     1       1.970   5.022  21.174  0.00  0.00    +0.000 OA
ATOM     29  C   UNL     1       2.266   5.830  20.056  0.00  0.00    +0.000 A 
ATOM     30  C   UNL     1       1.903   7.177  20.129  0.00  0.00    +0.000 A 
ENDBRANCH  19  20
ENDBRANCH  18  19
ENDBRANCH   2  18
TORSDOF 4
ENDMDL
MODEL 7
REMARK VINA RESULT:      -8.4      3.530      4.734
REMARK  Name = 
REMARK  4 active torsions:
REMARK  status: ('A' for Active; 'I' for Inactive)
REMARK    1  A    between atoms: C_2  and  C_3
REMARK    2  A    between atoms: C_3  and  O_4
REMARK    3  A    between atoms: O_4  and  C_5
REMARK    4  A    between atoms: N_16  and  N_17
REMARK                            x       y       z     vdW  Elec       q    Type
REMARK                         _______ _______ _______ _____ _____    ______ ____
ROOT
ATOM      1  O   UNL     1       1.314   4.970  19.451  0.00  0.00    +0.000 OA
ATOM      2  C   UNL     1       2.507   5.260  19.537  0.00  0.00    +0.000 C 
ATOM      3  N   UNL     1       3.001   6.480  19.981  0.00  0.00    +0.000 N 
ATOM      4  H   UNL     1       4.009   6.641  20.037  0.00  0.00    +0.000 HD
ENDROOT
BRANCH   3   5
ATOM      5  N   UNL     1       2.144   7.441  20.452  0.00  0.00    +0.000 NA
ATOM      6  C   UNL     1       1.785   8.359  19.612  0.00  0.00    +0.000 C 
ATOM      7  C   UNL     1       2.230   8.531  18.155  0.00  0.00    +0.000 C 
ATOM      8  O   UNL     1       2.917   7.740  17.545  0.00  0.00    +0.000 OA
ATOM      9  N   UNL     1       1.691   9.729  17.742  0.00  0.00    +0.000 N 
ATOM     10  C   UNL     1       0.919  10.296  18.753  0.00  0.00    +0.000 A 
ATOM     11  C   UNL     1       0.213  11.479  18.698  0.00  0.00    +0.000 A 
ATOM     12  C   UNL     1      -0.534  11.834  19.827  0.00  0.00    +0.000 A 
ATOM     13  C   UNL     1      -0.552  11.005  20.970  0.00  0.00    +0.000 A 
ATOM     14 BR   UNL     1      -1.619  11.506  22.451  0.00  0.00    +0.000 Br
ATOM     15  C   UNL     1       0.187   9.821  21.025  0.00  0.00    +0.000 A 
ATOM     16  C   UNL     1       0.912   9.497  19.897  0.00  0.00    +0.000 A 
ATOM     17  H   UNL     1       1.822  10.106  16.815  0.00  0.00    +0.000 HD
ENDBRANCH   3   5
BRANCH   2  18
ATOM     18  C   UNL     1       3.605   4.247  19.214  0.00  0.00    +0.000 C 
BRANCH  18  19
ATOM     19  O   UNL     1       4.794   4.903  18.790  0.00  0.00    +0.000 OA
BRANCH  19  20
ATOM     20  C   UNL     1       5.166   4.719  17.484  0.00  0.00    +0.000 A 
ATOM     21  C   UNL     1       4.369   3.822  16.765  0.00  0.00    +0.000 A 
ATOM     22  C   UNL     1       4.644   3.526  15.422  0.00  0.00    +0.000 A 
ATOM     23  C   UNL     1       5.728   4.131  14.784  0.00  0.00    +0.000 A 
ATOM     24  C   UNL     1       6.082   3.837  13.407  0.00  0.00    +0.000 A 
ATOM     25  C   UNL     1       7.130   4.455  12.852  0.00  0.00    +0.000 A 
ATOM     26  C   UNL     1       7.945   5.443  13.581  0.00  0.00    +0.000 A 
ATOM     27  O   UNL     1       8.882   6.008  13.030  0.00  0.00    +0.000 OA
ATOM     28  O   UNL     1       7.597   5.691  14.902  0.00  0.00    +0.000 OA
ATOM     29  C   UNL     1       6.502   5.038  15.505  0.00  0.00    +0.000 A 
ATOM     30  C   UNL     1       6.239   5.340  16.844  0.00  0.00    +0.000 A 
ENDBRANCH  19  20
ENDBRANCH  18  19
ENDBRANCH   2  18
TORSDOF 4
ENDMDL
MODEL 8
REMARK VINA RESULT:      -8.3      3.331      4.625
REMARK  Name = 
REMARK  4 active torsions:
REMARK  status: ('A' for Active; 'I' for Inactive)
REMARK    1  A    between atoms: C_2  and  C_3
REMARK    2  A    between atoms: C_3  and  O_4
REMARK    3  A    between atoms: O_4  and  C_5
REMARK    4  A    between atoms: N_16  and  N_17
REMARK                            x       y       z     vdW  Elec       q    Type
REMARK                         _______ _______ _______ _____ _____    ______ ____
ROOT
ATOM      1  O   UNL     1      -1.037  10.124  17.677  0.00  0.00    +0.000 OA
ATOM      2  C   UNL     1      -0.050  10.384  18.365  0.00  0.00    +0.000 C 
ATOM      3  N   UNL     1      -0.019  11.312  19.397  0.00  0.00    +0.000 N 
ATOM      4  H   UNL     1       0.838  11.462  19.934  0.00  0.00    +0.000 HD
ENDROOT
BRANCH   3   5
ATOM      5  N   UNL     1      -1.167  11.959  19.778  0.00  0.00    +0.000 NA
ATOM      6  C   UNL     1      -1.458  11.928  21.040  0.00  0.00    +0.000 C 
ATOM      7  C   UNL     1      -0.695  11.222  22.167  0.00  0.00    +0.000 C 
ATOM      8  O   UNL     1       0.377  10.671  22.035  0.00  0.00    +0.000 OA
ATOM      9  N   UNL     1      -1.481  11.362  23.290  0.00  0.00    +0.000 N 
ATOM     10  C   UNL     1      -2.615  12.117  23.006  0.00  0.00    +0.000 A 
ATOM     11  C   UNL     1      -3.617  12.477  23.882  0.00  0.00    +0.000 A 
ATOM     12  C   UNL     1      -4.647  13.282  23.383  0.00  0.00    +0.000 A 
ATOM     13  C   UNL     1      -4.649  13.698  22.034  0.00  0.00    +0.000 A 
ATOM     14 BR   UNL     1      -6.040  14.828  21.423  0.00  0.00    +0.000 Br
ATOM     15  C   UNL     1      -3.643  13.307  21.148  0.00  0.00    +0.000 A 
ATOM     16  C   UNL     1      -2.641  12.515  21.668  0.00  0.00    +0.000 A 
ATOM     17  H   UNL     1      -1.228  10.989  24.193  0.00  0.00    +0.000 HD
ENDBRANCH   3   5
BRANCH   2  18
ATOM     18  C   UNL     1       1.271   9.634  18.190  0.00  0.00    +0.000 C 
BRANCH  18  19
ATOM     19  O   UNL     1       1.698   9.063  19.421  0.00  0.00    +0.000 OA
BRANCH  19  20
ATOM     20  C   UNL     1       2.067   7.744  19.391  0.00  0.00    +0.000 A 
ATOM     21  C   UNL     1       2.753   7.349  18.237  0.00  0.00    +0.000 A 
ATOM     22  C   UNL     1       3.177   6.022  18.066  0.00  0.00    +0.000 A 
ATOM     23  C   UNL     1       2.915   5.075  19.056  0.00  0.00    +0.000 A 
ATOM     24  C   UNL     1       3.298   3.681  18.918  0.00  0.00    +0.000 A 
ATOM     25  C   UNL     1       3.023   2.823  19.906  0.00  0.00    +0.000 A 
ATOM     26  C   UNL     1       2.349   3.238  21.151  0.00  0.00    +0.000 A 
ATOM     27  O   UNL     1       2.138   2.428  22.046  0.00  0.00    +0.000 OA
ATOM     28  O   UNL     1       1.977   4.571  21.248  0.00  0.00    +0.000 OA
ATOM     29  C   UNL     1       2.249   5.485  20.209  0.00  0.00    +0.000 A 
ATOM     30  C   UNL     1       1.821   6.803  20.391  0.00  0.00    +0.000 A 
ENDBRANCH  19  20
ENDBRANCH  18  19
ENDBRANCH   2  18
TORSDOF 4
ENDMDL
MODEL 9
REMARK VINA RESULT:      -8.3      4.211     10.500
REMARK  Name = 
REMARK  4 active torsions:
REMARK  status: ('A' for Active; 'I' for Inactive)
REMARK    1  A    between atoms: C_2  and  C_3
REMARK    2  A    between atoms: C_3  and  O_4
REMARK    3  A    between atoms: O_4  and  C_5
REMARK    4  A    between atoms: N_16  and  N_17
REMARK                            x       y       z     vdW  Elec       q    Type
REMARK                         _______ _______ _______ _____ _____    ______ ____
ROOT
ATOM      1  O   UNL     1       2.404  11.128  17.968  0.00  0.00    +0.000 OA
ATOM      2  C   UNL     1       1.469  10.493  18.457  0.00  0.00    +0.000 C 
ATOM      3  N   UNL     1       1.299   9.119  18.355  0.00  0.00    +0.000 N 
ATOM      4  H   UNL     1       0.502   8.661  18.803  0.00  0.00    +0.000 HD
ENDROOT
BRANCH   3   5
ATOM      5  N   UNL     1       2.256   8.348  17.746  0.00  0.00    +0.000 NA
ATOM      6  C   UNL     1       2.714   7.347  18.428  0.00  0.00    +0.000 C 
ATOM      7  C   UNL     1       2.348   6.933  19.858  0.00  0.00    +0.000 C 
ATOM      8  O   UNL     1       1.469   7.443  20.521  0.00  0.00    +0.000 OA
ATOM      9  N   UNL     1       3.208   5.906  20.178  0.00  0.00    +0.000 N 
ATOM     10  C   UNL     1       4.030   5.597  19.098  0.00  0.00    +0.000 A 
ATOM     11  C   UNL     1       4.997   4.618  19.041  0.00  0.00    +0.000 A 
ATOM     12  C   UNL     1       5.677   4.457  17.828  0.00  0.00    +0.000 A 
ATOM     13  C   UNL     1       5.374   5.273  16.717  0.00  0.00    +0.000 A 
ATOM     14 BR   UNL     1       6.287   4.979  15.085  0.00  0.00    +0.000 Br
ATOM     15  C   UNL     1       4.410   6.280  16.792  0.00  0.00    +0.000 A 
ATOM     16  C   UNL     1       3.756   6.414  18.000  0.00  0.00    +0.000 A 
ATOM     17  H   UNL     1       3.199   5.432  21.070  0.00  0.00    +0.000 HD
ENDBRANCH   3   5
BRANCH   2  18
ATOM     18  C   UNL     1       0.400  11.171  19.314  0.00  0.00    +0.000 C 
BRANCH  18  19
ATOM     19  O   UNL     1      -0.375  12.077  18.537  0.00  0.00    +0.000 OA
BRANCH  19  20
ATOM     20  C   UNL     1      -1.724  11.844  18.487  0.00  0.00    +0.000 A 
ATOM     21  C   UNL     1      -2.152  11.091  17.388  0.00  0.00    +0.000 A 
ATOM     22  C   UNL     1      -3.510  10.790  17.202  0.00  0.00    +0.000 A 
ATOM     23  C   UNL     1      -4.456  11.244  18.121  0.00  0.00    +0.000 A 
ATOM     24  C   UNL     1      -5.877  10.994  17.962  0.00  0.00    +0.000 A 
ATOM     25  C   UNL     1      -6.732  11.452  18.882  0.00  0.00    +0.000 A 
ATOM     26  C   UNL     1      -6.290  12.200  20.073  0.00  0.00    +0.000 A 
ATOM     27  O   UNL     1      -7.101  12.581  20.908  0.00  0.00    +0.000 OA
ATOM     28  O   UNL     1      -4.928  12.443  20.191  0.00  0.00    +0.000 OA
ATOM     29  C   UNL     1      -4.015  11.976  19.222  0.00  0.00    +0.000 A 
ATOM     30  C   UNL     1      -2.666  12.283  19.418  0.00  0.00    +0.000 A 
ENDBRANCH  19  20
ENDBRANCH  18  19
ENDBRANCH   2  18
TORSDOF 4
ENDMDL
