MODEL 1
REMARK VINA RESULT:      -9.0      0.000      0.000
REMARK  Name = 
REMARK  1 active torsions:
REMARK  status: ('A' for Active; 'I' for Inactive)
REMARK    1  A    between atoms: C_9  and  N_10
REMARK                            x       y       z     vdW  Elec       q    Type
REMARK                         _______ _______ _______ _____ _____    ______ ____
ROOT
ATOM      1  N   UNL     1       8.050   7.657  18.084  0.00  0.00    +0.000 N 
ATOM      2  C   UNL     1       7.232   6.748  17.440  0.00  0.00    +0.000 A 
ATOM      3  N   UNL     1       6.178   6.282  18.138  0.00  0.00    +0.000 NA
ATOM      4  C   UNL     1       5.365   5.352  17.579  0.00  0.00    +0.000 A 
ATOM      5  N   UNL     1       4.285   4.812  18.237  0.00  0.00    +0.000 N 
ATOM      6  C   UNL     1       3.570   5.548  19.264  0.00  0.00    +0.000 C 
ATOM      7  C   UNL     1       2.079   5.199  19.121  0.00  0.00    +0.000 C 
ATOM      8  C   UNL     1       1.825   3.683  19.108  0.00  0.00    +0.000 C 
ATOM      9  C   UNL     1       2.709   2.963  18.074  0.00  0.00    +0.000 C 
ATOM     10  C   UNL     1       4.183   3.357  18.303  0.00  0.00    +0.000 C 
ATOM     11  C   UNL     1       5.667   4.995  16.270  0.00  0.00    +0.000 A 
ATOM     12  O   UNL     1       4.966   4.155  15.463  0.00  0.00    +0.000 OA
ATOM     13  C   UNL     1       5.623   4.116  14.278  0.00  0.00    +0.000 A 
ATOM     14  C   UNL     1       5.206   3.366  13.178  0.00  0.00    +0.000 A 
ATOM     15  C   UNL     1       6.009   3.424  12.036  0.00  0.00    +0.000 A 
ATOM     16  C   UNL     1       7.168   4.199  12.017  0.00  0.00    +0.000 A 
ATOM     17  C   UNL     1       7.542   4.943  13.145  0.00  0.00    +0.000 A 
ATOM     18 CL   UNL     1       8.956   5.894  13.163  0.00  0.00    +0.000 Cl
ATOM     19  C   UNL     1       6.763   4.918  14.312  0.00  0.00    +0.000 A 
ATOM     20  C   UNL     1       6.767   5.508  15.610  0.00  0.00    +0.000 A 
ATOM     21  N   UNL     1       7.604   6.390  16.202  0.00  0.00    +0.000 NA
ATOM     22  H   UNL     1       7.966   7.550  19.084  0.00  0.00    +0.000 HD
ATOM     23  H   UNL     1       8.979   7.626  17.687  0.00  0.00    +0.000 HD
ENDROOT
BRANCH   9  24
ATOM     24  N   UNL     1       2.493   1.513  18.146  0.00  0.00    +0.000 NA
ATOM     25  H   UNL     1       2.734   1.080  17.255  0.00  0.00    +0.000 HD
ATOM     26  H   UNL     1       1.498   1.329  18.289  0.00  0.00    +0.000 HD
ENDBRANCH   9  24
TORSDOF 1
ENDMDL
MODEL 2
REMARK VINA RESULT:      -7.8      3.945      7.159
REMARK  Name = 
REMARK  1 active torsions:
REMARK  status: ('A' for Active; 'I' for Inactive)
REMARK    1  A    between atoms: C_9  and  N_10
REMARK                            x       y       z     vdW  Elec       q    Type
REMARK                         _______ _______ _______ _____ _____    ______ ____
ROOT
ATOM      1  N   UNL     1       1.757   3.537  21.565  0.00  0.00    +0.000 N 
ATOM      2  C   UNL     1       2.178   4.518  20.686  0.00  0.00    +0.000 A 
ATOM      3  N   UNL     1       3.177   4.187  19.845  0.00  0.00    +0.000 NA
ATOM      4  C   UNL     1       3.667   5.119  18.992  0.00  0.00    +0.000 A 
ATOM      5  N   UNL     1       4.701   4.864  18.121  0.00  0.00    +0.000 N 
ATOM      6  C   UNL     1       4.953   3.532  17.604  0.00  0.00    +0.000 C 
ATOM      7  C   UNL     1       5.411   3.687  16.144  0.00  0.00    +0.000 C 
ATOM      8  C   UNL     1       6.578   4.678  15.992  0.00  0.00    +0.000 C 
ATOM      9  C   UNL     1       6.276   6.025  16.672  0.00  0.00    +0.000 C 
ATOM     10  C   UNL     1       5.843   5.774  18.131  0.00  0.00    +0.000 C 
ATOM     11  C   UNL     1       3.034   6.356  19.020  0.00  0.00    +0.000 A 
ATOM     12  O   UNL     1       3.276   7.424  18.214  0.00  0.00    +0.000 OA
ATOM     13  C   UNL     1       2.418   8.401  18.596  0.00  0.00    +0.000 A 
ATOM     14  C   UNL     1       2.350   9.659  17.996  0.00  0.00    +0.000 A 
ATOM     15  C   UNL     1       1.417  10.557  18.521  0.00  0.00    +0.000 A 
ATOM     16  C   UNL     1       0.604  10.195  19.595  0.00  0.00    +0.000 A 
ATOM     17  C   UNL     1       0.702   8.916  20.159  0.00  0.00    +0.000 A 
ATOM     18 CL   UNL     1      -0.268   8.440  21.477  0.00  0.00    +0.000 Cl
ATOM     19  C   UNL     1       1.621   7.980  19.660  0.00  0.00    +0.000 A 
ATOM     20  C   UNL     1       2.016   6.633  19.912  0.00  0.00    +0.000 A 
ATOM     21  N   UNL     1       1.578   5.711  20.798  0.00  0.00    +0.000 NA
ATOM     22  H   UNL     1       2.494   2.863  21.711  0.00  0.00    +0.000 HD
ATOM     23  H   UNL     1       1.344   3.963  22.383  0.00  0.00    +0.000 HD
ENDROOT
BRANCH   9  24
ATOM     24  N   UNL     1       7.440   6.914  16.573  0.00  0.00    +0.000 NA
ATOM     25  H   UNL     1       8.181   6.590  17.193  0.00  0.00    +0.000 HD
ATOM     26  H   UNL     1       7.180   7.845  16.906  0.00  0.00    +0.000 HD
ENDBRANCH   9  24
TORSDOF 1
ENDMDL
MODEL 3
REMARK VINA RESULT:      -6.9      4.046      6.609
REMARK  Name = 
REMARK  1 active torsions:
REMARK  status: ('A' for Active; 'I' for Inactive)
REMARK    1  A    between atoms: C_9  and  N_10
REMARK                            x       y       z     vdW  Elec       q    Type
REMARK                         _______ _______ _______ _____ _____    ______ ____
ROOT
ATOM      1  N   UNL     1       5.211   6.974  16.257  0.00  0.00    +0.000 N 
ATOM      2  C   UNL     1       4.276   6.757  17.252  0.00  0.00    +0.000 A 
ATOM      3  N   UNL     1       3.448   7.782  17.537  0.00  0.00    +0.000 NA
ATOM      4  C   UNL     1       2.540   7.648  18.535  0.00  0.00    +0.000 A 
ATOM      5  N   UNL     1       1.678   8.656  18.900  0.00  0.00    +0.000 N 
ATOM      6  C   UNL     1       1.235   9.662  17.952  0.00  0.00    +0.000 C 
ATOM      7  C   UNL     1      -0.234   9.979  18.277  0.00  0.00    +0.000 C 
ATOM      8  C   UNL     1      -0.448  10.337  19.758  0.00  0.00    +0.000 C 
ATOM      9  C   UNL     1       0.157   9.278  20.696  0.00  0.00    +0.000 C 
ATOM     10  C   UNL     1       1.631   9.036  20.308  0.00  0.00    +0.000 C 
ATOM     11  C   UNL     1       2.504   6.405  19.155  0.00  0.00    +0.000 A 
ATOM     12  O   UNL     1       1.638   5.991  20.118  0.00  0.00    +0.000 OA
ATOM     13  C   UNL     1       1.970   4.710  20.414  0.00  0.00    +0.000 A 
ATOM     14  C   UNL     1       1.301   3.928  21.356  0.00  0.00    +0.000 A 
ATOM     15  C   UNL     1       1.781   2.630  21.551  0.00  0.00    +0.000 A 
ATOM     16  C   UNL     1       2.879   2.159  20.831  0.00  0.00    +0.000 A 
ATOM     17  C   UNL     1       3.513   2.980  19.888  0.00  0.00    +0.000 A 
ATOM     18 CL   UNL     1       4.862   2.443  18.995  0.00  0.00    +0.000 Cl
ATOM     19  C   UNL     1       3.061   4.288  19.655  0.00  0.00    +0.000 A 
ATOM     20  C   UNL     1       3.385   5.396  18.818  0.00  0.00    +0.000 A 
ATOM     21  N   UNL     1       4.325   5.564  17.861  0.00  0.00    +0.000 NA
ATOM     22  H   UNL     1       5.389   7.963  16.158  0.00  0.00    +0.000 HD
ATOM     23  H   UNL     1       6.007   6.366  16.395  0.00  0.00    +0.000 HD
ENDROOT
BRANCH   9  24
ATOM     24  N   UNL     1       0.000   9.692  22.095  0.00  0.00    +0.000 NA
ATOM     25  H   UNL     1       0.697   9.228  22.676  0.00  0.00    +0.000 HD
ATOM     26  H   UNL     1      -0.909   9.376  22.438  0.00  0.00    +0.000 HD
ENDBRANCH   9  24
TORSDOF 1
ENDMDL
MODEL 4
REMARK VINA RESULT:      -6.3     10.413     12.470
REMARK  Name = 
REMARK  1 active torsions:
REMARK  status: ('A' for Active; 'I' for Inactive)
REMARK    1  A    between atoms: C_9  and  N_10
REMARK                            x       y       z     vdW  Elec       q    Type
REMARK                         _______ _______ _______ _____ _____    ______ ____
ROOT
ATOM      1  N   UNL     1       1.378  12.108  19.491  0.00  0.00    +0.000 N 
ATOM      2  C   UNL     1       0.033  12.225  19.788  0.00  0.00    +0.000 A 
ATOM      3  N   UNL     1      -0.277  12.626  21.037  0.00  0.00    +0.000 NA
ATOM      4  C   UNL     1      -1.578  12.714  21.406  0.00  0.00    +0.000 A 
ATOM      5  N   UNL     1      -1.973  13.093  22.668  0.00  0.00    +0.000 N 
ATOM      6  C   UNL     1      -1.160  13.968  23.492  0.00  0.00    +0.000 C 
ATOM      7  C   UNL     1      -2.119  14.886  24.267  0.00  0.00    +0.000 C 
ATOM      8  C   UNL     1      -3.207  14.103  25.022  0.00  0.00    +0.000 C 
ATOM      9  C   UNL     1      -3.940  13.112  24.102  0.00  0.00    +0.000 C 
ATOM     10  C   UNL     1      -2.905  12.224  23.381  0.00  0.00    +0.000 C 
ATOM     11  C   UNL     1      -2.507  12.431  20.411  0.00  0.00    +0.000 A 
ATOM     12  O   UNL     1      -3.861  12.527  20.498  0.00  0.00    +0.000 OA
ATOM     13  C   UNL     1      -4.355  12.164  19.289  0.00  0.00    +0.000 A 
ATOM     14  C   UNL     1      -5.714  12.142  18.975  0.00  0.00    +0.000 A 
ATOM     15  C   UNL     1      -6.055  11.728  17.685  0.00  0.00    +0.000 A 
ATOM     16  C   UNL     1      -5.069  11.356  16.770  0.00  0.00    +0.000 A 
ATOM     17  C   UNL     1      -3.715  11.402  17.130  0.00  0.00    +0.000 A 
ATOM     18 CL   UNL     1      -2.483  10.947  16.044  0.00  0.00    +0.000 Cl
ATOM     19  C   UNL     1      -3.327  11.818  18.413  0.00  0.00    +0.000 A 
ATOM     20  C   UNL     1      -2.123  12.021  19.150  0.00  0.00    +0.000 A 
ATOM     21  N   UNL     1      -0.821  11.879  18.815  0.00  0.00    +0.000 NA
ATOM     22  H   UNL     1       1.910  11.969  20.338  0.00  0.00    +0.000 HD
ATOM     23  H   UNL     1       1.508  11.441  18.743  0.00  0.00    +0.000 HD
ENDROOT
BRANCH   9  24
ATOM     24  N   UNL     1      -4.915  12.331  24.873  0.00  0.00    +0.000 NA
ATOM     25  H   UNL     1      -5.450  11.728  24.251  0.00  0.00    +0.000 HD
ATOM     26  H   UNL     1      -5.592  12.968  25.300  0.00  0.00    +0.000 HD
ENDBRANCH   9  24
TORSDOF 1
ENDMDL
MODEL 5
REMARK VINA RESULT:      -6.3      3.823      5.933
REMARK  Name = 
REMARK  1 active torsions:
REMARK  status: ('A' for Active; 'I' for Inactive)
REMARK    1  A    between atoms: C_9  and  N_10
REMARK                            x       y       z     vdW  Elec       q    Type
REMARK                         _______ _______ _______ _____ _____    ______ ____
ROOT
ATOM      1  N   UNL     1       1.099   3.309  21.291  0.00  0.00    +0.000 N 
ATOM      2  C   UNL     1       1.628   4.336  20.532  0.00  0.00    +0.000 A 
ATOM      3  N   UNL     1       1.243   5.587  20.854  0.00  0.00    +0.000 NA
ATOM      4  C   UNL     1       1.690   6.633  20.117  0.00  0.00    +0.000 A 
ATOM      5  N   UNL     1       1.323   7.934  20.368  0.00  0.00    +0.000 N 
ATOM      6  C   UNL     1       0.957   8.381  21.700  0.00  0.00    +0.000 C 
ATOM      7  C   UNL     1       1.497   9.811  21.866  0.00  0.00    +0.000 C 
ATOM      8  C   UNL     1       1.063  10.744  20.722  0.00  0.00    +0.000 C 
ATOM      9  C   UNL     1       1.379  10.141  19.342  0.00  0.00    +0.000 C 
ATOM     10  C   UNL     1       0.788   8.719  19.259  0.00  0.00    +0.000 C 
ATOM     11  C   UNL     1       2.582   6.317  19.099  0.00  0.00    +0.000 A 
ATOM     12  O   UNL     1       3.235   7.182  18.278  0.00  0.00    +0.000 OA
ATOM     13  C   UNL     1       4.005   6.430  17.453  0.00  0.00    +0.000 A 
ATOM     14  C   UNL     1       4.838   6.957  16.467  0.00  0.00    +0.000 A 
ATOM     15  C   UNL     1       5.553   6.041  15.692  0.00  0.00    +0.000 A 
ATOM     16  C   UNL     1       5.424   4.669  15.907  0.00  0.00    +0.000 A 
ATOM     17  C   UNL     1       4.580   4.187  16.917  0.00  0.00    +0.000 A 
ATOM     18 CL   UNL     1       4.388   2.518  17.205  0.00  0.00    +0.000 Cl
ATOM     19  C   UNL     1       3.847   5.071  17.723  0.00  0.00    +0.000 A 
ATOM     20  C   UNL     1       2.935   5.011  18.818  0.00  0.00    +0.000 A 
ATOM     21  N   UNL     1       2.434   3.972  19.524  0.00  0.00    +0.000 NA
ATOM     22  H   UNL     1       0.229   3.603  21.712  0.00  0.00    +0.000 HD
ATOM     23  H   UNL     1       1.094   2.453  20.755  0.00  0.00    +0.000 HD
ENDROOT
BRANCH   9  24
ATOM     24  N   UNL     1       0.882  11.023  18.279  0.00  0.00    +0.000 NA
ATOM     25  H   UNL     1       0.784  10.501  17.410  0.00  0.00    +0.000 HD
ATOM     26  H   UNL     1       1.577  11.750  18.094  0.00  0.00    +0.000 HD
ENDBRANCH   9  24
TORSDOF 1
ENDMDL
MODEL 6
REMARK VINA RESULT:      -6.2      4.112      6.495
REMARK  Name = 
REMARK  1 active torsions:
REMARK  status: ('A' for Active; 'I' for Inactive)
REMARK    1  A    between atoms: C_9  and  N_10
REMARK                            x       y       z     vdW  Elec       q    Type
REMARK                         _______ _______ _______ _____ _____    ______ ____
ROOT
ATOM      1  N   UNL     1       4.961   6.958  15.715  0.00  0.00    +0.000 N 
ATOM      2  C   UNL     1       4.209   6.850  16.869  0.00  0.00    +0.000 A 
ATOM      3  N   UNL     1       4.209   5.649  17.481  0.00  0.00    +0.000 NA
ATOM      4  C   UNL     1       3.453   5.465  18.591  0.00  0.00    +0.000 A 
ATOM      5  N   UNL     1       3.382   4.263  19.256  0.00  0.00    +0.000 N 
ATOM      6  C   UNL     1       4.480   3.314  19.237  0.00  0.00    +0.000 C 
ATOM      7  C   UNL     1       4.544   2.662  20.628  0.00  0.00    +0.000 C 
ATOM      8  C   UNL     1       3.190   2.085  21.073  0.00  0.00    +0.000 C 
ATOM      9  C   UNL     1       2.058   3.120  20.949  0.00  0.00    +0.000 C 
ATOM     10  C   UNL     1       2.059   3.707  19.523  0.00  0.00    +0.000 C 
ATOM     11  C   UNL     1       2.769   6.586  19.048  0.00  0.00    +0.000 A 
ATOM     12  O   UNL     1       2.016   6.688  20.175  0.00  0.00    +0.000 OA
ATOM     13  C   UNL     1       1.556   7.963  20.221  0.00  0.00    +0.000 A 
ATOM     14  C   UNL     1       0.748   8.465  21.241  0.00  0.00    +0.000 A 
ATOM     15  C   UNL     1       0.348   9.799  21.128  0.00  0.00    +0.000 A 
ATOM     16  C   UNL     1       0.745  10.574  20.037  0.00  0.00    +0.000 A 
ATOM     17  C   UNL     1       1.564  10.026  19.041  0.00  0.00    +0.000 A 
ATOM     18 CL   UNL     1       2.063  10.938  17.689  0.00  0.00    +0.000 Cl
ATOM     19  C   UNL     1       1.995   8.693  19.117  0.00  0.00    +0.000 A 
ATOM     20  C   UNL     1       2.808   7.790  18.371  0.00  0.00    +0.000 A 
ATOM     21  N   UNL     1       3.519   7.941  17.231  0.00  0.00    +0.000 NA
ATOM     22  H   UNL     1       5.087   6.047  15.297  0.00  0.00    +0.000 HD
ATOM     23  H   UNL     1       4.591   7.694  15.130  0.00  0.00    +0.000 HD
ENDROOT
BRANCH   9  24
ATOM     24  N   UNL     1       0.772   2.510  21.309  0.00  0.00    +0.000 NA
ATOM     25  H   UNL     1       0.908   1.820  22.046  0.00  0.00    +0.000 HD
ATOM     26  H   UNL     1       0.408   1.996  20.504  0.00  0.00    +0.000 HD
ENDBRANCH   9  24
TORSDOF 1
ENDMDL
MODEL 7
REMARK VINA RESULT:      -6.0     10.810     13.228
REMARK  Name = 
REMARK  1 active torsions:
REMARK  status: ('A' for Active; 'I' for Inactive)
REMARK    1  A    between atoms: C_9  and  N_10
REMARK                            x       y       z     vdW  Elec       q    Type
REMARK                         _______ _______ _______ _____ _____    ______ ____
ROOT
ATOM      1  N   UNL     1       0.284  11.873  18.721  0.00  0.00    +0.000 N 
ATOM      2  C   UNL     1      -0.940  12.110  19.318  0.00  0.00    +0.000 A 
ATOM      3  N   UNL     1      -0.917  12.518  20.602  0.00  0.00    +0.000 NA
ATOM      4  C   UNL     1      -2.086  12.721  21.258  0.00  0.00    +0.000 A 
ATOM      5  N   UNL     1      -2.145  13.114  22.575  0.00  0.00    +0.000 N 
ATOM      6  C   UNL     1      -1.086  13.895  23.187  0.00  0.00    +0.000 C 
ATOM      7  C   UNL     1      -1.752  14.886  24.157  0.00  0.00    +0.000 C 
ATOM      8  C   UNL     1      -2.707  14.196  25.144  0.00  0.00    +0.000 C 
ATOM      9  C   UNL     1      -3.722  13.293  24.421  0.00  0.00    +0.000 C 
ATOM     10  C   UNL     1      -2.968  12.324  23.487  0.00  0.00    +0.000 C 
ATOM     11  C   UNL     1      -3.240  12.543  20.504  0.00  0.00    +0.000 A 
ATOM     12  O   UNL     1      -4.523  12.764  20.898  0.00  0.00    +0.000 OA
ATOM     13  C   UNL     1      -5.312  12.469  19.835  0.00  0.00    +0.000 A 
ATOM     14  C   UNL     1      -6.702  12.580  19.840  0.00  0.00    +0.000 A 
ATOM     15  C   UNL     1      -7.367  12.221  18.665  0.00  0.00    +0.000 A 
ATOM     16  C   UNL     1      -6.655  11.774  17.551  0.00  0.00    +0.000 A 
ATOM     17  C   UNL     1      -5.257  11.687  17.591  0.00  0.00    +0.000 A 
ATOM     18 CL   UNL     1      -4.354  11.137  16.254  0.00  0.00    +0.000 Cl
ATOM     19  C   UNL     1      -4.549  12.043  18.749  0.00  0.00    +0.000 A 
ATOM     20  C   UNL     1      -3.194  12.120  19.190  0.00  0.00    +0.000 A 
ATOM     21  N   UNL     1      -2.023  11.863  18.567  0.00  0.00    +0.000 NA
ATOM     22  H   UNL     1       0.979  11.671  19.425  0.00  0.00    +0.000 HD
ATOM     23  H   UNL     1       0.176  11.210  17.967  0.00  0.00    +0.000 HD
ENDROOT
BRANCH   9  24
ATOM     24  N   UNL     1      -4.565  12.594  25.399  0.00  0.00    +0.000 NA
ATOM     25  H   UNL     1      -4.343  12.912  26.341  0.00  0.00    +0.000 HD
ATOM     26  H   UNL     1      -4.345  11.596  25.379  0.00  0.00    +0.000 HD
ENDBRANCH   9  24
TORSDOF 1
ENDMDL
