MODEL 1
REMARK VINA RESULT:      -8.4      0.000      0.000
REMARK  Name = 
REMARK  3 active torsions:
REMARK  status: ('A' for Active; 'I' for Inactive)
REMARK    1  A    between atoms: C_8  and  C_9
REMARK    2  A    between atoms: C_18  and  O_19
REMARK    3  A    between atoms: C_21  and  C_22
REMARK                            x       y       z     vdW  Elec       q    Type
REMARK                         _______ _______ _______ _____ _____    ______ ____
ROOT
ATOM      1  O   UNL     1       1.511   7.697  21.142  0.00  0.00    +0.000 OA
ATOM      2  C   UNL     1       1.662   8.195  20.027  0.00  0.00    +0.000 C 
ATOM      3  C   UNL     1       1.036   9.520  19.641  0.00  0.00    +0.000 C 
ATOM      4  O   UNL     1       0.815   9.596  18.240  0.00  0.00    +0.000 OA
ATOM      5  C   UNL     1       2.024   9.439  17.482  0.00  0.00    +0.000 C 
ATOM      6  C   UNL     1       2.771   8.155  17.824  0.00  0.00    +0.000 C 
ATOM      7  C   UNL     1       2.558   7.558  19.021  0.00  0.00    +0.000 C 
ATOM      8  C   UNL     1       3.275   6.310  19.439  0.00  0.00    +0.000 C 
ATOM      9  C   UNL     1       4.460   6.132  18.579  0.00  0.00    +0.000 C 
ATOM     10  C   UNL     1       5.656   5.596  18.733  0.00  0.00    +0.000 C 
ATOM     11  O   UNL     1       6.569   5.760  17.719  0.00  0.00    +0.000 OA
ATOM     12  C   UNL     1       5.852   6.391  16.612  0.00  0.00    +0.000 C 
ATOM     13  C   UNL     1       4.537   6.758  17.265  0.00  0.00    +0.000 C 
ATOM     14  N   UNL     1       3.706   7.695  16.881  0.00  0.00    +0.000 NA
ENDROOT
BRANCH   8  15
ATOM     15  C   UNL     1       2.421   5.059  19.347  0.00  0.00    +0.000 A 
ATOM     16  C   UNL     1       2.001   4.542  18.109  0.00  0.00    +0.000 A 
ATOM     17  C   UNL     1       1.315   3.332  18.053  0.00  0.00    +0.000 A 
ATOM     18  C   UNL     1       1.069   2.626  19.226  0.00  0.00    +0.000 A 
ATOM     19  F   UNL     1       0.433   1.448  19.141  0.00  0.00    +0.000 F 
ATOM     20  C   UNL     1       1.494   3.119  20.457  0.00  0.00    +0.000 A 
ATOM     21 BR   UNL     1       1.214   2.134  22.045  0.00  0.00    +0.000 Br
ATOM     22  C   UNL     1       2.167   4.334  20.524  0.00  0.00    +0.000 A 
ENDBRANCH   8  15
BRANCH  12  23
ATOM     23  C   UNL     1       6.165   5.471  15.450  0.00  0.00    +0.000 A 
ATOM     24  C   UNL     1       7.256   5.475  14.577  0.00  0.00    +0.000 A 
ATOM     25  C   UNL     1       7.255   4.633  13.434  0.00  0.00    +0.000 A 
ATOM     26  C   UNL     1       6.180   3.780  13.152  0.00  0.00    +0.000 A 
ATOM     27  C   UNL     1       5.076   3.788  13.988  0.00  0.00    +0.000 A 
ATOM     28  C   UNL     1       5.077   4.615  15.108  0.00  0.00    +0.000 A 
ENDBRANCH  12  23
BRANCH  10  29
ATOM     29  O   UNL     1       6.033   4.895  19.838  0.00  0.00    +0.000 OA
ATOM     30  H   UNL     1       6.348   4.042  19.481  0.00  0.00    +0.000 HD
ENDBRANCH  10  29
TORSDOF 3
ENDMDL
MODEL 2
REMARK VINA RESULT:      -7.9      7.604      9.768
REMARK  Name = 
REMARK  3 active torsions:
REMARK  status: ('A' for Active; 'I' for Inactive)
REMARK    1  A    between atoms: C_8  and  C_9
REMARK    2  A    between atoms: C_18  and  O_19
REMARK    3  A    between atoms: C_21  and  C_22
REMARK                            x       y       z     vdW  Elec       q    Type
REMARK                         _______ _______ _______ _____ _____    ______ ____
ROOT
ATOM      1  O   UNL     1      -0.382   9.182  21.057  0.00  0.00    +0.000 OA
ATOM      2  C   UNL     1      -0.574  10.239  21.656  0.00  0.00    +0.000 C 
ATOM      3  C   UNL     1      -0.908  10.283  23.134  0.00  0.00    +0.000 C 
ATOM      4  O   UNL     1      -1.658  11.445  23.458  0.00  0.00    +0.000 OA
ATOM      5  C   UNL     1      -0.967  12.657  23.124  0.00  0.00    +0.000 C 
ATOM      6  C   UNL     1      -0.535  12.705  21.662  0.00  0.00    +0.000 C 
ATOM      7  C   UNL     1      -0.391  11.550  20.972  0.00  0.00    +0.000 C 
ATOM      8  C   UNL     1       0.056  11.516  19.542  0.00  0.00    +0.000 C 
ATOM      9  C   UNL     1       0.679  12.810  19.207  0.00  0.00    +0.000 C 
ATOM     10  C   UNL     1       1.631  13.207  18.383  0.00  0.00    +0.000 C 
ATOM     11  O   UNL     1       2.048  14.513  18.464  0.00  0.00    +0.000 OA
ATOM     12  C   UNL     1       1.145  15.181  19.399  0.00  0.00    +0.000 C 
ATOM     13  C   UNL     1       0.376  14.011  19.975  0.00  0.00    +0.000 C 
ATOM     14  N   UNL     1      -0.242  13.973  21.130  0.00  0.00    +0.000 NA
ENDROOT
BRANCH   8  15
ATOM     15  C   UNL     1      -1.070  11.254  18.559  0.00  0.00    +0.000 A 
ATOM     16  C   UNL     1      -0.925  10.345  17.497  0.00  0.00    +0.000 A 
ATOM     17  C   UNL     1      -2.013  10.043  16.682  0.00  0.00    +0.000 A 
ATOM     18  C   UNL     1      -3.248  10.628  16.938  0.00  0.00    +0.000 A 
ATOM     19  F   UNL     1      -4.286  10.297  16.157  0.00  0.00    +0.000 F 
ATOM     20  C   UNL     1      -3.409  11.517  17.998  0.00  0.00    +0.000 A 
ATOM     21 BR   UNL     1      -5.099  12.267  18.387  0.00  0.00    +0.000 Br
ATOM     22  C   UNL     1      -2.325  11.836  18.809  0.00  0.00    +0.000 A 
ENDBRANCH   8  15
BRANCH  12  23
ATOM     23  C   UNL     1       0.679  16.384  18.604  0.00  0.00    +0.000 A 
ATOM     24  C   UNL     1      -0.616  16.852  18.369  0.00  0.00    +0.000 A 
ATOM     25  C   UNL     1      -0.836  17.898  17.434  0.00  0.00    +0.000 A 
ATOM     26  C   UNL     1       0.223  18.488  16.732  0.00  0.00    +0.000 A 
ATOM     27  C   UNL     1       1.509  18.013  16.926  0.00  0.00    +0.000 A 
ATOM     28  C   UNL     1       1.724  16.988  17.843  0.00  0.00    +0.000 A 
ENDBRANCH  12  23
BRANCH  10  29
ATOM     29  O   UNL     1       2.219  12.393  17.462  0.00  0.00    +0.000 OA
ATOM     30  H   UNL     1       3.099  12.794  17.321  0.00  0.00    +0.000 HD
ENDBRANCH  10  29
TORSDOF 3
ENDMDL
MODEL 3
REMARK VINA RESULT:      -7.4      7.249     10.237
REMARK  Name = 
REMARK  3 active torsions:
REMARK  status: ('A' for Active; 'I' for Inactive)
REMARK    1  A    between atoms: C_8  and  C_9
REMARK    2  A    between atoms: C_18  and  O_19
REMARK    3  A    between atoms: C_21  and  C_22
REMARK                            x       y       z     vdW  Elec       q    Type
REMARK                         _______ _______ _______ _____ _____    ______ ____
ROOT
ATOM      1  O   UNL     1      -1.923  11.111  23.360  0.00  0.00    +0.000 OA
ATOM      2  C   UNL     1      -2.444  12.205  23.151  0.00  0.00    +0.000 C 
ATOM      3  C   UNL     1      -3.653  12.687  23.927  0.00  0.00    +0.000 C 
ATOM      4  O   UNL     1      -4.421  13.607  23.165  0.00  0.00    +0.000 OA
ATOM      5  C   UNL     1      -3.664  14.758  22.765  0.00  0.00    +0.000 C 
ATOM      6  C   UNL     1      -2.389  14.392  22.012  0.00  0.00    +0.000 C 
ATOM      7  C   UNL     1      -1.846  13.164  22.180  0.00  0.00    +0.000 C 
ATOM      8  C   UNL     1      -0.581  12.741  21.496  0.00  0.00    +0.000 C 
ATOM      9  C   UNL     1       0.126  13.944  21.018  0.00  0.00    +0.000 C 
ATOM     10  C   UNL     1       1.389  14.274  20.826  0.00  0.00    +0.000 C 
ATOM     11  O   UNL     1       1.671  15.580  20.503  0.00  0.00    +0.000 OA
ATOM     12  C   UNL     1       0.385  16.242  20.293  0.00  0.00    +0.000 C 
ATOM     13  C   UNL     1      -0.588  15.195  20.790  0.00  0.00    +0.000 C 
ATOM     14  N   UNL     1      -1.806  15.401  21.226  0.00  0.00    +0.000 NA
ENDROOT
BRANCH   8  15
ATOM     15  C   UNL     1      -0.808  11.815  20.316  0.00  0.00    +0.000 A 
ATOM     16  C   UNL     1      -1.987  11.868  19.554  0.00  0.00    +0.000 A 
ATOM     17  C   UNL     1      -2.117  11.083  18.410  0.00  0.00    +0.000 A 
ATOM     18  C   UNL     1      -1.064  10.266  18.014  0.00  0.00    +0.000 A 
ATOM     19  F   UNL     1      -1.203   9.545  16.892  0.00  0.00    +0.000 F 
ATOM     20  C   UNL     1       0.117  10.218  18.750  0.00  0.00    +0.000 A 
ATOM     21 BR   UNL     1       1.571   9.155  18.182  0.00  0.00    +0.000 Br
ATOM     22  C   UNL     1       0.249  10.986  19.902  0.00  0.00    +0.000 A 
ENDBRANCH   8  15
BRANCH  12  23
ATOM     23  C   UNL     1       0.558  16.872  18.926  0.00  0.00    +0.000 A 
ATOM     24  C   UNL     1       1.720  17.073  18.177  0.00  0.00    +0.000 A 
ATOM     25  C   UNL     1       1.676  17.858  16.994  0.00  0.00    +0.000 A 
ATOM     26  C   UNL     1       0.485  18.443  16.545  0.00  0.00    +0.000 A 
ATOM     27  C   UNL     1      -0.668  18.284  17.295  0.00  0.00    +0.000 A 
ATOM     28  C   UNL     1      -0.625  17.514  18.455  0.00  0.00    +0.000 A 
ENDBRANCH  12  23
BRANCH  10  29
ATOM     29  O   UNL     1       2.424  13.394  20.933  0.00  0.00    +0.000 OA
ATOM     30  H   UNL     1       2.498  13.232  21.893  0.00  0.00    +0.000 HD
ENDBRANCH  10  29
TORSDOF 3
ENDMDL
MODEL 4
REMARK VINA RESULT:      -7.3      1.034      1.155
REMARK  Name = 
REMARK  3 active torsions:
REMARK  status: ('A' for Active; 'I' for Inactive)
REMARK    1  A    between atoms: C_8  and  C_9
REMARK    2  A    between atoms: C_18  and  O_19
REMARK    3  A    between atoms: C_21  and  C_22
REMARK                            x       y       z     vdW  Elec       q    Type
REMARK                         _______ _______ _______ _____ _____    ______ ____
ROOT
ATOM      1  O   UNL     1       1.760   7.537  21.373  0.00  0.00    +0.000 OA
ATOM      2  C   UNL     1       1.794   7.997  20.232  0.00  0.00    +0.000 C 
ATOM      3  C   UNL     1       1.027   9.243  19.839  0.00  0.00    +0.000 C 
ATOM      4  O   UNL     1       0.712   9.239  18.454  0.00  0.00    +0.000 OA
ATOM      5  C   UNL     1       1.880   9.157  17.624  0.00  0.00    +0.000 C 
ATOM      6  C   UNL     1       2.761   7.960  17.964  0.00  0.00    +0.000 C 
ATOM      7  C   UNL     1       2.680   7.400  19.193  0.00  0.00    +0.000 C 
ATOM      8  C   UNL     1       3.532   6.240  19.609  0.00  0.00    +0.000 C 
ATOM      9  C   UNL     1       4.673   6.131  18.680  0.00  0.00    +0.000 C 
ATOM     10  C   UNL     1       5.921   5.710  18.774  0.00  0.00    +0.000 C 
ATOM     11  O   UNL     1       6.749   5.911  17.696  0.00  0.00    +0.000 OA
ATOM     12  C   UNL     1       5.910   6.427  16.617  0.00  0.00    +0.000 C 
ATOM     13  C   UNL     1       4.609   6.703  17.341  0.00  0.00    +0.000 C 
ATOM     14  N   UNL     1       3.674   7.546  16.978  0.00  0.00    +0.000 NA
ENDROOT
BRANCH   8  15
ATOM     15  C   UNL     1       2.793   4.915  19.621  0.00  0.00    +0.000 A 
ATOM     16  C   UNL     1       1.438   4.831  19.987  0.00  0.00    +0.000 A 
ATOM     17  C   UNL     1       0.758   3.620  19.879  0.00  0.00    +0.000 A 
ATOM     18  C   UNL     1       1.421   2.501  19.385  0.00  0.00    +0.000 A 
ATOM     19  F   UNL     1       0.735   1.356  19.262  0.00  0.00    +0.000 F 
ATOM     20  C   UNL     1       2.758   2.575  19.003  0.00  0.00    +0.000 A 
ATOM     21 BR   UNL     1       3.643   1.074  18.275  0.00  0.00    +0.000 Br
ATOM     22  C   UNL     1       3.449   3.777  19.121  0.00  0.00    +0.000 A 
ENDBRANCH   8  15
BRANCH  12  23
ATOM     23  C   UNL     1       6.232   5.489  15.471  0.00  0.00    +0.000 A 
ATOM     24  C   UNL     1       7.309   5.504  14.582  0.00  0.00    +0.000 A 
ATOM     25  C   UNL     1       7.315   4.635  13.459  0.00  0.00    +0.000 A 
ATOM     26  C   UNL     1       6.261   3.745  13.213  0.00  0.00    +0.000 A 
ATOM     27  C   UNL     1       5.170   3.742  14.065  0.00  0.00    +0.000 A 
ATOM     28  C   UNL     1       5.163   4.594  15.166  0.00  0.00    +0.000 A 
ENDBRANCH  12  23
BRANCH  10  29
ATOM     29  O   UNL     1       6.429   5.093  19.877  0.00  0.00    +0.000 OA
ATOM     30  H   UNL     1       6.182   5.687  20.613  0.00  0.00    +0.000 HD
ENDBRANCH  10  29
TORSDOF 3
ENDMDL
MODEL 5
REMARK VINA RESULT:      -7.2      8.390     11.834
REMARK  Name = 
REMARK  3 active torsions:
REMARK  status: ('A' for Active; 'I' for Inactive)
REMARK    1  A    between atoms: C_8  and  C_9
REMARK    2  A    between atoms: C_18  and  O_19
REMARK    3  A    between atoms: C_21  and  C_22
REMARK                            x       y       z     vdW  Elec       q    Type
REMARK                         _______ _______ _______ _____ _____    ______ ____
ROOT
ATOM      1  O   UNL     1      -0.390  10.038  17.824  0.00  0.00    +0.000 OA
ATOM      2  C   UNL     1      -1.524  10.515  17.830  0.00  0.00    +0.000 C 
ATOM      3  C   UNL     1      -2.545  10.190  16.758  0.00  0.00    +0.000 C 
ATOM      4  O   UNL     1      -3.483  11.244  16.603  0.00  0.00    +0.000 OA
ATOM      5  C   UNL     1      -4.192  11.533  17.817  0.00  0.00    +0.000 C 
ATOM      6  C   UNL     1      -3.261  11.830  18.987  0.00  0.00    +0.000 C 
ATOM      7  C   UNL     1      -1.987  11.371  18.958  0.00  0.00    +0.000 C 
ATOM      8  C   UNL     1      -1.022  11.599  20.082  0.00  0.00    +0.000 C 
ATOM      9  C   UNL     1      -1.779  11.983  21.288  0.00  0.00    +0.000 C 
ATOM     10  C   UNL     1      -1.609  11.832  22.588  0.00  0.00    +0.000 C 
ATOM     11  O   UNL     1      -2.637  12.205  23.419  0.00  0.00    +0.000 OA
ATOM     12  C   UNL     1      -3.637  12.858  22.576  0.00  0.00    +0.000 C 
ATOM     13  C   UNL     1      -3.117  12.552  21.187  0.00  0.00    +0.000 C 
ATOM     14  N   UNL     1      -3.815  12.521  20.079  0.00  0.00    +0.000 NA
ENDROOT
BRANCH   8  15
ATOM     15  C   UNL     1       0.003  12.679  19.792  0.00  0.00    +0.000 A 
ATOM     16  C   UNL     1       1.380  12.399  19.761  0.00  0.00    +0.000 A 
ATOM     17  C   UNL     1       2.286  13.387  19.381  0.00  0.00    +0.000 A 
ATOM     18  C   UNL     1       1.819  14.643  19.011  0.00  0.00    +0.000 A 
ATOM     19  F   UNL     1       2.710  15.566  18.620  0.00  0.00    +0.000 F 
ATOM     20  C   UNL     1       0.456  14.928  19.021  0.00  0.00    +0.000 A 
ATOM     21 BR   UNL     1      -0.186  16.614  18.460  0.00  0.00    +0.000 Br
ATOM     22  C   UNL     1      -0.455  13.953  19.412  0.00  0.00    +0.000 A 
ENDBRANCH   8  15
BRANCH  12  23
ATOM     23  C   UNL     1      -3.859  14.176  23.288  0.00  0.00    +0.000 A 
ATOM     24  C   UNL     1      -3.090  14.798  24.275  0.00  0.00    +0.000 A 
ATOM     25  C   UNL     1      -3.585  15.949  24.943  0.00  0.00    +0.000 A 
ATOM     26  C   UNL     1      -4.840  16.492  24.635  0.00  0.00    +0.000 A 
ATOM     27  C   UNL     1      -5.630  15.868  23.685  0.00  0.00    +0.000 A 
ATOM     28  C   UNL     1      -5.144  14.739  23.030  0.00  0.00    +0.000 A 
ENDBRANCH  12  23
BRANCH  10  29
ATOM     29  O   UNL     1      -0.474  11.325  23.147  0.00  0.00    +0.000 OA
ATOM     30  H   UNL     1      -0.367  11.839  23.971  0.00  0.00    +0.000 HD
ENDBRANCH  10  29
TORSDOF 3
ENDMDL
MODEL 6
REMARK VINA RESULT:      -7.1      7.449     10.361
REMARK  Name = 
REMARK  3 active torsions:
REMARK  status: ('A' for Active; 'I' for Inactive)
REMARK    1  A    between atoms: C_8  and  C_9
REMARK    2  A    between atoms: C_18  and  O_19
REMARK    3  A    between atoms: C_21  and  C_22
REMARK                            x       y       z     vdW  Elec       q    Type
REMARK                         _______ _______ _______ _____ _____    ______ ____
ROOT
ATOM      1  O   UNL     1      -1.504  10.871  22.941  0.00  0.00    +0.000 OA
ATOM      2  C   UNL     1      -2.081  11.957  22.899  0.00  0.00    +0.000 C 
ATOM      3  C   UNL     1      -3.228  12.301  23.827  0.00  0.00    +0.000 C 
ATOM      4  O   UNL     1      -4.096  13.260  23.241  0.00  0.00    +0.000 OA
ATOM      5  C   UNL     1      -3.420  14.479  22.903  0.00  0.00    +0.000 C 
ATOM      6  C   UNL     1      -2.209  14.252  22.004  0.00  0.00    +0.000 C 
ATOM      7  C   UNL     1      -1.610  13.038  21.988  0.00  0.00    +0.000 C 
ATOM      8  C   UNL     1      -0.401  12.747  21.152  0.00  0.00    +0.000 C 
ATOM      9  C   UNL     1       0.215  14.024  20.746  0.00  0.00    +0.000 C 
ATOM     10  C   UNL     1       1.443  14.429  20.479  0.00  0.00    +0.000 C 
ATOM     11  O   UNL     1       1.647  15.772  20.275  0.00  0.00    +0.000 OA
ATOM     12  C   UNL     1       0.325  16.395  20.255  0.00  0.00    +0.000 C 
ATOM     13  C   UNL     1      -0.560  15.258  20.720  0.00  0.00    +0.000 C 
ATOM     14  N   UNL     1      -1.738  15.363  21.283  0.00  0.00    +0.000 NA
ENDROOT
BRANCH   8  15
ATOM     15  C   UNL     1      -0.705  11.941  19.903  0.00  0.00    +0.000 A 
ATOM     16  C   UNL     1       0.183  10.963  19.423  0.00  0.00    +0.000 A 
ATOM     17  C   UNL     1      -0.176  10.162  18.341  0.00  0.00    +0.000 A 
ATOM     18  C   UNL     1      -1.427  10.319  17.755  0.00  0.00    +0.000 A 
ATOM     19  F   UNL     1      -1.760   9.515  16.735  0.00  0.00    +0.000 F 
ATOM     20  C   UNL     1      -2.323  11.272  18.232  0.00  0.00    +0.000 A 
ATOM     21 BR   UNL     1      -4.046  11.447  17.478  0.00  0.00    +0.000 Br
ATOM     22  C   UNL     1      -1.968  12.086  19.303  0.00  0.00    +0.000 A 
ENDBRANCH   8  15
BRANCH  12  23
ATOM     23  C   UNL     1       0.347  17.172  18.955  0.00  0.00    +0.000 A 
ATOM     24  C   UNL     1      -0.715  17.643  18.179  0.00  0.00    +0.000 A 
ATOM     25  C   UNL     1      -0.467  18.188  16.891  0.00  0.00    +0.000 A 
ATOM     26  C   UNL     1       0.830  18.275  16.368  0.00  0.00    +0.000 A 
ATOM     27  C   UNL     1       1.890  17.781  17.109  0.00  0.00    +0.000 A 
ATOM     28  C   UNL     1       1.647  17.246  18.372  0.00  0.00    +0.000 A 
ENDBRANCH  12  23
BRANCH  10  29
ATOM     29  O   UNL     1       2.513  13.589  20.396  0.00  0.00    +0.000 OA
ATOM     30  H   UNL     1       3.244  14.167  20.103  0.00  0.00    +0.000 HD
ENDBRANCH  10  29
TORSDOF 3
ENDMDL
MODEL 7
REMARK VINA RESULT:      -7.1      5.962     10.642
REMARK  Name = 
REMARK  3 active torsions:
REMARK  status: ('A' for Active; 'I' for Inactive)
REMARK    1  A    between atoms: C_8  and  C_9
REMARK    2  A    between atoms: C_18  and  O_19
REMARK    3  A    between atoms: C_21  and  C_22
REMARK                            x       y       z     vdW  Elec       q    Type
REMARK                         _______ _______ _______ _____ _____    ______ ____
ROOT
ATOM      1  O   UNL     1       1.035   9.609  17.850  0.00  0.00    +0.000 OA
ATOM      2  C   UNL     1       1.027   9.475  19.073  0.00  0.00    +0.000 C 
ATOM      3  C   UNL     1       1.710   8.313  19.765  0.00  0.00    +0.000 C 
ATOM      4  O   UNL     1       1.093   8.019  21.009  0.00  0.00    +0.000 OA
ATOM      5  C   UNL     1       1.105   9.138  21.908  0.00  0.00    +0.000 C 
ATOM      6  C   UNL     1       0.483  10.389  21.298  0.00  0.00    +0.000 C 
ATOM      7  C   UNL     1       0.421  10.515  19.952  0.00  0.00    +0.000 C 
ATOM      8  C   UNL     1      -0.152  11.726  19.280  0.00  0.00    +0.000 C 
ATOM      9  C   UNL     1      -0.209  12.829  20.258  0.00  0.00    +0.000 C 
ATOM     10  C   UNL     1      -0.126  14.144  20.192  0.00  0.00    +0.000 C 
ATOM     11  O   UNL     1      -0.072  14.845  21.372  0.00  0.00    +0.000 OA
ATOM     12  C   UNL     1      -0.299  13.876  22.442  0.00  0.00    +0.000 C 
ATOM     13  C   UNL     1      -0.224  12.563  21.691  0.00  0.00    +0.000 C 
ATOM     14  N   UNL     1       0.064  11.388  22.194  0.00  0.00    +0.000 NA
ENDROOT
BRANCH   8  15
ATOM     15  C   UNL     1      -1.544  11.508  18.717  0.00  0.00    +0.000 A 
ATOM     16  C   UNL     1      -2.692  11.941  19.402  0.00  0.00    +0.000 A 
ATOM     17  C   UNL     1      -3.946  11.828  18.807  0.00  0.00    +0.000 A 
ATOM     18  C   UNL     1      -4.053  11.307  17.522  0.00  0.00    +0.000 A 
ATOM     19  F   UNL     1      -5.268  11.237  16.961  0.00  0.00    +0.000 F 
ATOM     20  C   UNL     1      -2.921  10.890  16.826  0.00  0.00    +0.000 A 
ATOM     21 BR   UNL     1      -3.056  10.237  15.058  0.00  0.00    +0.000 Br
ATOM     22  C   UNL     1      -1.666  10.985  17.418  0.00  0.00    +0.000 A 
ENDBRANCH   8  15
BRANCH  12  23
ATOM     23  C   UNL     1      -1.428  14.511  23.228  0.00  0.00    +0.000 A 
ATOM     24  C   UNL     1      -1.381  15.277  24.396  0.00  0.00    +0.000 A 
ATOM     25  C   UNL     1      -2.583  15.616  25.072  0.00  0.00    +0.000 A 
ATOM     26  C   UNL     1      -3.834  15.204  24.594  0.00  0.00    +0.000 A 
ATOM     27  C   UNL     1      -3.896  14.415  23.458  0.00  0.00    +0.000 A 
ATOM     28  C   UNL     1      -2.718  14.082  22.796  0.00  0.00    +0.000 A 
ENDBRANCH  12  23
BRANCH  10  29
ATOM     29  O   UNL     1      -0.087  14.841  19.021  0.00  0.00    +0.000 OA
ATOM     30  H   UNL     1       0.861  15.036  18.894  0.00  0.00    +0.000 HD
ENDBRANCH  10  29
TORSDOF 3
ENDMDL
MODEL 8
REMARK VINA RESULT:      -7.1      5.725      9.973
REMARK  Name = 
REMARK  3 active torsions:
REMARK  status: ('A' for Active; 'I' for Inactive)
REMARK    1  A    between atoms: C_8  and  C_9
REMARK    2  A    between atoms: C_18  and  O_19
REMARK    3  A    between atoms: C_21  and  C_22
REMARK                            x       y       z     vdW  Elec       q    Type
REMARK                         _______ _______ _______ _____ _____    ______ ____
ROOT
ATOM      1  O   UNL     1       2.608  12.244  17.621  0.00  0.00    +0.000 OA
ATOM      2  C   UNL     1       2.307  13.125  18.424  0.00  0.00    +0.000 C 
ATOM      3  C   UNL     1       3.135  14.382  18.595  0.00  0.00    +0.000 C 
ATOM      4  O   UNL     1       2.994  14.919  19.902  0.00  0.00    +0.000 OA
ATOM      5  C   UNL     1       1.632  15.239  20.221  0.00  0.00    +0.000 C 
ATOM      6  C   UNL     1       0.690  14.055  20.038  0.00  0.00    +0.000 C 
ATOM      7  C   UNL     1       1.044  13.043  19.211  0.00  0.00    +0.000 C 
ATOM      8  C   UNL     1       0.160  11.860  18.960  0.00  0.00    +0.000 C 
ATOM      9  C   UNL     1      -1.213  12.193  19.384  0.00  0.00    +0.000 C 
ATOM     10  C   UNL     1      -2.425  11.836  19.001  0.00  0.00    +0.000 C 
ATOM     11  O   UNL     1      -3.495  12.496  19.556  0.00  0.00    +0.000 OA
ATOM     12  C   UNL     1      -2.953  13.358  20.604  0.00  0.00    +0.000 C 
ATOM     13  C   UNL     1      -1.464  13.252  20.353  0.00  0.00    +0.000 C 
ATOM     14  N   UNL     1      -0.547  14.120  20.704  0.00  0.00    +0.000 NA
ENDROOT
BRANCH   8  15
ATOM     15  C   UNL     1       0.599  10.606  19.692  0.00  0.00    +0.000 A 
ATOM     16  C   UNL     1       0.206  10.350  21.017  0.00  0.00    +0.000 A 
ATOM     17  C   UNL     1       0.532   9.138  21.622  0.00  0.00    +0.000 A 
ATOM     18  C   UNL     1       1.228   8.175  20.900  0.00  0.00    +0.000 A 
ATOM     19  F   UNL     1       1.502   7.006  21.496  0.00  0.00    +0.000 F 
ATOM     20  C   UNL     1       1.609   8.409  19.581  0.00  0.00    +0.000 A 
ATOM     21 BR   UNL     1       2.501   7.079  18.579  0.00  0.00    +0.000 Br
ATOM     22  C   UNL     1       1.300   9.621  18.974  0.00  0.00    +0.000 A 
ENDBRANCH   8  15
BRANCH  12  23
ATOM     23  C   UNL     1      -3.790  12.978  21.808  0.00  0.00    +0.000 A 
ATOM     24  C   UNL     1      -5.152  13.179  22.048  0.00  0.00    +0.000 A 
ATOM     25  C   UNL     1      -5.695  12.910  23.332  0.00  0.00    +0.000 A 
ATOM     26  C   UNL     1      -4.897  12.438  24.382  0.00  0.00    +0.000 A 
ATOM     27  C   UNL     1      -3.540  12.266  24.172  0.00  0.00    +0.000 A 
ATOM     28  C   UNL     1      -3.007  12.530  22.913  0.00  0.00    +0.000 A 
ENDBRANCH  12  23
BRANCH  10  29
ATOM     29  O   UNL     1      -2.669  10.854  18.088  0.00  0.00    +0.000 OA
ATOM     30  H   UNL     1      -1.989  10.180  18.280  0.00  0.00    +0.000 HD
ENDBRANCH  10  29
TORSDOF 3
ENDMDL
MODEL 9
REMARK VINA RESULT:      -7.1      7.844     11.076
REMARK  Name = 
REMARK  3 active torsions:
REMARK  status: ('A' for Active; 'I' for Inactive)
REMARK    1  A    between atoms: C_8  and  C_9
REMARK    2  A    between atoms: C_18  and  O_19
REMARK    3  A    between atoms: C_21  and  C_22
REMARK                            x       y       z     vdW  Elec       q    Type
REMARK                         _______ _______ _______ _____ _____    ______ ____
ROOT
ATOM      1  O   UNL     1      -0.960   9.791  17.323  0.00  0.00    +0.000 OA
ATOM      2  C   UNL     1      -1.939  10.458  17.655  0.00  0.00    +0.000 C 
ATOM      3  C   UNL     1      -3.233  10.441  16.867  0.00  0.00    +0.000 C 
ATOM      4  O   UNL     1      -3.950  11.656  17.028  0.00  0.00    +0.000 OA
ATOM      5  C   UNL     1      -4.270  11.928  18.401  0.00  0.00    +0.000 C 
ATOM      6  C   UNL     1      -3.042  11.922  19.304  0.00  0.00    +0.000 C 
ATOM      7  C   UNL     1      -1.933  11.251  18.916  0.00  0.00    +0.000 C 
ATOM      8  C   UNL     1      -0.698  11.177  19.762  0.00  0.00    +0.000 C 
ATOM      9  C   UNL     1      -1.046  11.551  21.146  0.00  0.00    +0.000 C 
ATOM     10  C   UNL     1      -0.599  11.227  22.344  0.00  0.00    +0.000 C 
ATOM     11  O   UNL     1      -1.298  11.681  23.436  0.00  0.00    +0.000 OA
ATOM     12  C   UNL     1      -2.321  12.591  22.925  0.00  0.00    +0.000 C 
ATOM     13  C   UNL     1      -2.227  12.356  21.432  0.00  0.00    +0.000 C 
ATOM     14  N   UNL     1      -3.165  12.574  20.544  0.00  0.00    +0.000 NA
ENDROOT
BRANCH   8  15
ATOM     15  C   UNL     1       0.421  12.084  19.285  0.00  0.00    +0.000 A 
ATOM     16  C   UNL     1       1.572  11.570  18.662  0.00  0.00    +0.000 A 
ATOM     17  C   UNL     1       2.527  12.435  18.134  0.00  0.00    +0.000 A 
ATOM     18  C   UNL     1       2.325  13.809  18.205  0.00  0.00    +0.000 A 
ATOM     19  F   UNL     1       3.245  14.619  17.662  0.00  0.00    +0.000 F 
ATOM     20  C   UNL     1       1.181  14.331  18.804  0.00  0.00    +0.000 A 
ATOM     21 BR   UNL     1       0.874  16.194  18.848  0.00  0.00    +0.000 Br
ATOM     22  C   UNL     1       0.228  13.475  19.347  0.00  0.00    +0.000 A 
ENDBRANCH   8  15
BRANCH  12  23
ATOM     23  C   UNL     1      -2.095  13.840  23.752  0.00  0.00    +0.000 A 
ATOM     24  C   UNL     1      -2.889  14.402  24.755  0.00  0.00    +0.000 A 
ATOM     25  C   UNL     1      -2.577  15.687  25.273  0.00  0.00    +0.000 A 
ATOM     26  C   UNL     1      -1.478  16.419  24.805  0.00  0.00    +0.000 A 
ATOM     27  C   UNL     1      -0.701  15.892  23.788  0.00  0.00    +0.000 A 
ATOM     28  C   UNL     1      -1.007  14.632  23.280  0.00  0.00    +0.000 A 
ENDBRANCH  12  23
BRANCH  10  29
ATOM     29  O   UNL     1       0.513  10.468  22.556  0.00  0.00    +0.000 OA
ATOM     30  H   UNL     1       0.711  10.090  21.677  0.00  0.00    +0.000 HD
ENDBRANCH  10  29
TORSDOF 3
ENDMDL
