MODEL 1
REMARK VINA RESULT:      -6.7      0.000      0.000
REMARK  Name = 
REMARK  7 active torsions:
REMARK  status: ('A' for Active; 'I' for Inactive)
REMARK    1  A    between atoms: C_1  and  C_2
REMARK    2  A    between atoms: N_4  and  C_5
REMARK    3  A    between atoms: C_5  and  C_6
REMARK    4  A    between atoms: N_8  and  C_9
REMARK    5  A    between atoms: C_23  and  C_24
REMARK    6  A    between atoms: N_26  and  C_27
REMARK    7  A    between atoms: N_26  and  C_28
REMARK                            x       y       z     vdW  Elec       q    Type
REMARK                         _______ _______ _______ _____ _____    ______ ____
ROOT
ATOM      1  C   UNL     1      -6.556  13.419  21.028  0.00  0.00    +0.000 C 
ATOM      2  C   UNL     1      -6.725  12.909  19.580  0.00  0.00    +0.000 C 
ATOM      3  O   UNL     1      -5.608  12.098  19.159  0.00  0.00    +0.000 OA
ATOM      4  C   UNL     1      -5.261  12.242  17.849  0.00  0.00    +0.000 C 
ATOM      5  O   UNL     1      -5.836  12.938  17.028  0.00  0.00    +0.000 OA
ATOM      6  C   UNL     1      -4.103  11.378  17.493  0.00  0.00    +0.000 A 
ATOM      7  C   UNL     1      -4.218  10.668  16.288  0.00  0.00    +0.000 A 
ATOM      8  C   UNL     1      -3.178   9.851  15.853  0.00  0.00    +0.000 A 
ATOM      9  C   UNL     1      -2.019   9.744  16.617  0.00  0.00    +0.000 A 
ATOM     10  C   UNL     1      -1.887  10.463  17.808  0.00  0.00    +0.000 A 
ATOM     11  C   UNL     1      -2.913  11.309  18.259  0.00  0.00    +0.000 A 
ATOM     12  C   UNL     1      -2.808  12.144  19.512  0.00  0.00    +0.000 C 
ATOM     13  S   UNL     1      -1.210  12.331  20.331  0.00  0.00    +0.000 S 
ATOM     14  C   UNL     1      -1.707  13.308  21.823  0.00  0.00    +0.000 C 
ATOM     15  C   UNL     1      -2.841  14.347  21.632  0.00  0.00    +0.000 C 
ATOM     16  N   UNL     1      -4.178  13.714  21.681  0.00  0.00    +0.000 N 
ATOM     17  C   UNL     1      -5.282  14.272  21.074  0.00  0.00    +0.000 C 
ATOM     18  O   UNL     1      -5.230  15.331  20.463  0.00  0.00    +0.000 OA
ATOM     19  H   UNL     1      -4.319  12.929  22.307  0.00  0.00    +0.000 HD
ENDROOT
BRANCH  15  20
ATOM     20  C   UNL     1      -2.735  15.395  22.763  0.00  0.00    +0.000 C 
ATOM     21  O   UNL     1      -2.939  15.034  23.929  0.00  0.00    +0.000 OA
ATOM     22  N   UNL     1      -2.501  16.730  22.446  0.00  0.00    +0.000 N 
ATOM     23  C   UNL     1      -2.390  17.704  23.520  0.00  0.00    +0.000 C 
ATOM     24  C   UNL     1      -2.288  17.287  21.113  0.00  0.00    +0.000 C 
ENDBRANCH  15  20
BRANCH   1  27
ATOM     25  C   UNL     1      -7.159  12.406  23.273  0.00  0.00    +0.000 C 
ATOM     26  O   UNL     1      -7.028  11.426  24.008  0.00  0.00    +0.000 OA
ATOM     27  N   UNL     1      -6.600  12.351  22.025  0.00  0.00    +0.000 N 
ATOM     28  H   UNL     1      -6.189  11.453  21.793  0.00  0.00    +0.000 HD
BRANCH  25  29
ATOM     29  C   UNL     1      -7.797  13.702  23.780  0.00  0.00    +0.000 C 
BRANCH  29  33
ATOM     30  C   UNL     1      -5.823  16.837  24.436  0.00  0.00    +0.000 C 
ATOM     31  C   UNL     1      -6.814  15.936  23.756  0.00  0.00    +0.000 C 
ATOM     32  O   UNL     1      -7.581  16.328  22.884  0.00  0.00    +0.000 OA
ATOM     33  N   UNL     1      -6.780  14.638  24.213  0.00  0.00    +0.000 N 
ATOM     34  H   UNL     1      -6.303  14.465  25.091  0.00  0.00    +0.000 HD
ENDBRANCH  29  33
ENDBRANCH  25  29
ENDBRANCH   1  27
TORSDOF 4
ENDMDL
MODEL 2
REMARK VINA RESULT:      -6.3      9.879     11.988
REMARK  Name = 
REMARK  7 active torsions:
REMARK  status: ('A' for Active; 'I' for Inactive)
REMARK    1  A    between atoms: C_1  and  C_2
REMARK    2  A    between atoms: N_4  and  C_5
REMARK    3  A    between atoms: C_5  and  C_6
REMARK    4  A    between atoms: N_8  and  C_9
REMARK    5  A    between atoms: C_23  and  C_24
REMARK    6  A    between atoms: N_26  and  C_27
REMARK    7  A    between atoms: N_26  and  C_28
REMARK                            x       y       z     vdW  Elec       q    Type
REMARK                         _______ _______ _______ _____ _____    ______ ____
ROOT
ATOM      1  C   UNL     1       5.788  15.927  19.435  0.00  0.00    +0.000 C 
ATOM      2  C   UNL     1       6.991  16.060  18.477  0.00  0.00    +0.000 C 
ATOM      3  O   UNL     1       7.840  14.893  18.510  0.00  0.00    +0.000 OA
ATOM      4  C   UNL     1       9.171  15.155  18.376  0.00  0.00    +0.000 C 
ATOM      5  O   UNL     1       9.671  16.251  18.184  0.00  0.00    +0.000 OA
ATOM      6  C   UNL     1       9.979  13.906  18.423  0.00  0.00    +0.000 A 
ATOM      7  C   UNL     1      10.983  13.790  17.449  0.00  0.00    +0.000 A 
ATOM      8  C   UNL     1      11.810  12.671  17.424  0.00  0.00    +0.000 A 
ATOM      9  C   UNL     1      11.642  11.667  18.372  0.00  0.00    +0.000 A 
ATOM     10  C   UNL     1      10.658  11.782  19.359  0.00  0.00    +0.000 A 
ATOM     11  C   UNL     1       9.824  12.910  19.419  0.00  0.00    +0.000 A 
ATOM     12  C   UNL     1       8.777  13.110  20.487  0.00  0.00    +0.000 C 
ATOM     13  S   UNL     1       8.765  12.037  21.939  0.00  0.00    +0.000 S 
ATOM     14  C   UNL     1       7.239  12.645  22.795  0.00  0.00    +0.000 C 
ATOM     15  C   UNL     1       6.936  14.162  22.690  0.00  0.00    +0.000 C 
ATOM     16  N   UNL     1       6.275  14.501  21.411  0.00  0.00    +0.000 N 
ATOM     17  C   UNL     1       6.342  15.760  20.856  0.00  0.00    +0.000 C 
ATOM     18  O   UNL     1       6.946  16.682  21.391  0.00  0.00    +0.000 OA
ATOM     19  H   UNL     1       5.627  13.833  21.008  0.00  0.00    +0.000 HD
ENDROOT
BRANCH  15  20
ATOM     20  C   UNL     1       6.006  14.552  23.861  0.00  0.00    +0.000 C 
ATOM     21  O   UNL     1       4.854  14.100  23.881  0.00  0.00    +0.000 OA
ATOM     22  N   UNL     1       6.444  15.466  24.815  0.00  0.00    +0.000 N 
ATOM     23  C   UNL     1       5.564  15.816  25.918  0.00  0.00    +0.000 C 
ATOM     24  C   UNL     1       7.757  16.102  24.877  0.00  0.00    +0.000 C 
ENDBRANCH  15  20
BRANCH   1  27
ATOM     25  C   UNL     1       3.652  15.054  18.381  0.00  0.00    +0.000 C 
ATOM     26  O   UNL     1       2.948  14.061  18.197  0.00  0.00    +0.000 OA
ATOM     27  N   UNL     1       4.843  14.886  19.035  0.00  0.00    +0.000 N 
ATOM     28  H   UNL     1       5.070  13.918  19.240  0.00  0.00    +0.000 HD
BRANCH  25  29
ATOM     29  C   UNL     1       3.157  16.459  18.024  0.00  0.00    +0.000 C 
BRANCH  29  33
ATOM     30  C   UNL     1      -0.449  17.523  17.899  0.00  0.00    +0.000 C 
ATOM     31  C   UNL     1       1.038  17.635  17.729  0.00  0.00    +0.000 C 
ATOM     32  O   UNL     1       1.574  18.578  17.156  0.00  0.00    +0.000 OA
ATOM     33  N   UNL     1       1.734  16.577  18.269  0.00  0.00    +0.000 N 
ATOM     34  H   UNL     1       1.208  15.739  18.494  0.00  0.00    +0.000 HD
ENDBRANCH  29  33
ENDBRANCH  25  29
ENDBRANCH   1  27
TORSDOF 4
ENDMDL
MODEL 3
REMARK VINA RESULT:      -6.3      4.059      6.851
REMARK  Name = 
REMARK  7 active torsions:
REMARK  status: ('A' for Active; 'I' for Inactive)
REMARK    1  A    between atoms: C_1  and  C_2
REMARK    2  A    between atoms: N_4  and  C_5
REMARK    3  A    between atoms: C_5  and  C_6
REMARK    4  A    between atoms: N_8  and  C_9
REMARK    5  A    between atoms: C_23  and  C_24
REMARK    6  A    between atoms: N_26  and  C_27
REMARK    7  A    between atoms: N_26  and  C_28
REMARK                            x       y       z     vdW  Elec       q    Type
REMARK                         _______ _______ _______ _____ _____    ______ ____
ROOT
ATOM      1  C   UNL     1      -1.512  12.378  18.567  0.00  0.00    +0.000 C 
ATOM      2  C   UNL     1      -0.427  11.621  17.773  0.00  0.00    +0.000 C 
ATOM      3  O   UNL     1      -0.049  10.385  18.416  0.00  0.00    +0.000 OA
ATOM      4  C   UNL     1       1.271  10.066  18.304  0.00  0.00    +0.000 C 
ATOM      5  O   UNL     1       2.110  10.693  17.680  0.00  0.00    +0.000 OA
ATOM      6  C   UNL     1       1.583   8.783  18.994  0.00  0.00    +0.000 A 
ATOM      7  C   UNL     1       2.392   7.887  18.281  0.00  0.00    +0.000 A 
ATOM      8  C   UNL     1       2.762   6.671  18.849  0.00  0.00    +0.000 A 
ATOM      9  C   UNL     1       2.328   6.348  20.131  0.00  0.00    +0.000 A 
ATOM     10  C   UNL     1       1.538   7.245  20.858  0.00  0.00    +0.000 A 
ATOM     11  C   UNL     1       1.168   8.485  20.315  0.00  0.00    +0.000 A 
ATOM     12  C   UNL     1       0.356   9.511  21.069  0.00  0.00    +0.000 C 
ATOM     13  S   UNL     1       0.086   9.308  22.843  0.00  0.00    +0.000 S 
ATOM     14  C   UNL     1      -1.045  10.737  23.177  0.00  0.00    +0.000 C 
ATOM     15  C   UNL     1      -0.795  12.031  22.361  0.00  0.00    +0.000 C 
ATOM     16  N   UNL     1      -1.398  11.953  21.013  0.00  0.00    +0.000 N 
ATOM     17  C   UNL     1      -0.934  12.700  19.952  0.00  0.00    +0.000 C 
ATOM     18  O   UNL     1       0.001  13.483  20.060  0.00  0.00    +0.000 OA
ATOM     19  H   UNL     1      -2.273  11.453  20.901  0.00  0.00    +0.000 HD
ENDROOT
BRANCH  15  20
ATOM     20  C   UNL     1      -1.422  13.217  23.129  0.00  0.00    +0.000 C 
ATOM     21  O   UNL     1      -0.681  13.954  23.793  0.00  0.00    +0.000 OA
ATOM     22  N   UNL     1      -2.804  13.382  23.133  0.00  0.00    +0.000 N 
ATOM     23  C   UNL     1      -3.381  14.509  23.850  0.00  0.00    +0.000 C 
ATOM     24  C   UNL     1      -3.784  12.559  22.431  0.00  0.00    +0.000 C 
ENDBRANCH  15  20
BRANCH   1  27
ATOM     25  C   UNL     1      -3.419  11.041  17.563  0.00  0.00    +0.000 C 
ATOM     26  O   UNL     1      -4.541  10.575  17.762  0.00  0.00    +0.000 OA
ATOM     27  N   UNL     1      -2.796  11.681  18.601  0.00  0.00    +0.000 N 
ATOM     28  H   UNL     1      -3.303  11.637  19.478  0.00  0.00    +0.000 HD
BRANCH  25  29
ATOM     29  C   UNL     1      -2.791  11.039  16.166  0.00  0.00    +0.000 C 
BRANCH  29  33
ATOM     30  C   UNL     1      -4.632   9.745  13.151  0.00  0.00    +0.000 C 
ATOM     31  C   UNL     1      -3.455  10.099  14.013  0.00  0.00    +0.000 C 
ATOM     32  O   UNL     1      -2.303   9.792  13.726  0.00  0.00    +0.000 OA
ATOM     33  N   UNL     1      -3.797  10.790  15.154  0.00  0.00    +0.000 N 
ATOM     34  H   UNL     1      -4.773  10.778  15.431  0.00  0.00    +0.000 HD
ENDBRANCH  29  33
ENDBRANCH  25  29
ENDBRANCH   1  27
TORSDOF 4
ENDMDL
MODEL 4
REMARK VINA RESULT:      -6.2      4.254      7.504
REMARK  Name = 
REMARK  7 active torsions:
REMARK  status: ('A' for Active; 'I' for Inactive)
REMARK    1  A    between atoms: C_1  and  C_2
REMARK    2  A    between atoms: N_4  and  C_5
REMARK    3  A    between atoms: C_5  and  C_6
REMARK    4  A    between atoms: N_8  and  C_9
REMARK    5  A    between atoms: C_23  and  C_24
REMARK    6  A    between atoms: N_26  and  C_27
REMARK    7  A    between atoms: N_26  and  C_28
REMARK                            x       y       z     vdW  Elec       q    Type
REMARK                         _______ _______ _______ _____ _____    ______ ____
ROOT
ATOM      1  C   UNL     1      -2.221  10.720  18.342  0.00  0.00    +0.000 C 
ATOM      2  C   UNL     1      -2.681  11.953  19.148  0.00  0.00    +0.000 C 
ATOM      3  O   UNL     1      -1.769  13.063  19.006  0.00  0.00    +0.000 OA
ATOM      4  C   UNL     1      -1.611  13.817  20.130  0.00  0.00    +0.000 C 
ATOM      5  O   UNL     1      -2.200  13.661  21.187  0.00  0.00    +0.000 OA
ATOM      6  C   UNL     1      -0.656  14.937  19.907  0.00  0.00    +0.000 A 
ATOM      7  C   UNL     1      -1.055  16.188  20.400  0.00  0.00    +0.000 A 
ATOM      8  C   UNL     1      -0.221  17.294  20.264  0.00  0.00    +0.000 A 
ATOM      9  C   UNL     1       1.015  17.154  19.639  0.00  0.00    +0.000 A 
ATOM     10  C   UNL     1       1.430  15.907  19.162  0.00  0.00    +0.000 A 
ATOM     11  C   UNL     1       0.616  14.772  19.304  0.00  0.00    +0.000 A 
ATOM     12  C   UNL     1       1.030  13.393  18.851  0.00  0.00    +0.000 C 
ATOM     13  S   UNL     1       2.746  13.085  18.380  0.00  0.00    +0.000 S 
ATOM     14  C   UNL     1       2.628  11.327  17.809  0.00  0.00    +0.000 C 
ATOM     15  C   UNL     1       1.637  10.410  18.570  0.00  0.00    +0.000 C 
ATOM     16  N   UNL     1       0.248  10.590  18.093  0.00  0.00    +0.000 N 
ATOM     17  C   UNL     1      -0.846  10.300  18.879  0.00  0.00    +0.000 C 
ATOM     18  O   UNL     1      -0.739   9.867  20.019  0.00  0.00    +0.000 OA
ATOM     19  H   UNL     1       0.094  10.784  17.109  0.00  0.00    +0.000 HD
ENDROOT
BRANCH  15  20
ATOM     20  C   UNL     1       2.064   8.942  18.344  0.00  0.00    +0.000 C 
ATOM     21  O   UNL     1       2.355   8.576  17.198  0.00  0.00    +0.000 OA
ATOM     22  N   UNL     1       2.030   8.043  19.407  0.00  0.00    +0.000 N 
ATOM     23  C   UNL     1       2.446   6.667  19.184  0.00  0.00    +0.000 C 
ATOM     24  C   UNL     1       1.665   8.338  20.789  0.00  0.00    +0.000 C 
ENDBRANCH  15  20
BRANCH   1  27
ATOM     25  C   UNL     1      -3.372  11.089  16.112  0.00  0.00    +0.000 C 
ATOM     26  O   UNL     1      -3.213  11.174  14.894  0.00  0.00    +0.000 OA
ATOM     27  N   UNL     1      -2.261  10.928  16.895  0.00  0.00    +0.000 N 
ATOM     28  H   UNL     1      -1.385  10.973  16.386  0.00  0.00    +0.000 HD
BRANCH  25  29
ATOM     29  C   UNL     1      -4.772  11.021  16.730  0.00  0.00    +0.000 C 
BRANCH  29  33
ATOM     30  C   UNL     1      -6.981  13.973  17.478  0.00  0.00    +0.000 C 
ATOM     31  C   UNL     1      -6.549  12.535  17.442  0.00  0.00    +0.000 C 
ATOM     32  O   UNL     1      -7.157  11.643  18.023  0.00  0.00    +0.000 OA
ATOM     33  N   UNL     1      -5.406  12.323  16.705  0.00  0.00    +0.000 N 
ATOM     34  H   UNL     1      -4.841  13.134  16.476  0.00  0.00    +0.000 HD
ENDBRANCH  29  33
ENDBRANCH  25  29
ENDBRANCH   1  27
TORSDOF 4
ENDMDL
MODEL 5
REMARK VINA RESULT:      -6.1      4.115      6.856
REMARK  Name = 
REMARK  7 active torsions:
REMARK  status: ('A' for Active; 'I' for Inactive)
REMARK    1  A    between atoms: C_1  and  C_2
REMARK    2  A    between atoms: N_4  and  C_5
REMARK    3  A    between atoms: C_5  and  C_6
REMARK    4  A    between atoms: N_8  and  C_9
REMARK    5  A    between atoms: C_23  and  C_24
REMARK    6  A    between atoms: N_26  and  C_27
REMARK    7  A    between atoms: N_26  and  C_28
REMARK                            x       y       z     vdW  Elec       q    Type
REMARK                         _______ _______ _______ _____ _____    ______ ____
ROOT
ATOM      1  C   UNL     1      -1.647  12.113  18.373  0.00  0.00    +0.000 C 
ATOM      2  C   UNL     1      -0.550  11.327  17.623  0.00  0.00    +0.000 C 
ATOM      3  O   UNL     1      -0.139  10.147  18.345  0.00  0.00    +0.000 OA
ATOM      4  C   UNL     1       1.187   9.850  18.244  0.00  0.00    +0.000 C 
ATOM      5  O   UNL     1       2.007  10.453  17.572  0.00  0.00    +0.000 OA
ATOM      6  C   UNL     1       1.532   8.625  19.016  0.00  0.00    +0.000 A 
ATOM      7  C   UNL     1       2.358   7.701  18.359  0.00  0.00    +0.000 A 
ATOM      8  C   UNL     1       2.759   6.535  19.005  0.00  0.00    +0.000 A 
ATOM      9  C   UNL     1       2.341   6.290  20.310  0.00  0.00    +0.000 A 
ATOM     10  C   UNL     1       1.535   7.216  20.981  0.00  0.00    +0.000 A 
ATOM     11  C   UNL     1       1.133   8.409  20.359  0.00  0.00    +0.000 A 
ATOM     12  C   UNL     1       0.303   9.464  21.048  0.00  0.00    +0.000 C 
ATOM     13  S   UNL     1       0.050   9.377  22.834  0.00  0.00    +0.000 S 
ATOM     14  C   UNL     1      -1.111  10.799  23.079  0.00  0.00    +0.000 C 
ATOM     15  C   UNL     1      -0.897  12.040  22.176  0.00  0.00    +0.000 C 
ATOM     16  N   UNL     1      -1.507  11.857  20.841  0.00  0.00    +0.000 N 
ATOM     17  C   UNL     1      -1.067  12.540  19.728  0.00  0.00    +0.000 C 
ATOM     18  O   UNL     1      -0.150  13.350  19.775  0.00  0.00    +0.000 OA
ATOM     19  H   UNL     1      -2.371  11.331  20.770  0.00  0.00    +0.000 HD
ENDROOT
BRANCH  15  20
ATOM     20  C   UNL     1      -1.546  13.261  22.867  0.00  0.00    +0.000 C 
ATOM     21  O   UNL     1      -2.699  13.154  23.302  0.00  0.00    +0.000 OA
ATOM     22  N   UNL     1      -0.863  14.473  22.908  0.00  0.00    +0.000 N 
ATOM     23  C   UNL     1      -1.479  15.611  23.572  0.00  0.00    +0.000 C 
ATOM     24  C   UNL     1       0.477  14.739  22.394  0.00  0.00    +0.000 C 
ENDBRANCH  15  20
BRANCH   1  27
ATOM     25  C   UNL     1      -3.529  10.668  17.477  0.00  0.00    +0.000 C 
ATOM     26  O   UNL     1      -4.639  10.191  17.717  0.00  0.00    +0.000 OA
ATOM     27  N   UNL     1      -2.914  11.390  18.465  0.00  0.00    +0.000 N 
ATOM     28  H   UNL     1      -3.414  11.395  19.347  0.00  0.00    +0.000 HD
BRANCH  25  29
ATOM     29  C   UNL     1      -2.911  10.585  16.079  0.00  0.00    +0.000 C 
BRANCH  29  33
ATOM     30  C   UNL     1      -4.773   9.645  12.948  0.00  0.00    +0.000 C 
ATOM     31  C   UNL     1      -3.593   9.970  13.817  0.00  0.00    +0.000 C 
ATOM     32  O   UNL     1      -2.433   9.847  13.438  0.00  0.00    +0.000 OA
ATOM     33  N   UNL     1      -3.941  10.408  15.075  0.00  0.00    +0.000 N 
ATOM     34  H   UNL     1      -4.894  10.241  15.380  0.00  0.00    +0.000 HD
ENDBRANCH  29  33
ENDBRANCH  25  29
ENDBRANCH   1  27
TORSDOF 4
ENDMDL
MODEL 6
REMARK VINA RESULT:      -6.1      2.180      4.874
REMARK  Name = 
REMARK  7 active torsions:
REMARK  status: ('A' for Active; 'I' for Inactive)
REMARK    1  A    between atoms: C_1  and  C_2
REMARK    2  A    between atoms: N_4  and  C_5
REMARK    3  A    between atoms: C_5  and  C_6
REMARK    4  A    between atoms: N_8  and  C_9
REMARK    5  A    between atoms: C_23  and  C_24
REMARK    6  A    between atoms: N_26  and  C_27
REMARK    7  A    between atoms: N_26  and  C_28
REMARK                            x       y       z     vdW  Elec       q    Type
REMARK                         _______ _______ _______ _____ _____    ______ ____
ROOT
ATOM      1  C   UNL     1      -1.674  13.924  21.266  0.00  0.00    +0.000 C 
ATOM      2  C   UNL     1      -0.992  12.808  20.445  0.00  0.00    +0.000 C 
ATOM      3  O   UNL     1      -1.741  12.476  19.257  0.00  0.00    +0.000 OA
ATOM      4  C   UNL     1      -1.719  11.156  18.921  0.00  0.00    +0.000 C 
ATOM      5  O   UNL     1      -1.096  10.279  19.496  0.00  0.00    +0.000 OA
ATOM      6  C   UNL     1      -2.513  10.893  17.689  0.00  0.00    +0.000 A 
ATOM      7  C   UNL     1      -1.908  10.058  16.738  0.00  0.00    +0.000 A 
ATOM      8  C   UNL     1      -2.580   9.731  15.563  0.00  0.00    +0.000 A 
ATOM      9  C   UNL     1      -3.858  10.232  15.337  0.00  0.00    +0.000 A 
ATOM     10  C   UNL     1      -4.478  11.048  16.288  0.00  0.00    +0.000 A 
ATOM     11  C   UNL     1      -3.830  11.377  17.490  0.00  0.00    +0.000 A 
ATOM     12  C   UNL     1      -4.467  12.215  18.572  0.00  0.00    +0.000 C 
ATOM     13  S   UNL     1      -6.234  12.577  18.499  0.00  0.00    +0.000 S 
ATOM     14  C   UNL     1      -6.407  13.707  19.956  0.00  0.00    +0.000 C 
ATOM     15  C   UNL     1      -5.515  13.403  21.187  0.00  0.00    +0.000 C 
ATOM     16  N   UNL     1      -4.146  13.938  21.016  0.00  0.00    +0.000 N 
ATOM     17  C   UNL     1      -3.060  13.413  21.682  0.00  0.00    +0.000 C 
ATOM     18  O   UNL     1      -3.159  12.476  22.464  0.00  0.00    +0.000 OA
ATOM     19  H   UNL     1      -4.026  14.812  20.516  0.00  0.00    +0.000 HD
ENDROOT
BRANCH  15  20
ATOM     20  C   UNL     1      -6.163  14.056  22.429  0.00  0.00    +0.000 C 
ATOM     21  O   UNL     1      -5.750  15.161  22.803  0.00  0.00    +0.000 OA
ATOM     22  N   UNL     1      -7.128  13.358  23.149  0.00  0.00    +0.000 N 
ATOM     23  C   UNL     1      -7.739  13.988  24.309  0.00  0.00    +0.000 C 
ATOM     24  C   UNL     1      -7.665  12.037  22.838  0.00  0.00    +0.000 C 
ENDBRANCH  15  20
BRANCH   1  27
ATOM     25  C   UNL     1      -1.308  16.427  21.089  0.00  0.00    +0.000 C 
ATOM     26  O   UNL     1      -1.469  17.425  20.386  0.00  0.00    +0.000 OA
ATOM     27  N   UNL     1      -1.692  15.215  20.581  0.00  0.00    +0.000 N 
ATOM     28  H   UNL     1      -2.007  15.250  19.618  0.00  0.00    +0.000 HD
BRANCH  25  29
ATOM     29  C   UNL     1      -0.830  16.543  22.539  0.00  0.00    +0.000 C 
BRANCH  29  33
ATOM     30  C   UNL     1      -3.002  15.638  25.475  0.00  0.00    +0.000 C 
ATOM     31  C   UNL     1      -1.867  15.522  24.499  0.00  0.00    +0.000 C 
ATOM     32  O   UNL     1      -0.957  14.710  24.630  0.00  0.00    +0.000 OA
ATOM     33  N   UNL     1      -1.945  16.417  23.456  0.00  0.00    +0.000 N 
ATOM     34  H   UNL     1      -2.579  17.202  23.561  0.00  0.00    +0.000 HD
ENDBRANCH  29  33
ENDBRANCH  25  29
ENDBRANCH   1  27
TORSDOF 4
ENDMDL
MODEL 7
REMARK VINA RESULT:      -6.0      3.156      6.049
REMARK  Name = 
REMARK  7 active torsions:
REMARK  status: ('A' for Active; 'I' for Inactive)
REMARK    1  A    between atoms: C_1  and  C_2
REMARK    2  A    between atoms: N_4  and  C_5
REMARK    3  A    between atoms: C_5  and  C_6
REMARK    4  A    between atoms: N_8  and  C_9
REMARK    5  A    between atoms: C_23  and  C_24
REMARK    6  A    between atoms: N_26  and  C_27
REMARK    7  A    between atoms: N_26  and  C_28
REMARK                            x       y       z     vdW  Elec       q    Type
REMARK                         _______ _______ _______ _____ _____    ______ ____
ROOT
ATOM      1  C   UNL     1      -1.812  14.257  20.873  0.00  0.00    +0.000 C 
ATOM      2  C   UNL     1      -1.091  13.096  20.155  0.00  0.00    +0.000 C 
ATOM      3  O   UNL     1      -1.815  12.647  18.990  0.00  0.00    +0.000 OA
ATOM      4  C   UNL     1      -1.756  11.305  18.765  0.00  0.00    +0.000 C 
ATOM      5  O   UNL     1      -1.118  10.496  19.417  0.00  0.00    +0.000 OA
ATOM      6  C   UNL     1      -2.527  10.920  17.551  0.00  0.00    +0.000 A 
ATOM      7  C   UNL     1      -1.889  10.026  16.678  0.00  0.00    +0.000 A 
ATOM      8  C   UNL     1      -2.537   9.586  15.528  0.00  0.00    +0.000 A 
ATOM      9  C   UNL     1      -3.824  10.033  15.247  0.00  0.00    +0.000 A 
ATOM     10  C   UNL     1      -4.477  10.908  16.121  0.00  0.00    +0.000 A 
ATOM     11  C   UNL     1      -3.853  11.352  17.298  0.00  0.00    +0.000 A 
ATOM     12  C   UNL     1      -4.525  12.259  18.300  0.00  0.00    +0.000 C 
ATOM     13  S   UNL     1      -6.300  12.566  18.179  0.00  0.00    +0.000 S 
ATOM     14  C   UNL     1      -6.520  13.808  19.535  0.00  0.00    +0.000 C 
ATOM     15  C   UNL     1      -5.637  13.630  20.796  0.00  0.00    +0.000 C 
ATOM     16  N   UNL     1      -4.280  14.185  20.596  0.00  0.00    +0.000 N 
ATOM     17  C   UNL     1      -3.190  13.746  21.315  0.00  0.00    +0.000 C 
ATOM     18  O   UNL     1      -3.275  12.874  22.171  0.00  0.00    +0.000 OA
ATOM     19  H   UNL     1      -4.176  15.018  20.027  0.00  0.00    +0.000 HD
ENDROOT
BRANCH  15  20
ATOM     20  C   UNL     1      -6.318  14.365  21.973  0.00  0.00    +0.000 C 
ATOM     21  O   UNL     1      -6.040  15.555  22.171  0.00  0.00    +0.000 OA
ATOM     22  N   UNL     1      -7.155  13.661  22.833  0.00  0.00    +0.000 N 
ATOM     23  C   UNL     1      -7.799  14.367  23.930  0.00  0.00    +0.000 C 
ATOM     24  C   UNL     1      -7.525  12.253  22.734  0.00  0.00    +0.000 C 
ENDBRANCH  15  20
BRANCH   1  27
ATOM     25  C   UNL     1      -0.795  16.277  19.725  0.00  0.00    +0.000 C 
ATOM     26  O   UNL     1      -1.034  17.324  19.122  0.00  0.00    +0.000 OA
ATOM     27  N   UNL     1      -1.854  15.487  20.084  0.00  0.00    +0.000 N 
ATOM     28  H   UNL     1      -2.750  15.813  19.739  0.00  0.00    +0.000 HD
BRANCH  25  29
ATOM     29  C   UNL     1       0.622  15.931  20.190  0.00  0.00    +0.000 C 
BRANCH  29  33
ATOM     30  C   UNL     1       3.321  15.927  17.568  0.00  0.00    +0.000 C 
ATOM     31  C   UNL     1       2.396  16.490  18.609  0.00  0.00    +0.000 C 
ATOM     32  O   UNL     1       2.478  17.643  19.018  0.00  0.00    +0.000 OA
ATOM     33  N   UNL     1       1.461  15.586  19.060  0.00  0.00    +0.000 N 
ATOM     34  H   UNL     1       1.624  14.605  18.857  0.00  0.00    +0.000 HD
ENDBRANCH  29  33
ENDBRANCH  25  29
ENDBRANCH   1  27
TORSDOF 4
ENDMDL
MODEL 8
REMARK VINA RESULT:      -5.9      3.526      7.394
REMARK  Name = 
REMARK  7 active torsions:
REMARK  status: ('A' for Active; 'I' for Inactive)
REMARK    1  A    between atoms: C_1  and  C_2
REMARK    2  A    between atoms: N_4  and  C_5
REMARK    3  A    between atoms: C_5  and  C_6
REMARK    4  A    between atoms: N_8  and  C_9
REMARK    5  A    between atoms: C_23  and  C_24
REMARK    6  A    between atoms: N_26  and  C_27
REMARK    7  A    between atoms: N_26  and  C_28
REMARK                            x       y       z     vdW  Elec       q    Type
REMARK                         _______ _______ _______ _____ _____    ______ ____
ROOT
ATOM      1  C   UNL     1      -1.364  11.900  21.350  0.00  0.00    +0.000 C 
ATOM      2  C   UNL     1      -0.529  12.899  20.519  0.00  0.00    +0.000 C 
ATOM      3  O   UNL     1      -0.156  14.062  21.288  0.00  0.00    +0.000 OA
ATOM      4  C   UNL     1      -0.139  15.228  20.584  0.00  0.00    +0.000 C 
ATOM      5  O   UNL     1      -0.354  15.348  19.389  0.00  0.00    +0.000 OA
ATOM      6  C   UNL     1       0.252  16.379  21.443  0.00  0.00    +0.000 A 
ATOM      7  C   UNL     1       1.192  17.263  20.891  0.00  0.00    +0.000 A 
ATOM      8  C   UNL     1       1.603  18.385  21.606  0.00  0.00    +0.000 A 
ATOM      9  C   UNL     1       1.076  18.630  22.870  0.00  0.00    +0.000 A 
ATOM     10  C   UNL     1       0.123  17.766  23.420  0.00  0.00    +0.000 A 
ATOM     11  C   UNL     1      -0.323  16.639  22.712  0.00  0.00    +0.000 A 
ATOM     12  C   UNL     1      -1.381  15.698  23.234  0.00  0.00    +0.000 C 
ATOM     13  S   UNL     1      -2.357  16.164  24.680  0.00  0.00    +0.000 S 
ATOM     14  C   UNL     1      -3.355  14.624  24.925  0.00  0.00    +0.000 C 
ATOM     15  C   UNL     1      -3.793  13.864  23.647  0.00  0.00    +0.000 C 
ATOM     16  N   UNL     1      -2.710  13.002  23.124  0.00  0.00    +0.000 N 
ATOM     17  C   UNL     1      -2.639  12.624  21.801  0.00  0.00    +0.000 C 
ATOM     18  O   UNL     1      -3.474  12.970  20.975  0.00  0.00    +0.000 OA
ATOM     19  H   UNL     1      -2.088  12.550  23.786  0.00  0.00    +0.000 HD
ENDROOT
BRANCH  15  20
ATOM     20  C   UNL     1      -5.015  12.986  23.998  0.00  0.00    +0.000 C 
ATOM     21  O   UNL     1      -4.839  11.968  24.680  0.00  0.00    +0.000 OA
ATOM     22  N   UNL     1      -6.265  13.303  23.475  0.00  0.00    +0.000 N 
ATOM     23  C   UNL     1      -7.409  12.475  23.823  0.00  0.00    +0.000 C 
ATOM     24  C   UNL     1      -6.593  14.445  22.627  0.00  0.00    +0.000 C 
ENDBRANCH  15  20
BRANCH   1  27
ATOM     25  C   UNL     1      -0.046  10.034  22.450  0.00  0.00    +0.000 C 
ATOM     26  O   UNL     1       0.488   9.651  23.492  0.00  0.00    +0.000 OA
ATOM     27  N   UNL     1      -0.609  11.281  22.438  0.00  0.00    +0.000 N 
ATOM     28  H   UNL     1      -0.458  11.813  23.288  0.00  0.00    +0.000 HD
BRANCH  25  29
ATOM     29  C   UNL     1      -0.207   9.099  21.248  0.00  0.00    +0.000 C 
BRANCH  29  33
ATOM     30  C   UNL     1       1.827  10.087  18.240  0.00  0.00    +0.000 C 
ATOM     31  C   UNL     1       0.599   9.754  19.038  0.00  0.00    +0.000 C 
ATOM     32  O   UNL     1      -0.538   9.892  18.600  0.00  0.00    +0.000 OA
ATOM     33  N   UNL     1       0.876   9.289  20.304  0.00  0.00    +0.000 N 
ATOM     34  H   UNL     1       1.812   9.444  20.663  0.00  0.00    +0.000 HD
ENDBRANCH  29  33
ENDBRANCH  25  29
ENDBRANCH   1  27
TORSDOF 4
ENDMDL
MODEL 9
REMARK VINA RESULT:      -5.9      2.945      7.174
REMARK  Name = 
REMARK  7 active torsions:
REMARK  status: ('A' for Active; 'I' for Inactive)
REMARK    1  A    between atoms: C_1  and  C_2
REMARK    2  A    between atoms: N_4  and  C_5
REMARK    3  A    between atoms: C_5  and  C_6
REMARK    4  A    between atoms: N_8  and  C_9
REMARK    5  A    between atoms: C_23  and  C_24
REMARK    6  A    between atoms: N_26  and  C_27
REMARK    7  A    between atoms: N_26  and  C_28
REMARK                            x       y       z     vdW  Elec       q    Type
REMARK                         _______ _______ _______ _____ _____    ______ ____
ROOT
ATOM      1  C   UNL     1      -4.266  12.417  20.411  0.00  0.00    +0.000 C 
ATOM      2  C   UNL     1      -4.894  12.783  21.773  0.00  0.00    +0.000 C 
ATOM      3  O   UNL     1      -4.743  14.185  22.079  0.00  0.00    +0.000 OA
ATOM      4  C   UNL     1      -4.533  14.461  23.397  0.00  0.00    +0.000 C 
ATOM      5  O   UNL     1      -4.518  13.648  24.306  0.00  0.00    +0.000 OA
ATOM      6  C   UNL     1      -4.384  15.923  23.632  0.00  0.00    +0.000 A 
ATOM      7  C   UNL     1      -5.093  16.442  24.726  0.00  0.00    +0.000 A 
ATOM      8  C   UNL     1      -5.000  17.794  25.045  0.00  0.00    +0.000 A 
ATOM      9  C   UNL     1      -4.195  18.630  24.276  0.00  0.00    +0.000 A 
ATOM     10  C   UNL     1      -3.468  18.119  23.197  0.00  0.00    +0.000 A 
ATOM     11  C   UNL     1      -3.530  16.755  22.866  0.00  0.00    +0.000 A 
ATOM     12  C   UNL     1      -2.733  16.139  21.743  0.00  0.00    +0.000 C 
ATOM     13  S   UNL     1      -1.408  17.085  20.961  0.00  0.00    +0.000 S 
ATOM     14  C   UNL     1      -0.903  15.914  19.619  0.00  0.00    +0.000 C 
ATOM     15  C   UNL     1      -0.967  14.401  19.950  0.00  0.00    +0.000 C 
ATOM     16  N   UNL     1      -2.340  13.868  19.811  0.00  0.00    +0.000 N 
ATOM     17  C   UNL     1      -2.769  12.747  20.487  0.00  0.00    +0.000 C 
ATOM     18  O   UNL     1      -2.039  12.115  21.240  0.00  0.00    +0.000 OA
ATOM     19  H   UNL     1      -2.935  14.245  19.080  0.00  0.00    +0.000 HD
ENDROOT
BRANCH  15  20
ATOM     20  C   UNL     1      -0.030  13.651  18.977  0.00  0.00    +0.000 C 
ATOM     21  O   UNL     1      -0.473  13.303  17.875  0.00  0.00    +0.000 OA
ATOM     22  N   UNL     1       1.255  13.306  19.386  0.00  0.00    +0.000 N 
ATOM     23  C   UNL     1       2.131  12.611  18.456  0.00  0.00    +0.000 C 
ATOM     24  C   UNL     1       1.877  13.619  20.669  0.00  0.00    +0.000 C 
ENDBRANCH  15  20
BRANCH   1  27
ATOM     25  C   UNL     1      -5.285  12.424  18.089  0.00  0.00    +0.000 C 
ATOM     26  O   UNL     1      -5.798  13.121  17.212  0.00  0.00    +0.000 OA
ATOM     27  N   UNL     1      -4.956  13.024  19.275  0.00  0.00    +0.000 N 
ATOM     28  H   UNL     1      -5.248  13.993  19.344  0.00  0.00    +0.000 HD
BRANCH  25  29
ATOM     29  C   UNL     1      -4.891  10.969  17.821  0.00  0.00    +0.000 C 
BRANCH  29  33
ATOM     30  C   UNL     1      -3.111  10.206  14.595  0.00  0.00    +0.000 C 
ATOM     31  C   UNL     1      -3.266  10.589  16.039  0.00  0.00    +0.000 C 
ATOM     32  O   UNL     1      -2.314  10.716  16.800  0.00  0.00    +0.000 OA
ATOM     33  N   UNL     1      -4.576  10.774  16.420  0.00  0.00    +0.000 N 
ATOM     34  H   UNL     1      -5.297  10.409  15.807  0.00  0.00    +0.000 HD
ENDBRANCH  29  33
ENDBRANCH  25  29
ENDBRANCH   1  27
TORSDOF 4
ENDMDL
