MODEL 1
REMARK VINA RESULT:      -6.6      0.000      0.000
REMARK  Name = 
REMARK  6 active torsions:
REMARK  status: ('A' for Active; 'I' for Inactive)
REMARK    1  A    between atoms: C_2  and  O_11
REMARK    2  A    between atoms: N_3  and  C_4
REMARK    3  A    between atoms: O_11  and  C_12
REMARK    4  A    between atoms: C_12  and  C_13
REMARK    5  A    between atoms: C_13  and  C_14
REMARK    6  A    between atoms: C_14  and  C_15
REMARK                            x       y       z     vdW  Elec       q    Type
REMARK                         _______ _______ _______ _____ _____    ______ ____
ROOT
ATOM      1  O   UNL     1       5.918   6.317  15.427  0.00  0.00    +0.000 OA
ATOM      2  C   UNL     1       6.463   6.446  16.512  0.00  0.00    +0.000 C 
ATOM      3  N   UNL     1       5.999   6.041  17.738  0.00  0.00    +0.000 N 
ATOM      4  H   UNL     1       6.620   6.273  18.500  0.00  0.00    +0.000 HD
ENDROOT
BRANCH   3   5
ATOM      5  C   UNL     1       4.842   5.296  18.029  0.00  0.00    +0.000 A 
ATOM      6  C   UNL     1       3.544   5.784  17.860  0.00  0.00    +0.000 A 
ATOM      7  C   UNL     1       2.437   4.990  18.184  0.00  0.00    +0.000 A 
ATOM      8  C   UNL     1       2.624   3.704  18.679  0.00  0.00    +0.000 A 
ATOM      9  I   UNL     1       0.981   2.547  19.206  0.00  0.00    +0.000 I 
ATOM     10  C   UNL     1       3.912   3.193  18.829  0.00  0.00    +0.000 A 
ATOM     11  C   UNL     1       5.016   3.986  18.497  0.00  0.00    +0.000 A 
ENDBRANCH   3   5
BRANCH   2  12
ATOM     12  O   UNL     1       7.705   6.968  16.682  0.00  0.00    +0.000 OA
BRANCH  12  13
ATOM     13  C   UNL     1       7.902   7.687  17.908  0.00  0.00    +0.000 C 
BRANCH  13  14
ATOM     14  C   UNL     1       8.016   9.194  17.705  0.00  0.00    +0.000 C 
BRANCH  14  15
ATOM     15  C   UNL     1       8.893   9.787  18.811  0.00  0.00    +0.000 C 
BRANCH  15  16
ATOM     16  C   UNL     1       9.551  11.065  18.431  0.00  0.00    +0.000 A 
ATOM     17  C   UNL     1      10.847  11.474  18.655  0.00  0.00    +0.000 A 
ATOM     18  N   UNL     1      10.915  12.744  18.154  0.00  0.00    +0.000 N 
ATOM     19  C   UNL     1       9.681  13.058  17.661  0.00  0.00    +0.000 A 
ATOM     20  N   UNL     1       8.836  12.064  17.813  0.00  0.00    +0.000 NA
ATOM     21  H   UNL     1      11.724  13.350  18.155  0.00  0.00    +0.000 HD
ENDBRANCH  15  16
ENDBRANCH  14  15
ENDBRANCH  13  14
ENDBRANCH  12  13
ENDBRANCH   2  12
TORSDOF 6
ENDMDL
MODEL 2
REMARK VINA RESULT:      -6.5      1.558      1.863
REMARK  Name = 
REMARK  6 active torsions:
REMARK  status: ('A' for Active; 'I' for Inactive)
REMARK    1  A    between atoms: C_2  and  O_11
REMARK    2  A    between atoms: N_3  and  C_4
REMARK    3  A    between atoms: O_11  and  C_12
REMARK    4  A    between atoms: C_12  and  C_13
REMARK    5  A    between atoms: C_13  and  C_14
REMARK    6  A    between atoms: C_14  and  C_15
REMARK                            x       y       z     vdW  Elec       q    Type
REMARK                         _______ _______ _______ _____ _____    ______ ____
ROOT
ATOM      1  O   UNL     1       7.621   6.044  18.498  0.00  0.00    +0.000 OA
ATOM      2  C   UNL     1       7.157   6.718  17.591  0.00  0.00    +0.000 C 
ATOM      3  N   UNL     1       5.908   6.625  17.031  0.00  0.00    +0.000 N 
ATOM      4  H   UNL     1       5.755   7.281  16.279  0.00  0.00    +0.000 HD
ENDROOT
BRANCH   3   5
ATOM      5  C   UNL     1       4.834   5.808  17.428  0.00  0.00    +0.000 A 
ATOM      6  C   UNL     1       3.750   6.266  18.180  0.00  0.00    +0.000 A 
ATOM      7  C   UNL     1       2.721   5.392  18.554  0.00  0.00    +0.000 A 
ATOM      8  C   UNL     1       2.774   4.055  18.176  0.00  0.00    +0.000 A 
ATOM      9  I   UNL     1       1.272   2.749  18.774  0.00  0.00    +0.000 I 
ATOM     10  C   UNL     1       3.836   3.587  17.405  0.00  0.00    +0.000 A 
ATOM     11  C   UNL     1       4.858   4.465  17.027  0.00  0.00    +0.000 A 
ENDBRANCH   3   5
BRANCH   2  12
ATOM     12  O   UNL     1       7.802   7.764  17.014  0.00  0.00    +0.000 OA
BRANCH  12  13
ATOM     13  C   UNL     1       7.644   9.022  17.685  0.00  0.00    +0.000 C 
BRANCH  13  14
ATOM     14  C   UNL     1       8.784   9.333  18.649  0.00  0.00    +0.000 C 
BRANCH  14  15
ATOM     15  C   UNL     1       9.288  10.756  18.392  0.00  0.00    +0.000 C 
BRANCH  15  16
ATOM     16  C   UNL     1       9.614  11.507  19.634  0.00  0.00    +0.000 A 
ATOM     17  C   UNL     1       9.364  11.168  20.945  0.00  0.00    +0.000 A 
ATOM     18  N   UNL     1       9.817  12.227  21.682  0.00  0.00    +0.000 N 
ATOM     19  C   UNL     1      10.310  13.154  20.810  0.00  0.00    +0.000 A 
ATOM     20  N   UNL     1      10.203  12.748  19.566  0.00  0.00    +0.000 NA
ATOM     21  H   UNL     1       9.787  12.317  22.688  0.00  0.00    +0.000 HD
ENDBRANCH  15  16
ENDBRANCH  14  15
ENDBRANCH  13  14
ENDBRANCH  12  13
ENDBRANCH   2  12
TORSDOF 6
ENDMDL
MODEL 3
REMARK VINA RESULT:      -6.5      4.220      5.703
REMARK  Name = 
REMARK  6 active torsions:
REMARK  status: ('A' for Active; 'I' for Inactive)
REMARK    1  A    between atoms: C_2  and  O_11
REMARK    2  A    between atoms: N_3  and  C_4
REMARK    3  A    between atoms: O_11  and  C_12
REMARK    4  A    between atoms: C_12  and  C_13
REMARK    5  A    between atoms: C_13  and  C_14
REMARK    6  A    between atoms: C_14  and  C_15
REMARK                            x       y       z     vdW  Elec       q    Type
REMARK                         _______ _______ _______ _____ _____    ______ ____
ROOT
ATOM      1  O   UNL     1       4.890   5.451  19.715  0.00  0.00    +0.000 OA
ATOM      2  C   UNL     1       4.132   5.085  18.830  0.00  0.00    +0.000 C 
ATOM      3  N   UNL     1       2.953   5.668  18.441  0.00  0.00    +0.000 N 
ATOM      4  H   UNL     1       2.487   5.174  17.694  0.00  0.00    +0.000 HD
ENDROOT
BRANCH   3   5
ATOM      5  C   UNL     1       2.386   6.874  18.894  0.00  0.00    +0.000 A 
ATOM      6  C   UNL     1       1.955   7.082  20.206  0.00  0.00    +0.000 A 
ATOM      7  C   UNL     1       1.386   8.305  20.583  0.00  0.00    +0.000 A 
ATOM      8  C   UNL     1       1.246   9.324  19.648  0.00  0.00    +0.000 A 
ATOM      9  I   UNL     1       0.356  11.119  20.198  0.00  0.00    +0.000 I 
ATOM     10  C   UNL     1       1.695   9.142  18.341  0.00  0.00    +0.000 A 
ATOM     11  C   UNL     1       2.270   7.921  17.970  0.00  0.00    +0.000 A 
ENDBRANCH   3   5
BRANCH   2  12
ATOM     12  O   UNL     1       4.380   4.039  18.001  0.00  0.00    +0.000 OA
BRANCH  12  13
ATOM     13  C   UNL     1       4.543   4.383  16.618  0.00  0.00    +0.000 C 
BRANCH  13  14
ATOM     14  C   UNL     1       5.731   3.684  15.964  0.00  0.00    +0.000 C 
BRANCH  14  15
ATOM     15  C   UNL     1       6.874   4.688  15.793  0.00  0.00    +0.000 C 
BRANCH  15  16
ATOM     16  C   UNL     1       7.296   5.336  17.063  0.00  0.00    +0.000 A 
ATOM     17  C   UNL     1       7.330   6.675  17.385  0.00  0.00    +0.000 A 
ATOM     18  N   UNL     1       7.846   6.727  18.650  0.00  0.00    +0.000 N 
ATOM     19  C   UNL     1       8.108   5.445  19.040  0.00  0.00    +0.000 A 
ATOM     20  N   UNL     1       7.786   4.583  18.104  0.00  0.00    +0.000 NA
ATOM     21  H   UNL     1       8.014   7.559  19.198  0.00  0.00    +0.000 HD
ENDBRANCH  15  16
ENDBRANCH  14  15
ENDBRANCH  13  14
ENDBRANCH  12  13
ENDBRANCH   2  12
TORSDOF 6
ENDMDL
MODEL 4
REMARK VINA RESULT:      -6.4      0.589      1.251
REMARK  Name = 
REMARK  6 active torsions:
REMARK  status: ('A' for Active; 'I' for Inactive)
REMARK    1  A    between atoms: C_2  and  O_11
REMARK    2  A    between atoms: N_3  and  C_4
REMARK    3  A    between atoms: O_11  and  C_12
REMARK    4  A    between atoms: C_12  and  C_13
REMARK    5  A    between atoms: C_13  and  C_14
REMARK    6  A    between atoms: C_14  and  C_15
REMARK                            x       y       z     vdW  Elec       q    Type
REMARK                         _______ _______ _______ _____ _____    ______ ____
ROOT
ATOM      1  O   UNL     1       5.763   6.656  15.753  0.00  0.00    +0.000 OA
ATOM      2  C   UNL     1       6.461   6.648  16.756  0.00  0.00    +0.000 C 
ATOM      3  N   UNL     1       6.169   6.093  17.976  0.00  0.00    +0.000 N 
ATOM      4  H   UNL     1       6.897   6.227  18.663  0.00  0.00    +0.000 HD
ENDROOT
BRANCH   3   5
ATOM      5  C   UNL     1       5.051   5.319  18.336  0.00  0.00    +0.000 A 
ATOM      6  C   UNL     1       5.135   3.995  18.773  0.00  0.00    +0.000 A 
ATOM      7  C   UNL     1       3.976   3.279  19.101  0.00  0.00    +0.000 A 
ATOM      8  C   UNL     1       2.730   3.884  18.991  0.00  0.00    +0.000 A 
ATOM      9  I   UNL     1       1.011   2.803  19.430  0.00  0.00    +0.000 I 
ATOM     10  C   UNL     1       2.631   5.212  18.581  0.00  0.00    +0.000 A 
ATOM     11  C   UNL     1       3.790   5.928  18.261  0.00  0.00    +0.000 A 
ENDBRANCH   3   5
BRANCH   2  12
ATOM     12  O   UNL     1       7.724   7.143  16.807  0.00  0.00    +0.000 OA
BRANCH  12  13
ATOM     13  C   UNL     1       8.060   7.831  18.021  0.00  0.00    +0.000 C 
BRANCH  13  14
ATOM     14  C   UNL     1       8.155   9.343  17.844  0.00  0.00    +0.000 C 
BRANCH  14  15
ATOM     15  C   UNL     1       9.040   9.925  18.949  0.00  0.00    +0.000 C 
BRANCH  15  16
ATOM     16  C   UNL     1       9.608  11.259  18.618  0.00  0.00    +0.000 A 
ATOM     17  C   UNL     1      10.616  11.579  17.735  0.00  0.00    +0.000 A 
ATOM     18  N   UNL     1      10.782  12.931  17.853  0.00  0.00    +0.000 N 
ATOM     19  C   UNL     1       9.893  13.373  18.790  0.00  0.00    +0.000 A 
ATOM     20  N   UNL     1       9.169  12.388  19.269  0.00  0.00    +0.000 NA
ATOM     21  H   UNL     1      11.446  13.502  17.350  0.00  0.00    +0.000 HD
ENDBRANCH  15  16
ENDBRANCH  14  15
ENDBRANCH  13  14
ENDBRANCH  12  13
ENDBRANCH   2  12
TORSDOF 6
ENDMDL
MODEL 5
REMARK VINA RESULT:      -6.4      1.344      1.416
REMARK  Name = 
REMARK  6 active torsions:
REMARK  status: ('A' for Active; 'I' for Inactive)
REMARK    1  A    between atoms: C_2  and  O_11
REMARK    2  A    between atoms: N_3  and  C_4
REMARK    3  A    between atoms: O_11  and  C_12
REMARK    4  A    between atoms: C_12  and  C_13
REMARK    5  A    between atoms: C_13  and  C_14
REMARK    6  A    between atoms: C_14  and  C_15
REMARK                            x       y       z     vdW  Elec       q    Type
REMARK                         _______ _______ _______ _____ _____    ______ ____
ROOT
ATOM      1  O   UNL     1       7.498   5.796  17.639  0.00  0.00    +0.000 OA
ATOM      2  C   UNL     1       6.876   6.810  17.362  0.00  0.00    +0.000 C 
ATOM      3  N   UNL     1       5.515   6.967  17.294  0.00  0.00    +0.000 N 
ATOM      4  H   UNL     1       5.230   7.898  17.028  0.00  0.00    +0.000 HD
ENDROOT
BRANCH   3   5
ATOM      5  C   UNL     1       4.513   6.035  17.622  0.00  0.00    +0.000 A 
ATOM      6  C   UNL     1       3.508   6.278  18.561  0.00  0.00    +0.000 A 
ATOM      7  C   UNL     1       2.550   5.298  18.849  0.00  0.00    +0.000 A 
ATOM      8  C   UNL     1       2.596   4.069  18.199  0.00  0.00    +0.000 A 
ATOM      9  I   UNL     1       1.203   2.599  18.665  0.00  0.00    +0.000 I 
ATOM     10  C   UNL     1       3.577   3.820  17.241  0.00  0.00    +0.000 A 
ATOM     11  C   UNL     1       4.527   4.805  16.951  0.00  0.00    +0.000 A 
ENDBRANCH   3   5
BRANCH   2  12
ATOM     12  O   UNL     1       7.453   8.018  17.140  0.00  0.00    +0.000 OA
BRANCH  12  13
ATOM     13  C   UNL     1       8.326   8.478  18.181  0.00  0.00    +0.000 C 
BRANCH  13  14
ATOM     14  C   UNL     1       8.701   9.949  18.042  0.00  0.00    +0.000 C 
BRANCH  14  15
ATOM     15  C   UNL     1       9.483  10.390  19.281  0.00  0.00    +0.000 C 
BRANCH  15  16
ATOM     16  C   UNL     1      10.530  11.408  18.997  0.00  0.00    +0.000 A 
ATOM     17  C   UNL     1      11.230  12.202  19.877  0.00  0.00    +0.000 A 
ATOM     18  N   UNL     1      12.026  12.992  19.094  0.00  0.00    +0.000 N 
ATOM     19  C   UNL     1      11.779  12.661  17.793  0.00  0.00    +0.000 A 
ATOM     20  N   UNL     1      10.882  11.707  17.702  0.00  0.00    +0.000 NA
ATOM     21  H   UNL     1      12.672  13.700  19.413  0.00  0.00    +0.000 HD
ENDBRANCH  15  16
ENDBRANCH  14  15
ENDBRANCH  13  14
ENDBRANCH  12  13
ENDBRANCH   2  12
TORSDOF 6
ENDMDL
MODEL 6
REMARK VINA RESULT:      -6.4      5.284      8.082
REMARK  Name = 
REMARK  6 active torsions:
REMARK  status: ('A' for Active; 'I' for Inactive)
REMARK    1  A    between atoms: C_2  and  O_11
REMARK    2  A    between atoms: N_3  and  C_4
REMARK    3  A    between atoms: O_11  and  C_12
REMARK    4  A    between atoms: C_12  and  C_13
REMARK    5  A    between atoms: C_13  and  C_14
REMARK    6  A    between atoms: C_14  and  C_15
REMARK                            x       y       z     vdW  Elec       q    Type
REMARK                         _______ _______ _______ _____ _____    ______ ____
ROOT
ATOM      1  O   UNL     1       5.305   7.148  17.070  0.00  0.00    +0.000 OA
ATOM      2  C   UNL     1       4.606   6.180  17.326  0.00  0.00    +0.000 C 
ATOM      3  N   UNL     1       3.410   6.163  17.998  0.00  0.00    +0.000 N 
ATOM      4  H   UNL     1       3.021   5.237  18.104  0.00  0.00    +0.000 HD
ENDROOT
BRANCH   3   5
ATOM      5  C   UNL     1       2.656   7.257  18.462  0.00  0.00    +0.000 A 
ATOM      6  C   UNL     1       2.314   8.354  17.667  0.00  0.00    +0.000 A 
ATOM      7  C   UNL     1       1.573   9.416  18.201  0.00  0.00    +0.000 A 
ATOM      8  C   UNL     1       1.172   9.384  19.532  0.00  0.00    +0.000 A 
ATOM      9  I   UNL     1       0.115  10.984  20.333  0.00  0.00    +0.000 I 
ATOM     10  C   UNL     1       1.482   8.285  20.330  0.00  0.00    +0.000 A 
ATOM     11  C   UNL     1       2.216   7.223  19.792  0.00  0.00    +0.000 A 
ENDBRANCH   3   5
BRANCH   2  12
ATOM     12  O   UNL     1       4.871   4.917  16.904  0.00  0.00    +0.000 OA
BRANCH  12  13
ATOM     13  C   UNL     1       4.537   3.880  17.837  0.00  0.00    +0.000 C 
BRANCH  13  14
ATOM     14  C   UNL     1       3.532   2.876  17.281  0.00  0.00    +0.000 C 
BRANCH  14  15
ATOM     15  C   UNL     1       3.200   1.843  18.361  0.00  0.00    +0.000 C 
BRANCH  15  16
ATOM     16  C   UNL     1       2.223   2.329  19.372  0.00  0.00    +0.000 A 
ATOM     17  C   UNL     1       0.908   2.700  19.199  0.00  0.00    +0.000 A 
ATOM     18  N   UNL     1       0.487   3.114  20.432  0.00  0.00    +0.000 N 
ATOM     19  C   UNL     1       1.542   2.990  21.290  0.00  0.00    +0.000 A 
ATOM     20  N   UNL     1       2.603   2.517  20.680  0.00  0.00    +0.000 NA
ATOM     21  H   UNL     1      -0.433   3.461  20.669  0.00  0.00    +0.000 HD
ENDBRANCH  15  16
ENDBRANCH  14  15
ENDBRANCH  13  14
ENDBRANCH  12  13
ENDBRANCH   2  12
TORSDOF 6
ENDMDL
MODEL 7
REMARK VINA RESULT:      -6.4      5.297      6.960
REMARK  Name = 
REMARK  6 active torsions:
REMARK  status: ('A' for Active; 'I' for Inactive)
REMARK    1  A    between atoms: C_2  and  O_11
REMARK    2  A    between atoms: N_3  and  C_4
REMARK    3  A    between atoms: O_11  and  C_12
REMARK    4  A    between atoms: C_12  and  C_13
REMARK    5  A    between atoms: C_13  and  C_14
REMARK    6  A    between atoms: C_14  and  C_15
REMARK                            x       y       z     vdW  Elec       q    Type
REMARK                         _______ _______ _______ _____ _____    ______ ____
ROOT
ATOM      1  O   UNL     1       1.107   4.705  20.198  0.00  0.00    +0.000 OA
ATOM      2  C   UNL     1       2.275   5.026  20.044  0.00  0.00    +0.000 C 
ATOM      3  N   UNL     1       2.777   6.280  19.807  0.00  0.00    +0.000 N 
ATOM      4  H   UNL     1       3.780   6.298  19.697  0.00  0.00    +0.000 HD
ENDROOT
BRANCH   3   5
ATOM      5  C   UNL     1       2.085   7.505  19.786  0.00  0.00    +0.000 A 
ATOM      6  C   UNL     1       1.449   8.054  20.902  0.00  0.00    +0.000 A 
ATOM      7  C   UNL     1       0.764   9.272  20.804  0.00  0.00    +0.000 A 
ATOM      8  C   UNL     1       0.714   9.945  19.588  0.00  0.00    +0.000 A 
ATOM      9  I   UNL     1      -0.344  11.727  19.434  0.00  0.00    +0.000 I 
ATOM     10  C   UNL     1       1.365   9.424  18.472  0.00  0.00    +0.000 A 
ATOM     11  C   UNL     1       2.054   8.211  18.575  0.00  0.00    +0.000 A 
ENDBRANCH   3   5
BRANCH   2  12
ATOM     12  O   UNL     1       3.321   4.168  20.161  0.00  0.00    +0.000 OA
BRANCH  12  13
ATOM     13  C   UNL     1       3.231   2.984  19.354  0.00  0.00    +0.000 C 
BRANCH  13  14
ATOM     14  C   UNL     1       3.021   3.283  17.874  0.00  0.00    +0.000 C 
BRANCH  14  15
ATOM     15  C   UNL     1       4.377   3.293  17.164  0.00  0.00    +0.000 C 
BRANCH  15  16
ATOM     16  C   UNL     1       4.749   4.619  16.604  0.00  0.00    +0.000 A 
ATOM     17  C   UNL     1       5.447   4.911  15.453  0.00  0.00    +0.000 A 
ATOM     18  N   UNL     1       5.558   6.274  15.436  0.00  0.00    +0.000 N 
ATOM     19  C   UNL     1       4.944   6.750  16.558  0.00  0.00    +0.000 A 
ATOM     20  N   UNL     1       4.444   5.776  17.282  0.00  0.00    +0.000 NA
ATOM     21  H   UNL     1       6.020   6.831  14.730  0.00  0.00    +0.000 HD
ENDBRANCH  15  16
ENDBRANCH  14  15
ENDBRANCH  13  14
ENDBRANCH  12  13
ENDBRANCH   2  12
TORSDOF 6
ENDMDL
MODEL 8
REMARK VINA RESULT:      -6.4      5.521      8.060
REMARK  Name = 
REMARK  6 active torsions:
REMARK  status: ('A' for Active; 'I' for Inactive)
REMARK    1  A    between atoms: C_2  and  O_11
REMARK    2  A    between atoms: N_3  and  C_4
REMARK    3  A    between atoms: O_11  and  C_12
REMARK    4  A    between atoms: C_12  and  C_13
REMARK    5  A    between atoms: C_13  and  C_14
REMARK    6  A    between atoms: C_14  and  C_15
REMARK                            x       y       z     vdW  Elec       q    Type
REMARK                         _______ _______ _______ _____ _____    ______ ____
ROOT
ATOM      1  O   UNL     1       5.115   5.821  18.929  0.00  0.00    +0.000 OA
ATOM      2  C   UNL     1       4.336   5.680  17.999  0.00  0.00    +0.000 C 
ATOM      3  N   UNL     1       3.075   6.206  17.875  0.00  0.00    +0.000 N 
ATOM      4  H   UNL     1       2.610   5.937  17.020  0.00  0.00    +0.000 HD
ENDROOT
BRANCH   3   5
ATOM      5  C   UNL     1       2.418   7.108  18.732  0.00  0.00    +0.000 A 
ATOM      6  C   UNL     1       2.084   6.813  20.056  0.00  0.00    +0.000 A 
ATOM      7  C   UNL     1       1.416   7.755  20.848  0.00  0.00    +0.000 A 
ATOM      8  C   UNL     1       1.080   8.996  20.319  0.00  0.00    +0.000 A 
ATOM      9  I   UNL     1       0.046  10.373  21.481  0.00  0.00    +0.000 I 
ATOM     10  C   UNL     1       1.429   9.315  19.008  0.00  0.00    +0.000 A 
ATOM     11  C   UNL     1       2.103   8.374  18.221  0.00  0.00    +0.000 A 
ENDBRANCH   3   5
BRANCH   2  12
ATOM     12  O   UNL     1       4.631   5.014  16.854  0.00  0.00    +0.000 OA
BRANCH  12  13
ATOM     13  C   UNL     1       4.588   3.583  16.954  0.00  0.00    +0.000 C 
BRANCH  13  14
ATOM     14  C   UNL     1       3.187   3.044  17.219  0.00  0.00    +0.000 C 
BRANCH  14  15
ATOM     15  C   UNL     1       3.237   2.068  18.398  0.00  0.00    +0.000 C 
BRANCH  15  16
ATOM     16  C   UNL     1       2.400   2.486  19.555  0.00  0.00    +0.000 A 
ATOM     17  C   UNL     1       1.049   2.746  19.599  0.00  0.00    +0.000 A 
ATOM     18  N   UNL     1       0.801   3.141  20.885  0.00  0.00    +0.000 N 
ATOM     19  C   UNL     1       1.988   3.114  21.559  0.00  0.00    +0.000 A 
ATOM     20  N   UNL     1       2.972   2.721  20.783  0.00  0.00    +0.000 NA
ATOM     21  H   UNL     1      -0.093   3.415  21.269  0.00  0.00    +0.000 HD
ENDBRANCH  15  16
ENDBRANCH  14  15
ENDBRANCH  13  14
ENDBRANCH  12  13
ENDBRANCH   2  12
TORSDOF 6
ENDMDL
MODEL 9
REMARK VINA RESULT:      -6.4      4.200      5.710
REMARK  Name = 
REMARK  6 active torsions:
REMARK  status: ('A' for Active; 'I' for Inactive)
REMARK    1  A    between atoms: C_2  and  O_11
REMARK    2  A    between atoms: N_3  and  C_4
REMARK    3  A    between atoms: O_11  and  C_12
REMARK    4  A    between atoms: C_12  and  C_13
REMARK    5  A    between atoms: C_13  and  C_14
REMARK    6  A    between atoms: C_14  and  C_15
REMARK                            x       y       z     vdW  Elec       q    Type
REMARK                         _______ _______ _______ _____ _____    ______ ____
ROOT
ATOM      1  O   UNL     1       1.966   4.555  18.209  0.00  0.00    +0.000 OA
ATOM      2  C   UNL     1       3.047   5.095  18.029  0.00  0.00    +0.000 C 
ATOM      3  N   UNL     1       3.349   6.427  18.150  0.00  0.00    +0.000 N 
ATOM      4  H   UNL     1       4.312   6.643  17.934  0.00  0.00    +0.000 HD
ENDROOT
BRANCH   3   5
ATOM      5  C   UNL     1       2.521   7.471  18.602  0.00  0.00    +0.000 A 
ATOM      6  C   UNL     1       2.044   8.493  17.779  0.00  0.00    +0.000 A 
ATOM      7  C   UNL     1       1.235   9.510  18.302  0.00  0.00    +0.000 A 
ATOM      8  C   UNL     1       0.901   9.507  19.651  0.00  0.00    +0.000 A 
ATOM      9  I   UNL     1      -0.259  11.044  20.434  0.00  0.00    +0.000 I 
ATOM     10  C   UNL     1       1.347   8.481  20.481  0.00  0.00    +0.000 A 
ATOM     11  C   UNL     1       2.149   7.462  19.954  0.00  0.00    +0.000 A 
ENDBRANCH   3   5
BRANCH   2  12
ATOM     12  O   UNL     1       4.193   4.426  17.742  0.00  0.00    +0.000 OA
BRANCH  12  13
ATOM     13  C   UNL     1       4.321   3.993  16.380  0.00  0.00    +0.000 C 
BRANCH  13  14
ATOM     14  C   UNL     1       5.421   4.725  15.621  0.00  0.00    +0.000 C 
BRANCH  14  15
ATOM     15  C   UNL     1       6.782   4.338  16.206  0.00  0.00    +0.000 C 
BRANCH  15  16
ATOM     16  C   UNL     1       7.244   5.243  17.292  0.00  0.00    +0.000 A 
ATOM     17  C   UNL     1       7.382   6.614  17.280  0.00  0.00    +0.000 A 
ATOM     18  N   UNL     1       7.891   6.934  18.508  0.00  0.00    +0.000 N 
ATOM     19  C   UNL     1       8.048   5.771  19.204  0.00  0.00    +0.000 A 
ATOM     20  N   UNL     1       7.665   4.733  18.498  0.00  0.00    +0.000 NA
ATOM     21  H   UNL     1       8.121   7.860  18.841  0.00  0.00    +0.000 HD
ENDBRANCH  15  16
ENDBRANCH  14  15
ENDBRANCH  13  14
ENDBRANCH  12  13
ENDBRANCH   2  12
TORSDOF 6
ENDMDL
