MODEL 1
REMARK VINA RESULT:      -7.5      0.000      0.000
REMARK  Name = 
REMARK  8 active torsions:
REMARK  status: ('A' for Active; 'I' for Inactive)
REMARK    1  A    between atoms: C_1  and  C_2
REMARK    2  A    between atoms: N_4  and  C_5
REMARK    3  A    between atoms: C_6  and  C_7
REMARK    4  A    between atoms: C_8  and  C_9
REMARK    5  A    between atoms: C_9  and  C_10
REMARK    6  A    between atoms: C_10  and  C_11
REMARK    7  A    between atoms: N_13  and  C_14
REMARK    8  A    between atoms: C_14  and  C_15
REMARK                            x       y       z     vdW  Elec       q    Type
REMARK                         _______ _______ _______ _____ _____    ______ ____
ROOT
ATOM      1  C   UNL     1       7.911   8.086  18.049  0.00  0.00    +0.000 C 
ATOM      2  O   UNL     1       8.389   7.202  18.758  0.00  0.00    +0.000 OA
ATOM      3  N   UNL     1       6.961   7.825  17.083  0.00  0.00    +0.000 N 
ATOM      4  H   UNL     1       6.492   8.572  16.600  0.00  0.00    +0.000 HD
ENDROOT
BRANCH   1   5
ATOM      5  C   UNL     1       8.424   9.522  18.124  0.00  0.00    +0.000 C 
BRANCH   5   6
ATOM      6  C   UNL     1       9.341   9.811  19.309  0.00  0.00    +0.000 C 
BRANCH   6  14
ATOM      7  C   UNL     1       8.530  11.588  21.928  0.00  0.00    +0.000 C 
ATOM      8  C   UNL     1       9.233  12.032  20.699  0.00  0.00    +0.000 A 
ATOM      9  N   UNL     1       9.648  13.298  20.595  0.00  0.00    +0.000 NA
ATOM     10  N   UNL     1      10.267  13.353  19.407  0.00  0.00    +0.000 N 
ATOM     11  C   UNL     1      10.866  14.601  18.992  0.00  0.00    +0.000 C 
ATOM     12  C   UNL     1      10.269  12.156  18.737  0.00  0.00    +0.000 A 
ATOM     13  C   UNL     1      10.925  11.941  17.421  0.00  0.00    +0.000 C 
ATOM     14  C   UNL     1       9.584  11.267  19.549  0.00  0.00    +0.000 A 
ENDBRANCH   6  14
ENDBRANCH   5   6
ENDBRANCH   1   5
BRANCH   3  15
ATOM     15  C   UNL     1       6.404   6.503  16.878  0.00  0.00    +0.000 C 
BRANCH  15  16
ATOM     16  C   UNL     1       5.054   6.406  17.512  0.00  0.00    +0.000 A 
ATOM     17  C   UNL     1       4.072   7.372  17.439  0.00  0.00    +0.000 A 
ATOM     18  S   UNL     1       2.700   6.892  18.317  0.00  0.00    +0.000 S 
ATOM     19  C   UNL     1       3.478   5.399  18.753  0.00  0.00    +0.000 A 
ATOM     20  N   UNL     1       2.854   4.474  19.536  0.00  0.00    +0.000 N 
ATOM     21  C   UNL     1       3.504   3.235  19.924  0.00  0.00    +0.000 C 
ATOM     22  C   UNL     1       2.398   2.188  19.793  0.00  0.00    +0.000 C 
ATOM     23  C   UNL     1       1.140   2.963  20.149  0.00  0.00    +0.000 C 
ATOM     24  C   UNL     1       1.401   4.352  19.573  0.00  0.00    +0.000 C 
ATOM     25  N   UNL     1       4.704   5.287  18.273  0.00  0.00    +0.000 NA
ENDBRANCH  15  16
ENDBRANCH   3  15
TORSDOF 5
ENDMDL
MODEL 2
REMARK VINA RESULT:      -7.4      4.932      7.995
REMARK  Name = 
REMARK  8 active torsions:
REMARK  status: ('A' for Active; 'I' for Inactive)
REMARK    1  A    between atoms: C_1  and  C_2
REMARK    2  A    between atoms: N_4  and  C_5
REMARK    3  A    between atoms: C_6  and  C_7
REMARK    4  A    between atoms: C_8  and  C_9
REMARK    5  A    between atoms: C_9  and  C_10
REMARK    6  A    between atoms: C_10  and  C_11
REMARK    7  A    between atoms: N_13  and  C_14
REMARK    8  A    between atoms: C_14  and  C_15
REMARK                            x       y       z     vdW  Elec       q    Type
REMARK                         _______ _______ _______ _____ _____    ______ ____
ROOT
ATOM      1  C   UNL     1       2.206   6.629  18.730  0.00  0.00    +0.000 C 
ATOM      2  O   UNL     1       2.491   6.789  19.916  0.00  0.00    +0.000 OA
ATOM      3  N   UNL     1       2.040   7.687  17.862  0.00  0.00    +0.000 N 
ATOM      4  H   UNL     1       1.931   7.537  16.873  0.00  0.00    +0.000 HD
ENDROOT
BRANCH   1   5
ATOM      5  C   UNL     1       1.911   5.240  18.170  0.00  0.00    +0.000 C 
BRANCH   5   6
ATOM      6  C   UNL     1       3.064   4.604  17.399  0.00  0.00    +0.000 C 
BRANCH   6  14
ATOM      7  C   UNL     1       4.427   2.867  19.807  0.00  0.00    +0.000 C 
ATOM      8  C   UNL     1       4.992   4.031  19.082  0.00  0.00    +0.000 A 
ATOM      9  N   UNL     1       6.225   4.457  19.373  0.00  0.00    +0.000 NA
ATOM     10  N   UNL     1       6.439   5.474  18.527  0.00  0.00    +0.000 N 
ATOM     11  C   UNL     1       7.714   6.152  18.562  0.00  0.00    +0.000 C 
ATOM     12  C   UNL     1       5.380   5.719  17.691  0.00  0.00    +0.000 A 
ATOM     13  C   UNL     1       5.380   6.764  16.634  0.00  0.00    +0.000 C 
ATOM     14  C   UNL     1       4.403   4.799  18.036  0.00  0.00    +0.000 A 
ENDBRANCH   6  14
ENDBRANCH   5   6
ENDBRANCH   1   5
BRANCH   3  15
ATOM     15  C   UNL     1       2.256   9.063  18.262  0.00  0.00    +0.000 C 
BRANCH  15  16
ATOM     16  C   UNL     1       0.956   9.711  18.614  0.00  0.00    +0.000 A 
ATOM     17  C   UNL     1       0.695  10.374  19.794  0.00  0.00    +0.000 A 
ATOM     18  S   UNL     1      -0.907  10.939  19.817  0.00  0.00    +0.000 S 
ATOM     19  C   UNL     1      -1.183  10.276  18.233  0.00  0.00    +0.000 A 
ATOM     20  N   UNL     1      -2.392  10.389  17.615  0.00  0.00    +0.000 N 
ATOM     21  C   UNL     1      -2.639   9.819  16.302  0.00  0.00    +0.000 C 
ATOM     22  C   UNL     1      -3.459  10.892  15.588  0.00  0.00    +0.000 C 
ATOM     23  C   UNL     1      -4.263  11.524  16.714  0.00  0.00    +0.000 C 
ATOM     24  C   UNL     1      -3.301  11.494  17.899  0.00  0.00    +0.000 C 
ATOM     25  N   UNL     1      -0.128   9.655  17.734  0.00  0.00    +0.000 NA
ENDBRANCH  15  16
ENDBRANCH   3  15
TORSDOF 5
ENDMDL
MODEL 3
REMARK VINA RESULT:      -7.4      2.807     10.050
REMARK  Name = 
REMARK  8 active torsions:
REMARK  status: ('A' for Active; 'I' for Inactive)
REMARK    1  A    between atoms: C_1  and  C_2
REMARK    2  A    between atoms: N_4  and  C_5
REMARK    3  A    between atoms: C_6  and  C_7
REMARK    4  A    between atoms: C_8  and  C_9
REMARK    5  A    between atoms: C_9  and  C_10
REMARK    6  A    between atoms: C_10  and  C_11
REMARK    7  A    between atoms: N_13  and  C_14
REMARK    8  A    between atoms: C_14  and  C_15
REMARK                            x       y       z     vdW  Elec       q    Type
REMARK                         _______ _______ _______ _____ _____    ______ ____
ROOT
ATOM      1  C   UNL     1       7.733   7.465  17.886  0.00  0.00    +0.000 C 
ATOM      2  O   UNL     1       7.304   7.486  16.734  0.00  0.00    +0.000 OA
ATOM      3  N   UNL     1       8.370   8.547  18.456  0.00  0.00    +0.000 N 
ATOM      4  H   UNL     1       8.602   8.558  19.435  0.00  0.00    +0.000 HD
ENDROOT
BRANCH   1   5
ATOM      5  C   UNL     1       7.680   6.190  18.725  0.00  0.00    +0.000 C 
BRANCH   5   6
ATOM      6  C   UNL     1       7.678   4.895  17.918  0.00  0.00    +0.000 C 
BRANCH   6  14
ATOM      7  C   UNL     1       6.869   4.581  14.768  0.00  0.00    +0.000 C 
ATOM      8  C   UNL     1       6.005   4.401  15.961  0.00  0.00    +0.000 A 
ATOM      9  N   UNL     1       4.731   4.028  15.804  0.00  0.00    +0.000 NA
ATOM     10  N   UNL     1       4.256   3.919  17.053  0.00  0.00    +0.000 N 
ATOM     11  C   UNL     1       2.887   3.498  17.242  0.00  0.00    +0.000 C 
ATOM     12  C   UNL     1       5.187   4.207  18.017  0.00  0.00    +0.000 A 
ATOM     13  C   UNL     1       4.926   4.119  19.478  0.00  0.00    +0.000 C 
ATOM     14  C   UNL     1       6.346   4.543  17.337  0.00  0.00    +0.000 A 
ENDBRANCH   6  14
ENDBRANCH   5   6
ENDBRANCH   1   5
BRANCH   3  15
ATOM     15  C   UNL     1       8.520   9.813  17.767  0.00  0.00    +0.000 C 
BRANCH  15  16
ATOM     16  C   UNL     1       9.228  10.798  18.642  0.00  0.00    +0.000 A 
ATOM     17  C   UNL     1       9.535  10.599  19.971  0.00  0.00    +0.000 A 
ATOM     18  S   UNL     1      10.313  11.967  20.612  0.00  0.00    +0.000 S 
ATOM     19  C   UNL     1      10.213  12.768  19.072  0.00  0.00    +0.000 A 
ATOM     20  N   UNL     1      10.697  14.030  18.893  0.00  0.00    +0.000 N 
ATOM     21  C   UNL     1      10.598  14.716  17.617  0.00  0.00    +0.000 C 
ATOM     22  C   UNL     1      11.953  15.407  17.470  0.00  0.00    +0.000 C 
ATOM     23  C   UNL     1      12.333  15.739  18.904  0.00  0.00    +0.000 C 
ATOM     24  C   UNL     1      11.794  14.553  19.700  0.00  0.00    +0.000 C 
ATOM     25  N   UNL     1       9.614  12.045  18.142  0.00  0.00    +0.000 NA
ENDBRANCH  15  16
ENDBRANCH   3  15
TORSDOF 5
ENDMDL
MODEL 4
REMARK VINA RESULT:      -7.3      5.942      7.790
REMARK  Name = 
REMARK  8 active torsions:
REMARK  status: ('A' for Active; 'I' for Inactive)
REMARK    1  A    between atoms: C_1  and  C_2
REMARK    2  A    between atoms: N_4  and  C_5
REMARK    3  A    between atoms: C_6  and  C_7
REMARK    4  A    between atoms: C_8  and  C_9
REMARK    5  A    between atoms: C_9  and  C_10
REMARK    6  A    between atoms: C_10  and  C_11
REMARK    7  A    between atoms: N_13  and  C_14
REMARK    8  A    between atoms: C_14  and  C_15
REMARK                            x       y       z     vdW  Elec       q    Type
REMARK                         _______ _______ _______ _____ _____    ______ ____
ROOT
ATOM      1  C   UNL     1       1.927   4.121  19.264  0.00  0.00    +0.000 C 
ATOM      2  O   UNL     1       1.228   3.476  18.485  0.00  0.00    +0.000 OA
ATOM      3  N   UNL     1       3.293   3.947  19.347  0.00  0.00    +0.000 N 
ATOM      4  H   UNL     1       3.864   4.566  19.898  0.00  0.00    +0.000 HD
ENDROOT
BRANCH   1   5
ATOM      5  C   UNL     1       1.304   5.086  20.270  0.00  0.00    +0.000 C 
BRANCH   5   6
ATOM      6  C   UNL     1       2.210   6.238  20.695  0.00  0.00    +0.000 C 
BRANCH   6  14
ATOM      7  C   UNL     1       3.183   7.207  17.730  0.00  0.00    +0.000 C 
ATOM      8  C   UNL     1       2.339   7.941  18.705  0.00  0.00    +0.000 A 
ATOM      9  N   UNL     1       1.849   9.142  18.383  0.00  0.00    +0.000 NA
ATOM     10  N   UNL     1       1.113   9.501  19.444  0.00  0.00    +0.000 N 
ATOM     11  C   UNL     1       0.411  10.764  19.409  0.00  0.00    +0.000 C 
ATOM     12  C   UNL     1       1.108   8.564  20.446  0.00  0.00    +0.000 A 
ATOM     13  C   UNL     1       0.336   8.702  21.709  0.00  0.00    +0.000 C 
ATOM     14  C   UNL     1       1.915   7.531  20.002  0.00  0.00    +0.000 A 
ENDBRANCH   6  14
ENDBRANCH   5   6
ENDBRANCH   1   5
BRANCH   3  15
ATOM     15  C   UNL     1       4.016   3.042  18.477  0.00  0.00    +0.000 C 
BRANCH  15  16
ATOM     16  C   UNL     1       4.989   3.802  17.633  0.00  0.00    +0.000 A 
ATOM     17  C   UNL     1       5.961   4.653  18.116  0.00  0.00    +0.000 A 
ATOM     18  S   UNL     1       6.838   5.341  16.834  0.00  0.00    +0.000 S 
ATOM     19  C   UNL     1       5.879   4.461  15.681  0.00  0.00    +0.000 A 
ATOM     20  N   UNL     1       6.089   4.584  14.340  0.00  0.00    +0.000 N 
ATOM     21  C   UNL     1       5.280   3.870  13.369  0.00  0.00    +0.000 C 
ATOM     22  C   UNL     1       6.293   3.403  12.324  0.00  0.00    +0.000 C 
ATOM     23  C   UNL     1       7.336   4.509  12.331  0.00  0.00    +0.000 C 
ATOM     24  C   UNL     1       7.396   4.935  13.795  0.00  0.00    +0.000 C 
ATOM     25  N   UNL     1       4.948   3.707  16.240  0.00  0.00    +0.000 NA
ENDBRANCH  15  16
ENDBRANCH   3  15
TORSDOF 5
ENDMDL
MODEL 5
REMARK VINA RESULT:      -7.3      4.353      7.285
REMARK  Name = 
REMARK  8 active torsions:
REMARK  status: ('A' for Active; 'I' for Inactive)
REMARK    1  A    between atoms: C_1  and  C_2
REMARK    2  A    between atoms: N_4  and  C_5
REMARK    3  A    between atoms: C_6  and  C_7
REMARK    4  A    between atoms: C_8  and  C_9
REMARK    5  A    between atoms: C_9  and  C_10
REMARK    6  A    between atoms: C_10  and  C_11
REMARK    7  A    between atoms: N_13  and  C_14
REMARK    8  A    between atoms: C_14  and  C_15
REMARK                            x       y       z     vdW  Elec       q    Type
REMARK                         _______ _______ _______ _____ _____    ______ ____
ROOT
ATOM      1  C   UNL     1       2.862   4.078  18.265  0.00  0.00    +0.000 C 
ATOM      2  O   UNL     1       2.237   3.204  18.863  0.00  0.00    +0.000 OA
ATOM      3  N   UNL     1       2.911   5.384  18.705  0.00  0.00    +0.000 N 
ATOM      4  H   UNL     1       3.524   6.055  18.275  0.00  0.00    +0.000 HD
ENDROOT
BRANCH   1   5
ATOM      5  C   UNL     1       3.539   3.788  16.927  0.00  0.00    +0.000 C 
BRANCH   5   6
ATOM      6  C   UNL     1       5.011   3.399  17.028  0.00  0.00    +0.000 C 
BRANCH   6  14
ATOM      7  C   UNL     1       6.300   4.668  14.306  0.00  0.00    +0.000 C 
ATOM      8  C   UNL     1       6.506   5.104  15.709  0.00  0.00    +0.000 A 
ATOM      9  N   UNL     1       7.276   6.165  15.966  0.00  0.00    +0.000 NA
ATOM     10  N   UNL     1       7.219   6.309  17.297  0.00  0.00    +0.000 N 
ATOM     11  C   UNL     1       7.935   7.404  17.910  0.00  0.00    +0.000 C 
ATOM     12  C   UNL     1       6.429   5.372  17.914  0.00  0.00    +0.000 A 
ATOM     13  C   UNL     1       6.166   5.339  19.376  0.00  0.00    +0.000 C 
ATOM     14  C   UNL     1       5.955   4.553  16.902  0.00  0.00    +0.000 A 
ENDBRANCH   6  14
ENDBRANCH   5   6
ENDBRANCH   1   5
BRANCH   3  15
ATOM     15  C   UNL     1       2.288   5.812  19.941  0.00  0.00    +0.000 C 
BRANCH  15  16
ATOM     16  C   UNL     1       1.879   7.246  19.846  0.00  0.00    +0.000 A 
ATOM     17  C   UNL     1       1.991   8.029  18.716  0.00  0.00    +0.000 A 
ATOM     18  S   UNL     1       1.444   9.606  19.029  0.00  0.00    +0.000 S 
ATOM     19  C   UNL     1       1.071   9.171  20.671  0.00  0.00    +0.000 A 
ATOM     20  N   UNL     1       0.555  10.078  21.547  0.00  0.00    +0.000 N 
ATOM     21  C   UNL     1       0.261   9.730  22.926  0.00  0.00    +0.000 C 
ATOM     22  C   UNL     1      -1.075  10.420  23.199  0.00  0.00    +0.000 C 
ATOM     23  C   UNL     1      -1.001  11.674  22.341  0.00  0.00    +0.000 C 
ATOM     24  C   UNL     1      -0.245  11.212  21.098  0.00  0.00    +0.000 C 
ATOM     25  N   UNL     1       1.359   7.913  20.958  0.00  0.00    +0.000 NA
ENDBRANCH  15  16
ENDBRANCH   3  15
TORSDOF 5
ENDMDL
MODEL 6
REMARK VINA RESULT:      -7.2      1.395      1.518
REMARK  Name = 
REMARK  8 active torsions:
REMARK  status: ('A' for Active; 'I' for Inactive)
REMARK    1  A    between atoms: C_1  and  C_2
REMARK    2  A    between atoms: N_4  and  C_5
REMARK    3  A    between atoms: C_6  and  C_7
REMARK    4  A    between atoms: C_8  and  C_9
REMARK    5  A    between atoms: C_9  and  C_10
REMARK    6  A    between atoms: C_10  and  C_11
REMARK    7  A    between atoms: N_13  and  C_14
REMARK    8  A    between atoms: C_14  and  C_15
REMARK                            x       y       z     vdW  Elec       q    Type
REMARK                         _______ _______ _______ _____ _____    ______ ____
ROOT
ATOM      1  C   UNL     1       8.096   7.895  17.872  0.00  0.00    +0.000 C 
ATOM      2  O   UNL     1       8.037   7.534  16.698  0.00  0.00    +0.000 OA
ATOM      3  N   UNL     1       7.976   7.009  18.923  0.00  0.00    +0.000 N 
ATOM      4  H   UNL     1       8.150   7.300  19.870  0.00  0.00    +0.000 HD
ENDROOT
BRANCH   1   5
ATOM      5  C   UNL     1       8.198   9.373  18.240  0.00  0.00    +0.000 C 
BRANCH   5   6
ATOM      6  C   UNL     1       9.284   9.704  19.259  0.00  0.00    +0.000 C 
BRANCH   6  14
ATOM      7  C   UNL     1       8.501  11.398  21.940  0.00  0.00    +0.000 C 
ATOM      8  C   UNL     1       9.119  11.897  20.687  0.00  0.00    +0.000 A 
ATOM      9  N   UNL     1       9.458  13.185  20.584  0.00  0.00    +0.000 NA
ATOM     10  N   UNL     1      10.016  13.291  19.369  0.00  0.00    +0.000 N 
ATOM     11  C   UNL     1      10.524  14.575  18.945  0.00  0.00    +0.000 C 
ATOM     12  C   UNL     1      10.052  12.105  18.681  0.00  0.00    +0.000 A 
ATOM     13  C   UNL     1      10.655  11.944  17.332  0.00  0.00    +0.000 C 
ATOM     14  C   UNL     1       9.457  11.168  19.510  0.00  0.00    +0.000 A 
ENDBRANCH   6  14
ENDBRANCH   5   6
ENDBRANCH   1   5
BRANCH   3  15
ATOM     15  C   UNL     1       7.842   5.580  18.724  0.00  0.00    +0.000 C 
BRANCH  15  16
ATOM     16  C   UNL     1       6.457   5.248  18.270  0.00  0.00    +0.000 A 
ATOM     17  C   UNL     1       6.101   4.939  16.974  0.00  0.00    +0.000 A 
ATOM     18  S   UNL     1       4.429   4.653  16.870  0.00  0.00    +0.000 S 
ATOM     19  C   UNL     1       4.253   4.949  18.574  0.00  0.00    +0.000 A 
ATOM     20  N   UNL     1       3.037   4.880  19.186  0.00  0.00    +0.000 N 
ATOM     21  C   UNL     1       2.876   5.146  20.604  0.00  0.00    +0.000 C 
ATOM     22  C   UNL     1       1.891   4.074  21.067  0.00  0.00    +0.000 C 
ATOM     23  C   UNL     1       1.005   3.866  19.849  0.00  0.00    +0.000 C 
ATOM     24  C   UNL     1       1.966   4.031  18.675  0.00  0.00    +0.000 C 
ATOM     25  N   UNL     1       5.390   5.257  19.173  0.00  0.00    +0.000 NA
ENDBRANCH  15  16
ENDBRANCH   3  15
TORSDOF 5
ENDMDL
MODEL 7
REMARK VINA RESULT:      -7.1      6.514      9.965
REMARK  Name = 
REMARK  8 active torsions:
REMARK  status: ('A' for Active; 'I' for Inactive)
REMARK    1  A    between atoms: C_1  and  C_2
REMARK    2  A    between atoms: N_4  and  C_5
REMARK    3  A    between atoms: C_6  and  C_7
REMARK    4  A    between atoms: C_8  and  C_9
REMARK    5  A    between atoms: C_9  and  C_10
REMARK    6  A    between atoms: C_10  and  C_11
REMARK    7  A    between atoms: N_13  and  C_14
REMARK    8  A    between atoms: C_14  and  C_15
REMARK                            x       y       z     vdW  Elec       q    Type
REMARK                         _______ _______ _______ _____ _____    ______ ____
ROOT
ATOM      1  C   UNL     1       1.472   8.877  18.667  0.00  0.00    +0.000 C 
ATOM      2  O   UNL     1       1.433   8.784  19.892  0.00  0.00    +0.000 OA
ATOM      3  N   UNL     1       0.731   9.811  17.973  0.00  0.00    +0.000 N 
ATOM      4  H   UNL     1       0.869   9.956  16.987  0.00  0.00    +0.000 HD
ENDROOT
BRANCH   1   5
ATOM      5  C   UNL     1       2.269   7.883  17.825  0.00  0.00    +0.000 C 
BRANCH   5   6
ATOM      6  C   UNL     1       3.251   7.022  18.614  0.00  0.00    +0.000 C 
BRANCH   6  14
ATOM      7  C   UNL     1       4.760   5.153  16.399  0.00  0.00    +0.000 C 
ATOM      8  C   UNL     1       3.762   4.745  17.418  0.00  0.00    +0.000 A 
ATOM      9  N   UNL     1       3.415   3.459  17.525  0.00  0.00    +0.000 NA
ATOM     10  N   UNL     1       2.546   3.429  18.546  0.00  0.00    +0.000 N 
ATOM     11  C   UNL     1       1.989   2.158  18.948  0.00  0.00    +0.000 C 
ATOM     12  C   UNL     1       2.322   4.660  19.108  0.00  0.00    +0.000 A 
ATOM     13  C   UNL     1       1.436   4.890  20.279  0.00  0.00    +0.000 C 
ATOM     14  C   UNL     1       3.094   5.553  18.383  0.00  0.00    +0.000 A 
ENDBRANCH   6  14
ENDBRANCH   5   6
ENDBRANCH   1   5
BRANCH   3  15
ATOM     15  C   UNL     1      -0.095  10.798  18.638  0.00  0.00    +0.000 C 
BRANCH  15  16
ATOM     16  C   UNL     1      -1.485  10.766  18.089  0.00  0.00    +0.000 A 
ATOM     17  C   UNL     1      -1.856  10.155  16.909  0.00  0.00    +0.000 A 
ATOM     18  S   UNL     1      -3.518  10.370  16.627  0.00  0.00    +0.000 S 
ATOM     19  C   UNL     1      -3.672  11.269  18.107  0.00  0.00    +0.000 A 
ATOM     20  N   UNL     1      -4.869  11.784  18.505  0.00  0.00    +0.000 N 
ATOM     21  C   UNL     1      -5.005  12.554  19.729  0.00  0.00    +0.000 C 
ATOM     22  C   UNL     1      -6.318  12.055  20.330  0.00  0.00    +0.000 C 
ATOM     23  C   UNL     1      -7.157  11.722  19.106  0.00  0.00    +0.000 C 
ATOM     24  C   UNL     1      -6.137  11.177  18.111  0.00  0.00    +0.000 C 
ATOM     25  N   UNL     1      -2.531  11.405  18.760  0.00  0.00    +0.000 NA
ENDBRANCH  15  16
ENDBRANCH   3  15
TORSDOF 5
ENDMDL
MODEL 8
REMARK VINA RESULT:      -7.0      5.382      8.187
REMARK  Name = 
REMARK  8 active torsions:
REMARK  status: ('A' for Active; 'I' for Inactive)
REMARK    1  A    between atoms: C_1  and  C_2
REMARK    2  A    between atoms: N_4  and  C_5
REMARK    3  A    between atoms: C_6  and  C_7
REMARK    4  A    between atoms: C_8  and  C_9
REMARK    5  A    between atoms: C_9  and  C_10
REMARK    6  A    between atoms: C_10  and  C_11
REMARK    7  A    between atoms: N_13  and  C_14
REMARK    8  A    between atoms: C_14  and  C_15
REMARK                            x       y       z     vdW  Elec       q    Type
REMARK                         _______ _______ _______ _____ _____    ______ ____
ROOT
ATOM      1  C   UNL     1       1.572   4.660  18.890  0.00  0.00    +0.000 C 
ATOM      2  O   UNL     1       0.953   4.061  19.769  0.00  0.00    +0.000 OA
ATOM      3  N   UNL     1       2.097   5.920  19.086  0.00  0.00    +0.000 N 
ATOM      4  H   UNL     1       2.704   6.342  18.403  0.00  0.00    +0.000 HD
ENDROOT
BRANCH   1   5
ATOM      5  C   UNL     1       1.701   4.082  17.483  0.00  0.00    +0.000 C 
BRANCH   5   6
ATOM      6  C   UNL     1       2.926   3.198  17.266  0.00  0.00    +0.000 C 
BRANCH   6  14
ATOM      7  C   UNL     1       4.364   2.439  20.100  0.00  0.00    +0.000 C 
ATOM      8  C   UNL     1       4.813   3.414  19.074  0.00  0.00    +0.000 A 
ATOM      9  N   UNL     1       5.960   4.076  19.249  0.00  0.00    +0.000 NA
ATOM     10  N   UNL     1       6.086   4.827  18.145  0.00  0.00    +0.000 N 
ATOM     11  C   UNL     1       7.258   5.661  18.001  0.00  0.00    +0.000 C 
ATOM     12  C   UNL     1       5.054   4.667  17.256  0.00  0.00    +0.000 A 
ATOM     13  C   UNL     1       4.977   5.353  15.940  0.00  0.00    +0.000 C 
ATOM     14  C   UNL     1       4.189   3.757  17.840  0.00  0.00    +0.000 A 
ENDBRANCH   6  14
ENDBRANCH   5   6
ENDBRANCH   1   5
BRANCH   3  15
ATOM     15  C   UNL     1       2.022   6.605  20.361  0.00  0.00    +0.000 C 
BRANCH  15  16
ATOM     16  C   UNL     1       1.534   8.005  20.169  0.00  0.00    +0.000 A 
ATOM     17  C   UNL     1       1.673   8.740  19.011  0.00  0.00    +0.000 A 
ATOM     18  S   UNL     1       1.012  10.293  19.210  0.00  0.00    +0.000 S 
ATOM     19  C   UNL     1       0.558   9.909  20.845  0.00  0.00    +0.000 A 
ATOM     20  N   UNL     1      -0.070  10.820  21.640  0.00  0.00    +0.000 N 
ATOM     21  C   UNL     1      -0.434  10.517  23.013  0.00  0.00    +0.000 C 
ATOM     22  C   UNL     1      -1.824  11.132  23.166  0.00  0.00    +0.000 C 
ATOM     23  C   UNL     1      -1.769  12.348  22.254  0.00  0.00    +0.000 C 
ATOM     24  C   UNL     1      -0.906  11.880  21.086  0.00  0.00    +0.000 C 
ATOM     25  N   UNL     1       0.902   8.687  21.212  0.00  0.00    +0.000 NA
ENDBRANCH  15  16
ENDBRANCH   3  15
TORSDOF 5
ENDMDL
MODEL 9
REMARK VINA RESULT:      -7.0      1.461      1.684
REMARK  Name = 
REMARK  8 active torsions:
REMARK  status: ('A' for Active; 'I' for Inactive)
REMARK    1  A    between atoms: C_1  and  C_2
REMARK    2  A    between atoms: N_4  and  C_5
REMARK    3  A    between atoms: C_6  and  C_7
REMARK    4  A    between atoms: C_8  and  C_9
REMARK    5  A    between atoms: C_9  and  C_10
REMARK    6  A    between atoms: C_10  and  C_11
REMARK    7  A    between atoms: N_13  and  C_14
REMARK    8  A    between atoms: C_14  and  C_15
REMARK                            x       y       z     vdW  Elec       q    Type
REMARK                         _______ _______ _______ _____ _____    ______ ____
ROOT
ATOM      1  C   UNL     1       8.276   8.171  18.105  0.00  0.00    +0.000 C 
ATOM      2  O   UNL     1       8.054   8.218  16.896  0.00  0.00    +0.000 OA
ATOM      3  N   UNL     1       8.016   7.046  18.860  0.00  0.00    +0.000 N 
ATOM      4  H   UNL     1       8.318   6.982  19.818  0.00  0.00    +0.000 HD
ENDROOT
BRANCH   1   5
ATOM      5  C   UNL     1       8.755   9.404  18.867  0.00  0.00    +0.000 C 
BRANCH   5   6
ATOM      6  C   UNL     1       9.608  10.368  18.049  0.00  0.00    +0.000 C 
BRANCH   6  14
ATOM      7  C   UNL     1      11.604  11.891  20.140  0.00  0.00    +0.000 C 
ATOM      8  C   UNL     1      10.426  12.444  19.428  0.00  0.00    +0.000 A 
ATOM      9  N   UNL     1      10.101  13.730  19.586  0.00  0.00    +0.000 NA
ATOM     10  N   UNL     1       9.037  13.909  18.790  0.00  0.00    +0.000 N 
ATOM     11  C   UNL     1       8.444  15.224  18.707  0.00  0.00    +0.000 C 
ATOM     12  C   UNL     1       8.664  12.775  18.115  0.00  0.00    +0.000 A 
ATOM     13  C   UNL     1       7.544  12.718  17.140  0.00  0.00    +0.000 C 
ATOM     14  C   UNL     1       9.545  11.786  18.521  0.00  0.00    +0.000 A 
ENDBRANCH   6  14
ENDBRANCH   5   6
ENDBRANCH   1   5
BRANCH   3  15
ATOM     15  C   UNL     1       7.529   5.812  18.276  0.00  0.00    +0.000 C 
BRANCH  15  16
ATOM     16  C   UNL     1       6.036   5.827  18.205  0.00  0.00    +0.000 A 
ATOM     17  C   UNL     1       5.282   6.799  17.581  0.00  0.00    +0.000 A 
ATOM     18  S   UNL     1       3.625   6.466  17.751  0.00  0.00    +0.000 S 
ATOM     19  C   UNL     1       3.989   5.022  18.650  0.00  0.00    +0.000 A 
ATOM     20  N   UNL     1       3.001   4.218  19.134  0.00  0.00    +0.000 N 
ATOM     21  C   UNL     1       3.294   3.022  19.904  0.00  0.00    +0.000 C 
ATOM     22  C   UNL     1       2.297   1.994  19.372  0.00  0.00    +0.000 C 
ATOM     23  C   UNL     1       1.083   2.837  19.013  0.00  0.00    +0.000 C 
ATOM     24  C   UNL     1       1.693   4.136  18.493  0.00  0.00    +0.000 C 
ATOM     25  N   UNL     1       5.284   4.822  18.818  0.00  0.00    +0.000 NA
ENDBRANCH  15  16
ENDBRANCH   3  15
TORSDOF 5
ENDMDL
