MODEL 1
REMARK VINA RESULT:      -3.7      0.000      0.000
REMARK  Name = 
REMARK  1 active torsions:
REMARK  status: ('A' for Active; 'I' for Inactive)
REMARK    1  A    between atoms: C_1  and  N_2
REMARK                            x       y       z     vdW  Elec       q    Type
REMARK                         _______ _______ _______ _____ _____    ______ ____
ROOT
ATOM      1  C   UNL     1       5.866   5.216  19.171  0.00  0.00    +0.000 C 
ATOM      2  N   UNL     1       6.008   5.152  17.738  0.00  0.00    +0.000 N 
ATOM      3  C   UNL     1       5.124   5.913  16.874  0.00  0.00    +0.000 C 
ATOM      4  C   UNL     1       5.267   5.294  15.483  0.00  0.00    +0.000 C 
ATOM      5  S   UNL     1       7.022   4.805  15.387  0.00  0.00    +0.000 S 
ATOM      6  C   UNL     1       7.116   4.646  17.129  0.00  0.00    +0.000 C 
ATOM      7  N   UNL     1       8.147   4.104  17.657  0.00  0.00    +0.000 NA
ATOM      8  H   UNL     1       8.769   3.850  16.881  0.00  0.00    +0.000 HD
ENDROOT
TORSDOF 0
ENDMDL
MODEL 2
REMARK VINA RESULT:      -3.7      1.714      2.414
REMARK  Name = 
REMARK  1 active torsions:
REMARK  status: ('A' for Active; 'I' for Inactive)
REMARK    1  A    between atoms: C_1  and  N_2
REMARK                            x       y       z     vdW  Elec       q    Type
REMARK                         _______ _______ _______ _____ _____    ______ ____
ROOT
ATOM      1  C   UNL     1       6.991   4.731  14.994  0.00  0.00    +0.000 C 
ATOM      2  N   UNL     1       6.423   5.071  16.274  0.00  0.00    +0.000 N 
ATOM      3  C   UNL     1       5.045   5.515  16.375  0.00  0.00    +0.000 C 
ATOM      4  C   UNL     1       4.921   6.178  17.748  0.00  0.00    +0.000 C 
ATOM      5  S   UNL     1       6.018   5.193  18.823  0.00  0.00    +0.000 S 
ATOM      6  C   UNL     1       7.006   4.724  17.455  0.00  0.00    +0.000 C 
ATOM      7  N   UNL     1       8.122   4.133  17.657  0.00  0.00    +0.000 NA
ATOM      8  H   UNL     1       8.222   4.044  18.675  0.00  0.00    +0.000 HD
ENDROOT
TORSDOF 0
ENDMDL
MODEL 3
REMARK VINA RESULT:      -3.7      4.174      4.494
REMARK  Name = 
REMARK  1 active torsions:
REMARK  status: ('A' for Active; 'I' for Inactive)
REMARK    1  A    between atoms: C_1  and  N_2
REMARK                            x       y       z     vdW  Elec       q    Type
REMARK                         _______ _______ _______ _____ _____    ______ ____
ROOT
ATOM      1  C   UNL     1       2.469   2.762  21.469  0.00  0.00    +0.000 C 
ATOM      2  N   UNL     1       2.697   2.995  20.065  0.00  0.00    +0.000 N 
ATOM      3  C   UNL     1       1.807   3.855  19.306  0.00  0.00    +0.000 C 
ATOM      4  C   UNL     1       2.075   3.537  17.835  0.00  0.00    +0.000 C 
ATOM      5  S   UNL     1       3.864   3.189  17.768  0.00  0.00    +0.000 S 
ATOM      6  C   UNL     1       3.872   2.692  19.448  0.00  0.00    +0.000 C 
ATOM      7  N   UNL     1       4.911   2.122  19.931  0.00  0.00    +0.000 NA
ATOM      8  H   UNL     1       5.593   2.068  19.166  0.00  0.00    +0.000 HD
ENDROOT
TORSDOF 0
ENDMDL
MODEL 4
REMARK VINA RESULT:      -3.7      3.312      3.602
REMARK  Name = 
REMARK  1 active torsions:
REMARK  status: ('A' for Active; 'I' for Inactive)
REMARK    1  A    between atoms: C_1  and  N_2
REMARK                            x       y       z     vdW  Elec       q    Type
REMARK                         _______ _______ _______ _____ _____    ______ ____
ROOT
ATOM      1  C   UNL     1       5.603   4.962  19.063  0.00  0.00    +0.000 C 
ATOM      2  N   UNL     1       4.478   4.161  18.652  0.00  0.00    +0.000 N 
ATOM      3  C   UNL     1       3.679   4.547  17.503  0.00  0.00    +0.000 C 
ATOM      4  C   UNL     1       2.375   3.756  17.619  0.00  0.00    +0.000 C 
ATOM      5  S   UNL     1       2.882   2.155  18.332  0.00  0.00    +0.000 S 
ATOM      6  C   UNL     1       4.277   2.889  19.095  0.00  0.00    +0.000 C 
ATOM      7  N   UNL     1       4.952   2.219  19.950  0.00  0.00    +0.000 NA
ATOM      8  H   UNL     1       4.499   1.301  20.022  0.00  0.00    +0.000 HD
ENDROOT
TORSDOF 0
ENDMDL
MODEL 5
REMARK VINA RESULT:      -3.6      3.833      4.137
REMARK  Name = 
REMARK  1 active torsions:
REMARK  status: ('A' for Active; 'I' for Inactive)
REMARK    1  A    between atoms: C_1  and  N_2
REMARK                            x       y       z     vdW  Elec       q    Type
REMARK                         _______ _______ _______ _____ _____    ______ ____
ROOT
ATOM      1  C   UNL     1       3.515   5.588  19.532  0.00  0.00    +0.000 C 
ATOM      2  N   UNL     1       3.163   4.261  19.093  0.00  0.00    +0.000 N 
ATOM      3  C   UNL     1       1.871   4.005  18.482  0.00  0.00    +0.000 C 
ATOM      4  C   UNL     1       1.675   2.490  18.543  0.00  0.00    +0.000 C 
ATOM      5  S   UNL     1       3.350   1.809  18.302  0.00  0.00    +0.000 S 
ATOM      6  C   UNL     1       4.080   3.266  18.944  0.00  0.00    +0.000 C 
ATOM      7  N   UNL     1       5.332   3.281  19.207  0.00  0.00    +0.000 NA
ATOM      8  H   UNL     1       5.689   2.349  18.963  0.00  0.00    +0.000 HD
ENDROOT
TORSDOF 0
ENDMDL
MODEL 6
REMARK VINA RESULT:      -3.6      3.554      3.869
REMARK  Name = 
REMARK  1 active torsions:
REMARK  status: ('A' for Active; 'I' for Inactive)
REMARK    1  A    between atoms: C_1  and  N_2
REMARK                            x       y       z     vdW  Elec       q    Type
REMARK                         _______ _______ _______ _____ _____    ______ ____
ROOT
ATOM      1  C   UNL     1       2.124   2.070  19.052  0.00  0.00    +0.000 C 
ATOM      2  N   UNL     1       3.067   3.131  18.801  0.00  0.00    +0.000 N 
ATOM      3  C   UNL     1       2.613   4.422  18.317  0.00  0.00    +0.000 C 
ATOM      4  C   UNL     1       3.856   5.122  17.768  0.00  0.00    +0.000 C 
ATOM      5  S   UNL     1       5.201   4.584  18.877  0.00  0.00    +0.000 S 
ATOM      6  C   UNL     1       4.347   3.106  19.265  0.00  0.00    +0.000 C 
ATOM      7  N   UNL     1       4.950   2.180  19.911  0.00  0.00    +0.000 NA
ATOM      8  H   UNL     1       5.900   2.525  20.089  0.00  0.00    +0.000 HD
ENDROOT
TORSDOF 0
ENDMDL
MODEL 7
REMARK VINA RESULT:      -3.6      5.308      6.068
REMARK  Name = 
REMARK  1 active torsions:
REMARK  status: ('A' for Active; 'I' for Inactive)
REMARK    1  A    between atoms: C_1  and  N_2
REMARK                            x       y       z     vdW  Elec       q    Type
REMARK                         _______ _______ _______ _____ _____    ______ ____
ROOT
ATOM      1  C   UNL     1       3.430   1.733  18.199  0.00  0.00    +0.000 C 
ATOM      2  N   UNL     1       2.740   2.495  19.210  0.00  0.00    +0.000 N 
ATOM      3  C   UNL     1       3.276   2.590  20.556  0.00  0.00    +0.000 C 
ATOM      4  C   UNL     1       2.120   3.078  21.430  0.00  0.00    +0.000 C 
ATOM      5  S   UNL     1       1.190   4.218  20.351  0.00  0.00    +0.000 S 
ATOM      6  C   UNL     1       1.753   3.386  18.917  0.00  0.00    +0.000 C 
ATOM      7  N   UNL     1       1.229   3.661  17.782  0.00  0.00    +0.000 NA
ATOM      8  H   UNL     1       0.520   4.382  17.959  0.00  0.00    +0.000 HD
ENDROOT
TORSDOF 0
ENDMDL
MODEL 8
REMARK VINA RESULT:      -3.6      3.651      3.988
REMARK  Name = 
REMARK  1 active torsions:
REMARK  status: ('A' for Active; 'I' for Inactive)
REMARK    1  A    between atoms: C_1  and  N_2
REMARK                            x       y       z     vdW  Elec       q    Type
REMARK                         _______ _______ _______ _____ _____    ______ ____
ROOT
ATOM      1  C   UNL     1       3.376   1.644  18.299  0.00  0.00    +0.000 C 
ATOM      2  N   UNL     1       3.295   3.073  18.470  0.00  0.00    +0.000 N 
ATOM      3  C   UNL     1       2.011   3.749  18.427  0.00  0.00    +0.000 C 
ATOM      4  C   UNL     1       2.327   5.230  18.212  0.00  0.00    +0.000 C 
ATOM      5  S   UNL     1       3.873   5.499  19.144  0.00  0.00    +0.000 S 
ATOM      6  C   UNL     1       4.323   3.816  18.966  0.00  0.00    +0.000 C 
ATOM      7  N   UNL     1       5.501   3.441  19.292  0.00  0.00    +0.000 NA
ATOM      8  H   UNL     1       5.989   4.281  19.625  0.00  0.00    +0.000 HD
ENDROOT
TORSDOF 0
ENDMDL
MODEL 9
REMARK VINA RESULT:      -3.6      4.554      5.088
REMARK  Name = 
REMARK  1 active torsions:
REMARK  status: ('A' for Active; 'I' for Inactive)
REMARK    1  A    between atoms: C_1  and  N_2
REMARK                            x       y       z     vdW  Elec       q    Type
REMARK                         _______ _______ _______ _____ _____    ______ ____
ROOT
ATOM      1  C   UNL     1       3.796   3.567  17.422  0.00  0.00    +0.000 C 
ATOM      2  N   UNL     1       3.108   3.429  18.681  0.00  0.00    +0.000 N 
ATOM      3  C   UNL     1       1.673   3.633  18.764  0.00  0.00    +0.000 C 
ATOM      4  C   UNL     1       1.366   3.832  20.248  0.00  0.00    +0.000 C 
ATOM      5  S   UNL     1       2.541   2.730  21.103  0.00  0.00    +0.000 S 
ATOM      6  C   UNL     1       3.669   2.827  19.767  0.00  0.00    +0.000 C 
ATOM      7  N   UNL     1       4.852   2.359  19.905  0.00  0.00    +0.000 NA
ATOM      8  H   UNL     1       4.904   1.984  20.859  0.00  0.00    +0.000 HD
ENDROOT
TORSDOF 0
ENDMDL
