MODEL 1
REMARK VINA RESULT:      -9.6      0.000      0.000
REMARK  Name = 
REMARK  6 active torsions:
REMARK  status: ('A' for Active; 'I' for Inactive)
REMARK    1  A    between atoms: C_1  and  O_2
REMARK    2  A    between atoms: O_2  and  C_3
REMARK    3  A    between atoms: N_8  and  C_9
REMARK    4  A    between atoms: C_12  and  N_13
REMARK    5  A    between atoms: N_13  and  C_14
REMARK    6  A    between atoms: C_21  and  C_22
REMARK                            x       y       z     vdW  Elec       q    Type
REMARK                         _______ _______ _______ _____ _____    ______ ____
ROOT
ATOM      1  N   UNL     1       2.966   6.119  19.757  0.00  0.00    +0.000 N 
ATOM      2  H   UNL     1       3.698   6.281  20.437  0.00  0.00    +0.000 HD
ENDROOT
BRANCH   1   3
ATOM      3  C   UNL     1       2.468   4.820  19.834  0.00  0.00    +0.000 A 
ATOM      4  N   UNL     1       1.457   4.531  20.690  0.00  0.00    +0.000 NA
ATOM      5  C   UNL     1       1.020   3.261  20.785  0.00  0.00    +0.000 A 
ATOM      6  N   UNL     1       1.451   2.187  20.112  0.00  0.00    +0.000 NA
ATOM      7  C   UNL     1       2.417   2.513  19.244  0.00  0.00    +0.000 A 
ATOM      8  N   UNL     1       3.016   1.624  18.404  0.00  0.00    +0.000 N 
ATOM      9  C   UNL     1       3.927   2.272  17.619  0.00  0.00    +0.000 A 
ATOM     10  C   UNL     1       3.920   3.620  17.953  0.00  0.00    +0.000 A 
ATOM     11  C   UNL     1       2.971   3.773  19.032  0.00  0.00    +0.000 A 
ATOM     12  H   UNL     1       2.786   0.641  18.374  0.00  0.00    +0.000 HD
BRANCH  10  13
ATOM     13  C   UNL     1       4.743   4.691  17.272  0.00  0.00    +0.000 C 
ATOM     14  C   UNL     1       5.129   4.283  15.835  0.00  0.00    +0.000 C 
ATOM     15  C   UNL     1       6.186   5.200  15.240  0.00  0.00    +0.000 C 
ATOM     16  O   UNL     1       7.304   5.326  16.113  0.00  0.00    +0.000 OA
ATOM     17  C   UNL     1       6.939   5.939  17.347  0.00  0.00    +0.000 C 
ATOM     18  C   UNL     1       5.977   5.048  18.113  0.00  0.00    +0.000 C 
ENDBRANCH  10  13
ENDBRANCH   1   3
BRANCH   1  22
ATOM     19  C   UNL     1       1.004   9.969  19.112  0.00  0.00    +0.000 C 
ATOM     20  C   UNL     1       0.739   9.171  20.411  0.00  0.00    +0.000 C 
ATOM     21  C   UNL     1       1.839   8.147  20.730  0.00  0.00    +0.000 C 
ATOM     22  C   UNL     1       2.021   7.206  19.539  0.00  0.00    +0.000 C 
ATOM     23  C   UNL     1       2.530   8.037  18.355  0.00  0.00    +0.000 C 
ATOM     24  C   UNL     1       1.484   9.067  17.948  0.00  0.00    +0.000 C 
BRANCH  19  30
ATOM     25  C   UNL     1      -4.160  11.811  18.779  0.00  0.00    +0.000 C 
ATOM     26  O   UNL     1      -4.645  12.413  19.730  0.00  0.00    +0.000 OA
ATOM     27  N   UNL     1      -2.827  11.854  18.437  0.00  0.00    +0.000 N 
ATOM     28  C   UNL     1      -1.855  12.563  19.265  0.00  0.00    +0.000 C 
ATOM     29  C   UNL     1      -0.745  11.605  19.763  0.00  0.00    +0.000 C 
ATOM     30  N   UNL     1      -0.116  10.835  18.661  0.00  0.00    +0.000 NA
ATOM     31  C   UNL     1      -1.167  10.128  17.889  0.00  0.00    +0.000 C 
ATOM     32  C   UNL     1      -2.239  11.088  17.348  0.00  0.00    +0.000 C 
BRANCH  25  34
ATOM     33  C   UNL     1      -6.251  10.825  18.298  0.00  0.00    +0.000 C 
ATOM     34  O   UNL     1      -4.881  11.016  17.941  0.00  0.00    +0.000 OA
ENDBRANCH  25  34
ENDBRANCH  19  30
ENDBRANCH   1  22
TORSDOF 5
ENDMDL
MODEL 2
REMARK VINA RESULT:      -8.8      0.731      1.090
REMARK  Name = 
REMARK  6 active torsions:
REMARK  status: ('A' for Active; 'I' for Inactive)
REMARK    1  A    between atoms: C_1  and  O_2
REMARK    2  A    between atoms: O_2  and  C_3
REMARK    3  A    between atoms: N_8  and  C_9
REMARK    4  A    between atoms: C_12  and  N_13
REMARK    5  A    between atoms: N_13  and  C_14
REMARK    6  A    between atoms: C_21  and  C_22
REMARK                            x       y       z     vdW  Elec       q    Type
REMARK                         _______ _______ _______ _____ _____    ______ ____
ROOT
ATOM      1  N   UNL     1       2.936   5.985  19.497  0.00  0.00    +0.000 N 
ATOM      2  H   UNL     1       3.719   6.101  20.128  0.00  0.00    +0.000 HD
ENDROOT
BRANCH   1   3
ATOM      3  C   UNL     1       2.390   4.706  19.580  0.00  0.00    +0.000 A 
ATOM      4  N   UNL     1       1.226   4.507  20.248  0.00  0.00    +0.000 NA
ATOM      5  C   UNL     1       0.738   3.258  20.358  0.00  0.00    +0.000 A 
ATOM      6  N   UNL     1       1.252   2.123  19.867  0.00  0.00    +0.000 NA
ATOM      7  C   UNL     1       2.376   2.358  19.176  0.00  0.00    +0.000 A 
ATOM      8  N   UNL     1       3.092   1.392  18.539  0.00  0.00    +0.000 N 
ATOM      9  C   UNL     1       4.157   1.956  17.893  0.00  0.00    +0.000 A 
ATOM     10  C   UNL     1       4.131   3.327  18.113  0.00  0.00    +0.000 A 
ATOM     11  C   UNL     1       3.001   3.586  18.975  0.00  0.00    +0.000 A 
ATOM     12  H   UNL     1       2.840   0.414  18.543  0.00  0.00    +0.000 HD
BRANCH  10  13
ATOM     13  C   UNL     1       5.103   4.322  17.518  0.00  0.00    +0.000 C 
ATOM     14  C   UNL     1       5.929   5.032  18.610  0.00  0.00    +0.000 C 
ATOM     15  C   UNL     1       6.694   6.229  18.067  0.00  0.00    +0.000 C 
ATOM     16  O   UNL     1       5.831   7.106  17.351  0.00  0.00    +0.000 OA
ATOM     17  C   UNL     1       5.277   6.471  16.201  0.00  0.00    +0.000 C 
ATOM     18  C   UNL     1       4.371   5.326  16.615  0.00  0.00    +0.000 C 
ENDBRANCH  10  13
ENDBRANCH   1   3
BRANCH   1  22
ATOM     19  C   UNL     1       1.095   9.932  19.153  0.00  0.00    +0.000 C 
ATOM     20  C   UNL     1       0.814   9.051  20.394  0.00  0.00    +0.000 C 
ATOM     21  C   UNL     1       1.883   7.971  20.626  0.00  0.00    +0.000 C 
ATOM     22  C   UNL     1       2.025   7.115  19.368  0.00  0.00    +0.000 C 
ATOM     23  C   UNL     1       2.551   8.013  18.242  0.00  0.00    +0.000 C 
ATOM     24  C   UNL     1       1.537   9.103  17.922  0.00  0.00    +0.000 C 
BRANCH  19  30
ATOM     25  C   UNL     1      -4.028  11.900  18.922  0.00  0.00    +0.000 C 
ATOM     26  O   UNL     1      -4.523  12.403  19.924  0.00  0.00    +0.000 OA
ATOM     27  N   UNL     1      -2.687  11.954  18.614  0.00  0.00    +0.000 N 
ATOM     28  C   UNL     1      -1.722  12.549  19.534  0.00  0.00    +0.000 C 
ATOM     29  C   UNL     1      -0.639  11.521  19.946  0.00  0.00    +0.000 C 
ATOM     30  N   UNL     1      -0.000  10.864  18.778  0.00  0.00    +0.000 NA
ATOM     31  C   UNL     1      -1.045  10.267  17.912  0.00  0.00    +0.000 C 
ATOM     32  C   UNL     1      -2.089  11.300  17.459  0.00  0.00    +0.000 C 
BRANCH  25  34
ATOM     33  C   UNL     1      -6.005  11.786  17.636  0.00  0.00    +0.000 C 
ATOM     34  O   UNL     1      -4.744  11.215  17.987  0.00  0.00    +0.000 OA
ENDBRANCH  25  34
ENDBRANCH  19  30
ENDBRANCH   1  22
TORSDOF 5
ENDMDL
MODEL 3
REMARK VINA RESULT:      -8.7      1.936      2.594
REMARK  Name = 
REMARK  6 active torsions:
REMARK  status: ('A' for Active; 'I' for Inactive)
REMARK    1  A    between atoms: C_1  and  O_2
REMARK    2  A    between atoms: O_2  and  C_3
REMARK    3  A    between atoms: N_8  and  C_9
REMARK    4  A    between atoms: C_12  and  N_13
REMARK    5  A    between atoms: N_13  and  C_14
REMARK    6  A    between atoms: C_21  and  C_22
REMARK                            x       y       z     vdW  Elec       q    Type
REMARK                         _______ _______ _______ _____ _____    ______ ____
ROOT
ATOM      1  N   UNL     1       3.376   5.963  19.955  0.00  0.00    +0.000 N 
ATOM      2  H   UNL     1       3.857   5.970  20.846  0.00  0.00    +0.000 HD
ENDROOT
BRANCH   1   3
ATOM      3  C   UNL     1       2.580   4.831  19.805  0.00  0.00    +0.000 A 
ATOM      4  N   UNL     1       1.433   4.709  20.520  0.00  0.00    +0.000 NA
ATOM      5  C   UNL     1       0.700   3.586  20.398  0.00  0.00    +0.000 A 
ATOM      6  N   UNL     1       0.941   2.522  19.623  0.00  0.00    +0.000 NA
ATOM      7  C   UNL     1       2.055   2.692  18.897  0.00  0.00    +0.000 A 
ATOM      8  N   UNL     1       2.522   1.783  17.998  0.00  0.00    +0.000 N 
ATOM      9  C   UNL     1       3.649   2.267  17.394  0.00  0.00    +0.000 A 
ATOM     10  C   UNL     1       3.921   3.526  17.912  0.00  0.00    +0.000 A 
ATOM     11  C   UNL     1       2.913   3.789  18.913  0.00  0.00    +0.000 A 
ATOM     12  H   UNL     1       2.071   0.899  17.811  0.00  0.00    +0.000 HD
BRANCH  10  13
ATOM     13  C   UNL     1       5.050   4.427  17.462  0.00  0.00    +0.000 C 
ATOM     14  C   UNL     1       5.581   4.022  16.072  0.00  0.00    +0.000 C 
ATOM     15  C   UNL     1       6.889   4.718  15.729  0.00  0.00    +0.000 C 
ATOM     16  O   UNL     1       7.846   4.551  16.771  0.00  0.00    +0.000 OA
ATOM     17  C   UNL     1       7.411   5.162  17.983  0.00  0.00    +0.000 C 
ATOM     18  C   UNL     1       6.170   4.463  18.512  0.00  0.00    +0.000 C 
ENDBRANCH  10  13
ENDBRANCH   1   3
BRANCH   1  22
ATOM     19  C   UNL     1       0.889   9.290  18.598  0.00  0.00    +0.000 C 
ATOM     20  C   UNL     1       1.917   8.646  17.637  0.00  0.00    +0.000 C 
ATOM     21  C   UNL     1       2.326   7.223  18.048  0.00  0.00    +0.000 C 
ATOM     22  C   UNL     1       2.855   7.239  19.482  0.00  0.00    +0.000 C 
ATOM     23  C   UNL     1       1.701   7.644  20.406  0.00  0.00    +0.000 C 
ATOM     24  C   UNL     1       1.246   9.063  20.088  0.00  0.00    +0.000 C 
BRANCH  19  30
ATOM     25  C   UNL     1      -0.103  14.546  19.845  0.00  0.00    +0.000 C 
ATOM     26  O   UNL     1       0.809  15.242  20.278  0.00  0.00    +0.000 OA
ATOM     27  N   UNL     1       0.072  13.520  18.944  0.00  0.00    +0.000 N 
ATOM     28  C   UNL     1       1.405  13.117  18.503  0.00  0.00    +0.000 C 
ATOM     29  C   UNL     1       1.677  11.631  18.841  0.00  0.00    +0.000 C 
ATOM     30  N   UNL     1       0.606  10.727  18.351  0.00  0.00    +0.000 NA
ATOM     31  C   UNL     1      -0.706  11.191  18.864  0.00  0.00    +0.000 C 
ATOM     32  C   UNL     1      -1.000  12.650  18.480  0.00  0.00    +0.000 C 
BRANCH  25  34
ATOM     33  C   UNL     1      -1.647  14.818  21.610  0.00  0.00    +0.000 C 
ATOM     34  O   UNL     1      -1.406  14.697  20.208  0.00  0.00    +0.000 OA
ENDBRANCH  25  34
ENDBRANCH  19  30
ENDBRANCH   1  22
TORSDOF 5
ENDMDL
MODEL 4
REMARK VINA RESULT:      -8.5      1.557      1.971
REMARK  Name = 
REMARK  6 active torsions:
REMARK  status: ('A' for Active; 'I' for Inactive)
REMARK    1  A    between atoms: C_1  and  O_2
REMARK    2  A    between atoms: O_2  and  C_3
REMARK    3  A    between atoms: N_8  and  C_9
REMARK    4  A    between atoms: C_12  and  N_13
REMARK    5  A    between atoms: N_13  and  C_14
REMARK    6  A    between atoms: C_21  and  C_22
REMARK                            x       y       z     vdW  Elec       q    Type
REMARK                         _______ _______ _______ _____ _____    ______ ____
ROOT
ATOM      1  N   UNL     1       2.931   6.009  19.313  0.00  0.00    +0.000 N 
ATOM      2  H   UNL     1       3.770   6.069  19.877  0.00  0.00    +0.000 HD
ENDROOT
BRANCH   1   3
ATOM      3  C   UNL     1       2.341   4.751  19.395  0.00  0.00    +0.000 A 
ATOM      4  N   UNL     1       1.191   4.585  20.095  0.00  0.00    +0.000 NA
ATOM      5  C   UNL     1       0.660   3.353  20.202  0.00  0.00    +0.000 A 
ATOM      6  N   UNL     1       1.117   2.208  19.681  0.00  0.00    +0.000 NA
ATOM      7  C   UNL     1       2.227   2.411  18.960  0.00  0.00    +0.000 A 
ATOM      8  N   UNL     1       2.888   1.429  18.287  0.00  0.00    +0.000 N 
ATOM      9  C   UNL     1       3.953   1.963  17.618  0.00  0.00    +0.000 A 
ATOM     10  C   UNL     1       3.985   3.330  17.857  0.00  0.00    +0.000 A 
ATOM     11  C   UNL     1       2.892   3.619  18.756  0.00  0.00    +0.000 A 
ATOM     12  H   UNL     1       2.600   0.461  18.286  0.00  0.00    +0.000 HD
BRANCH  10  13
ATOM     13  C   UNL     1       4.975   4.298  17.247  0.00  0.00    +0.000 C 
ATOM     14  C   UNL     1       5.513   3.784  15.896  0.00  0.00    +0.000 C 
ATOM     15  C   UNL     1       6.711   4.587  15.409  0.00  0.00    +0.000 C 
ATOM     16  O   UNL     1       7.710   4.677  16.420  0.00  0.00    +0.000 OA
ATOM     17  C   UNL     1       7.236   5.381  17.564  0.00  0.00    +0.000 C 
ATOM     18  C   UNL     1       6.111   4.608  18.232  0.00  0.00    +0.000 C 
ENDBRANCH  10  13
ENDBRANCH   1   3
BRANCH   1  22
ATOM     19  C   UNL     1       1.235  10.036  19.349  0.00  0.00    +0.000 C 
ATOM     20  C   UNL     1       0.964   9.069  20.526  0.00  0.00    +0.000 C 
ATOM     21  C   UNL     1       1.997   7.937  20.633  0.00  0.00    +0.000 C 
ATOM     22  C   UNL     1       2.061   7.178  19.307  0.00  0.00    +0.000 C 
ATOM     23  C   UNL     1       2.583   8.144  18.236  0.00  0.00    +0.000 C 
ATOM     24  C   UNL     1       1.601   9.292  18.041  0.00  0.00    +0.000 C 
BRANCH  19  30
ATOM     25  C   UNL     1      -2.033  14.337  20.344  0.00  0.00    +0.000 C 
ATOM     26  O   UNL     1      -1.563  15.468  20.307  0.00  0.00    +0.000 OA
ATOM     27  N   UNL     1      -1.597  13.295  19.557  0.00  0.00    +0.000 N 
ATOM     28  C   UNL     1      -0.448  13.446  18.668  0.00  0.00    +0.000 C 
ATOM     29  C   UNL     1       0.666  12.429  19.020  0.00  0.00    +0.000 C 
ATOM     30  N   UNL     1       0.165  11.033  19.089  0.00  0.00    +0.000 NA
ATOM     31  C   UNL     1      -0.980  10.964  20.029  0.00  0.00    +0.000 C 
ATOM     32  C   UNL     1      -2.109  11.935  19.646  0.00  0.00    +0.000 C 
BRANCH  25  34
ATOM     33  C   UNL     1      -2.803  14.162  22.569  0.00  0.00    +0.000 C 
ATOM     34  O   UNL     1      -3.045  13.966  21.176  0.00  0.00    +0.000 OA
ENDBRANCH  25  34
ENDBRANCH  19  30
ENDBRANCH   1  22
TORSDOF 5
ENDMDL
MODEL 5
REMARK VINA RESULT:      -8.3      2.767      3.406
REMARK  Name = 
REMARK  6 active torsions:
REMARK  status: ('A' for Active; 'I' for Inactive)
REMARK    1  A    between atoms: C_1  and  O_2
REMARK    2  A    between atoms: O_2  and  C_3
REMARK    3  A    between atoms: N_8  and  C_9
REMARK    4  A    between atoms: C_12  and  N_13
REMARK    5  A    between atoms: N_13  and  C_14
REMARK    6  A    between atoms: C_21  and  C_22
REMARK                            x       y       z     vdW  Elec       q    Type
REMARK                         _______ _______ _______ _____ _____    ______ ____
ROOT
ATOM      1  N   UNL     1       3.413   5.879  19.825  0.00  0.00    +0.000 N 
ATOM      2  H   UNL     1       4.067   5.721  20.582  0.00  0.00    +0.000 HD
ENDROOT
BRANCH   1   3
ATOM      3  C   UNL     1       2.575   4.785  19.628  0.00  0.00    +0.000 A 
ATOM      4  N   UNL     1       1.427   4.673  20.343  0.00  0.00    +0.000 NA
ATOM      5  C   UNL     1       0.652   3.585  20.173  0.00  0.00    +0.000 A 
ATOM      6  N   UNL     1       0.851   2.549  19.349  0.00  0.00    +0.000 NA
ATOM      7  C   UNL     1       1.968   2.711  18.626  0.00  0.00    +0.000 A 
ATOM      8  N   UNL     1       2.398   1.828  17.683  0.00  0.00    +0.000 N 
ATOM      9  C   UNL     1       3.539   2.296  17.097  0.00  0.00    +0.000 A 
ATOM     10  C   UNL     1       3.860   3.520  17.670  0.00  0.00    +0.000 A 
ATOM     11  C   UNL     1       2.866   3.773  18.688  0.00  0.00    +0.000 A 
ATOM     12  H   UNL     1       1.914   0.970  17.459  0.00  0.00    +0.000 HD
BRANCH  10  13
ATOM     13  C   UNL     1       5.020   4.399  17.255  0.00  0.00    +0.000 C 
ATOM     14  C   UNL     1       5.582   3.986  15.880  0.00  0.00    +0.000 C 
ATOM     15  C   UNL     1       6.914   4.655  15.577  0.00  0.00    +0.000 C 
ATOM     16  O   UNL     1       7.836   4.466  16.646  0.00  0.00    +0.000 OA
ATOM     17  C   UNL     1       7.379   5.083  17.847  0.00  0.00    +0.000 C 
ATOM     18  C   UNL     1       6.110   4.408  18.337  0.00  0.00    +0.000 C 
ENDBRANCH  10  13
ENDBRANCH   1   3
BRANCH   1  22
ATOM     19  C   UNL     1       0.783   9.350  19.469  0.00  0.00    +0.000 C 
ATOM     20  C   UNL     1       1.798   9.027  18.347  0.00  0.00    +0.000 C 
ATOM     21  C   UNL     1       2.264   7.563  18.351  0.00  0.00    +0.000 C 
ATOM     22  C   UNL     1       2.838   7.214  19.724  0.00  0.00    +0.000 C 
ATOM     23  C   UNL     1       1.702   7.313  20.750  0.00  0.00    +0.000 C 
ATOM     24  C   UNL     1       1.194   8.747  20.835  0.00  0.00    +0.000 C 
BRANCH  19  30
ATOM     25  C   UNL     1       1.477  14.579  20.999  0.00  0.00    +0.000 C 
ATOM     26  O   UNL     1       2.292  15.275  20.405  0.00  0.00    +0.000 OA
ATOM     27  N   UNL     1       0.751  13.569  20.410  0.00  0.00    +0.000 N 
ATOM     28  C   UNL     1       0.979  13.182  19.020  0.00  0.00    +0.000 C 
ATOM     29  C   UNL     1       1.389  11.692  18.917  0.00  0.00    +0.000 C 
ATOM     30  N   UNL     1       0.447  10.789  19.624  0.00  0.00    +0.000 NA
ATOM     31  C   UNL     1       0.292  11.236  21.029  0.00  0.00    +0.000 C 
ATOM     32  C   UNL     1      -0.169  12.699  21.130  0.00  0.00    +0.000 C 
BRANCH  25  34
ATOM     33  C   UNL     1       0.685  15.991  22.718  0.00  0.00    +0.000 C 
ATOM     34  O   UNL     1       1.190  14.715  22.323  0.00  0.00    +0.000 OA
ENDBRANCH  25  34
ENDBRANCH  19  30
ENDBRANCH   1  22
TORSDOF 5
ENDMDL
MODEL 6
REMARK VINA RESULT:      -8.3      2.819      3.635
REMARK  Name = 
REMARK  6 active torsions:
REMARK  status: ('A' for Active; 'I' for Inactive)
REMARK    1  A    between atoms: C_1  and  O_2
REMARK    2  A    between atoms: O_2  and  C_3
REMARK    3  A    between atoms: N_8  and  C_9
REMARK    4  A    between atoms: C_12  and  N_13
REMARK    5  A    between atoms: N_13  and  C_14
REMARK    6  A    between atoms: C_21  and  C_22
REMARK                            x       y       z     vdW  Elec       q    Type
REMARK                         _______ _______ _______ _____ _____    ______ ____
ROOT
ATOM      1  N   UNL     1       2.641   5.901  20.586  0.00  0.00    +0.000 N 
ATOM      2  H   UNL     1       2.537   5.754  21.582  0.00  0.00    +0.000 HD
ENDROOT
BRANCH   1   3
ATOM      3  C   UNL     1       2.159   4.822  19.850  0.00  0.00    +0.000 A 
ATOM      4  N   UNL     1       0.918   4.332  20.099  0.00  0.00    +0.000 NA
ATOM      5  C   UNL     1       0.487   3.258  19.411  0.00  0.00    +0.000 A 
ATOM      6  N   UNL     1       1.131   2.574  18.457  0.00  0.00    +0.000 NA
ATOM      7  C   UNL     1       2.334   3.108  18.204  0.00  0.00    +0.000 A 
ATOM      8  N   UNL     1       3.191   2.637  17.257  0.00  0.00    +0.000 N 
ATOM      9  C   UNL     1       4.310   3.420  17.216  0.00  0.00    +0.000 A 
ATOM     10  C   UNL     1       4.177   4.431  18.159  0.00  0.00    +0.000 A 
ATOM     11  C   UNL     1       2.915   4.210  18.827  0.00  0.00    +0.000 A 
ATOM     12  H   UNL     1       2.994   1.837  16.674  0.00  0.00    +0.000 HD
BRANCH  10  13
ATOM     13  C   UNL     1       5.173   5.547  18.386  0.00  0.00    +0.000 C 
ATOM     14  C   UNL     1       5.329   6.434  17.135  0.00  0.00    +0.000 C 
ATOM     15  C   UNL     1       6.522   7.372  17.237  0.00  0.00    +0.000 C 
ATOM     16  O   UNL     1       7.707   6.657  17.576  0.00  0.00    +0.000 OA
ATOM     17  C   UNL     1       7.603   6.052  18.862  0.00  0.00    +0.000 C 
ATOM     18  C   UNL     1       6.523   4.985  18.857  0.00  0.00    +0.000 C 
ENDBRANCH  10  13
ENDBRANCH   1   3
BRANCH   1  22
ATOM     19  C   UNL     1       0.853   9.578  19.044  0.00  0.00    +0.000 C 
ATOM     20  C   UNL     1       1.877   8.795  18.188  0.00  0.00    +0.000 C 
ATOM     21  C   UNL     1       2.018   7.323  18.606  0.00  0.00    +0.000 C 
ATOM     22  C   UNL     1       2.374   7.246  20.090  0.00  0.00    +0.000 C 
ATOM     23  C   UNL     1       1.195   7.813  20.889  0.00  0.00    +0.000 C 
ATOM     24  C   UNL     1       0.998   9.287  20.558  0.00  0.00    +0.000 C 
BRANCH  19  30
ATOM     25  C   UNL     1       2.115  14.870  19.806  0.00  0.00    +0.000 C 
ATOM     26  O   UNL     1       3.223  15.275  19.476  0.00  0.00    +0.000 OA
ATOM     27  N   UNL     1       1.440  13.859  19.159  0.00  0.00    +0.000 N 
ATOM     28  C   UNL     1       2.056  13.116  18.063  0.00  0.00    +0.000 C 
ATOM     29  C   UNL     1       2.129  11.604  18.388  0.00  0.00    +0.000 C 
ATOM     30  N   UNL     1       0.818  11.044  18.804  0.00  0.00    +0.000 NA
ATOM     31  C   UNL     1       0.277  11.838  19.933  0.00  0.00    +0.000 C 
ATOM     32  C   UNL     1       0.153  13.332  19.590  0.00  0.00    +0.000 C 
BRANCH  25  34
ATOM     33  C   UNL     1       1.042  16.740  20.767  0.00  0.00    +0.000 C 
ATOM     34  O   UNL     1       1.413  15.365  20.862  0.00  0.00    +0.000 OA
ENDBRANCH  25  34
ENDBRANCH  19  30
ENDBRANCH   1  22
TORSDOF 5
ENDMDL
MODEL 7
REMARK VINA RESULT:      -8.3      1.266      1.595
REMARK  Name = 
REMARK  6 active torsions:
REMARK  status: ('A' for Active; 'I' for Inactive)
REMARK    1  A    between atoms: C_1  and  O_2
REMARK    2  A    between atoms: O_2  and  C_3
REMARK    3  A    between atoms: N_8  and  C_9
REMARK    4  A    between atoms: C_12  and  N_13
REMARK    5  A    between atoms: N_13  and  C_14
REMARK    6  A    between atoms: C_21  and  C_22
REMARK                            x       y       z     vdW  Elec       q    Type
REMARK                         _______ _______ _______ _____ _____    ______ ____
ROOT
ATOM      1  N   UNL     1       2.943   5.943  19.402  0.00  0.00    +0.000 N 
ATOM      2  H   UNL     1       3.758   6.022  19.997  0.00  0.00    +0.000 HD
ENDROOT
BRANCH   1   3
ATOM      3  C   UNL     1       2.363   4.680  19.484  0.00  0.00    +0.000 A 
ATOM      4  N   UNL     1       1.184   4.516  20.134  0.00  0.00    +0.000 NA
ATOM      5  C   UNL     1       0.661   3.281  20.244  0.00  0.00    +0.000 A 
ATOM      6  N   UNL     1       1.153   2.130  19.769  0.00  0.00    +0.000 NA
ATOM      7  C   UNL     1       2.293   2.331  19.094  0.00  0.00    +0.000 A 
ATOM      8  N   UNL     1       2.993   1.342  18.474  0.00  0.00    +0.000 N 
ATOM      9  C   UNL     1       4.082   1.873  17.842  0.00  0.00    +0.000 A 
ATOM     10  C   UNL     1       4.089   3.245  18.052  0.00  0.00    +0.000 A 
ATOM     11  C   UNL     1       2.953   3.541  18.895  0.00  0.00    +0.000 A 
ATOM     12  H   UNL     1       2.715   0.371  18.481  0.00  0.00    +0.000 HD
BRANCH  10  13
ATOM     13  C   UNL     1       5.096   4.211  17.467  0.00  0.00    +0.000 C 
ATOM     14  C   UNL     1       5.936   4.892  18.567  0.00  0.00    +0.000 C 
ATOM     15  C   UNL     1       6.743   6.066  18.032  0.00  0.00    +0.000 C 
ATOM     16  O   UNL     1       5.913   6.971  17.311  0.00  0.00    +0.000 OA
ATOM     17  C   UNL     1       5.348   6.356  16.156  0.00  0.00    +0.000 C 
ATOM     18  C   UNL     1       4.403   5.239  16.561  0.00  0.00    +0.000 C 
ENDBRANCH  10  13
ENDBRANCH   1   3
BRANCH   1  22
ATOM     19  C   UNL     1       1.209   9.951  19.265  0.00  0.00    +0.000 C 
ATOM     20  C   UNL     1       0.922   9.022  20.469  0.00  0.00    +0.000 C 
ATOM     21  C   UNL     1       1.964   7.904  20.636  0.00  0.00    +0.000 C 
ATOM     22  C   UNL     1       2.063   7.102  19.338  0.00  0.00    +0.000 C 
ATOM     23  C   UNL     1       2.598   8.036  18.246  0.00  0.00    +0.000 C 
ATOM     24  C   UNL     1       1.610   9.167  17.991  0.00  0.00    +0.000 C 
BRANCH  19  30
ATOM     25  C   UNL     1      -3.057  13.276  20.221  0.00  0.00    +0.000 C 
ATOM     26  O   UNL     1      -2.877  14.322  20.835  0.00  0.00    +0.000 OA
ATOM     27  N   UNL     1      -2.124  12.700  19.388  0.00  0.00    +0.000 N 
ATOM     28  C   UNL     1      -0.783  13.261  19.250  0.00  0.00    +0.000 C 
ATOM     29  C   UNL     1       0.297  12.227  19.651  0.00  0.00    +0.000 C 
ATOM     30  N   UNL     1       0.135  10.928  18.950  0.00  0.00    +0.000 NA
ATOM     31  C   UNL     1      -1.240  10.419  19.163  0.00  0.00    +0.000 C 
ATOM     32  C   UNL     1      -2.312  11.425  18.712  0.00  0.00    +0.000 C 
BRANCH  25  34
ATOM     33  C   UNL     1      -4.919  12.638  21.525  0.00  0.00    +0.000 C 
ATOM     34  O   UNL     1      -4.204  12.547  20.292  0.00  0.00    +0.000 OA
ENDBRANCH  25  34
ENDBRANCH  19  30
ENDBRANCH   1  22
TORSDOF 5
ENDMDL
MODEL 8
REMARK VINA RESULT:      -8.2      3.230      4.690
REMARK  Name = 
REMARK  6 active torsions:
REMARK  status: ('A' for Active; 'I' for Inactive)
REMARK    1  A    between atoms: C_1  and  O_2
REMARK    2  A    between atoms: O_2  and  C_3
REMARK    3  A    between atoms: N_8  and  C_9
REMARK    4  A    between atoms: C_12  and  N_13
REMARK    5  A    between atoms: N_13  and  C_14
REMARK    6  A    between atoms: C_21  and  C_22
REMARK                            x       y       z     vdW  Elec       q    Type
REMARK                         _______ _______ _______ _____ _____    ______ ____
ROOT
ATOM      1  N   UNL     1       3.415   7.263  17.254  0.00  0.00    +0.000 N 
ATOM      2  H   UNL     1       3.239   7.428  16.271  0.00  0.00    +0.000 HD
ENDROOT
BRANCH   1   3
ATOM      3  C   UNL     1       4.735   6.883  17.487  0.00  0.00    +0.000 A 
ATOM      4  N   UNL     1       5.749   7.723  17.160  0.00  0.00    +0.000 NA
ATOM      5  C   UNL     1       7.020   7.321  17.349  0.00  0.00    +0.000 A 
ATOM      6  N   UNL     1       7.453   6.157  17.850  0.00  0.00    +0.000 NA
ATOM      7  C   UNL     1       6.429   5.369  18.203  0.00  0.00    +0.000 A 
ATOM      8  N   UNL     1       6.575   4.141  18.773  0.00  0.00    +0.000 N 
ATOM      9  C   UNL     1       5.347   3.611  19.051  0.00  0.00    +0.000 A 
ATOM     10  C   UNL     1       4.374   4.520  18.657  0.00  0.00    +0.000 A 
ATOM     11  C   UNL     1       5.069   5.643  18.072  0.00  0.00    +0.000 A 
ATOM     12  H   UNL     1       7.471   3.718  18.966  0.00  0.00    +0.000 HD
BRANCH  10  13
ATOM     13  C   UNL     1       2.884   4.339  18.850  0.00  0.00    +0.000 C 
ATOM     14  C   UNL     1       2.499   4.351  20.343  0.00  0.00    +0.000 C 
ATOM     15  C   UNL     1       1.069   3.885  20.574  0.00  0.00    +0.000 C 
ATOM     16  O   UNL     1       0.829   2.634  19.936  0.00  0.00    +0.000 OA
ATOM     17  C   UNL     1       0.960   2.735  18.520  0.00  0.00    +0.000 C 
ATOM     18  C   UNL     1       2.394   3.066  18.145  0.00  0.00    +0.000 C 
ENDBRANCH  10  13
ENDBRANCH   1   3
BRANCH   1  22
ATOM     19  C   UNL     1       0.663   9.464  19.837  0.00  0.00    +0.000 C 
ATOM     20  C   UNL     1       1.343  10.175  18.642  0.00  0.00    +0.000 C 
ATOM     21  C   UNL     1       1.845   9.204  17.563  0.00  0.00    +0.000 C 
ATOM     22  C   UNL     1       2.786   8.179  18.196  0.00  0.00    +0.000 C 
ATOM     23  C   UNL     1       1.972   7.342  19.190  0.00  0.00    +0.000 C 
ATOM     24  C   UNL     1       1.455   8.224  20.320  0.00  0.00    +0.000 C 
BRANCH  19  30
ATOM     25  C   UNL     1      -2.504  12.467  23.172  0.00  0.00    +0.000 C 
ATOM     26  O   UNL     1      -3.285  11.901  23.928  0.00  0.00    +0.000 OA
ATOM     27  N   UNL     1      -1.289  11.948  22.788  0.00  0.00    +0.000 N 
ATOM     28  C   UNL     1      -0.877  10.606  23.191  0.00  0.00    +0.000 C 
ATOM     29  C   UNL     1      -0.605   9.712  21.956  0.00  0.00    +0.000 C 
ATOM     30  N   UNL     1       0.330  10.341  20.989  0.00  0.00    +0.000 NA
ATOM     31  C   UNL     1      -0.174  11.684  20.614  0.00  0.00    +0.000 C 
ATOM     32  C   UNL     1      -0.391  12.589  21.838  0.00  0.00    +0.000 C 
BRANCH  25  34
ATOM     33  C   UNL     1      -3.701  14.499  23.287  0.00  0.00    +0.000 C 
ATOM     34  O   UNL     1      -2.746  13.683  22.608  0.00  0.00    +0.000 OA
ENDBRANCH  25  34
ENDBRANCH  19  30
ENDBRANCH   1  22
TORSDOF 5
ENDMDL
MODEL 9
REMARK VINA RESULT:      -8.2      1.405      1.574
REMARK  Name = 
REMARK  6 active torsions:
REMARK  status: ('A' for Active; 'I' for Inactive)
REMARK    1  A    between atoms: C_1  and  O_2
REMARK    2  A    between atoms: O_2  and  C_3
REMARK    3  A    between atoms: N_8  and  C_9
REMARK    4  A    between atoms: C_12  and  N_13
REMARK    5  A    between atoms: N_13  and  C_14
REMARK    6  A    between atoms: C_21  and  C_22
REMARK                            x       y       z     vdW  Elec       q    Type
REMARK                         _______ _______ _______ _____ _____    ______ ____
ROOT
ATOM      1  N   UNL     1       2.641   5.956  20.322  0.00  0.00    +0.000 N 
ATOM      2  H   UNL     1       3.097   5.858  21.220  0.00  0.00    +0.000 HD
ENDROOT
BRANCH   1   3
ATOM      3  C   UNL     1       2.154   4.739  19.853  0.00  0.00    +0.000 A 
ATOM      4  N   UNL     1       0.954   4.276  20.286  0.00  0.00    +0.000 NA
ATOM      5  C   UNL     1       0.521   3.076  19.858  0.00  0.00    +0.000 A 
ATOM      6  N   UNL     1       1.125   2.232  19.013  0.00  0.00    +0.000 NA
ATOM      7  C   UNL     1       2.284   2.736  18.569  0.00  0.00    +0.000 A 
ATOM      8  N   UNL     1       3.093   2.107  17.673  0.00  0.00    +0.000 N 
ATOM      9  C   UNL     1       4.174   2.895  17.393  0.00  0.00    +0.000 A 
ATOM     10  C   UNL     1       4.065   4.071  18.124  0.00  0.00    +0.000 A 
ATOM     11  C   UNL     1       2.862   3.955  18.917  0.00  0.00    +0.000 A 
ATOM     12  H   UNL     1       2.889   1.202  17.275  0.00  0.00    +0.000 HD
BRANCH  10  13
ATOM     13  C   UNL     1       5.029   5.235  18.051  0.00  0.00    +0.000 C 
ATOM     14  C   UNL     1       4.907   5.990  16.712  0.00  0.00    +0.000 C 
ATOM     15  C   UNL     1       6.050   6.970  16.497  0.00  0.00    +0.000 C 
ATOM     16  O   UNL     1       7.311   6.333  16.675  0.00  0.00    +0.000 OA
ATOM     17  C   UNL     1       7.476   5.863  18.011  0.00  0.00    +0.000 C 
ATOM     18  C   UNL     1       6.468   4.768  18.313  0.00  0.00    +0.000 C 
ENDBRANCH  10  13
ENDBRANCH   1   3
BRANCH   1  22
ATOM     19  C   UNL     1       1.118  10.008  19.730  0.00  0.00    +0.000 C 
ATOM     20  C   UNL     1       0.796   9.241  21.035  0.00  0.00    +0.000 C 
ATOM     21  C   UNL     1       1.779   8.096  21.325  0.00  0.00    +0.000 C 
ATOM     22  C   UNL     1       1.822   7.146  20.128  0.00  0.00    +0.000 C 
ATOM     23  C   UNL     1       2.392   7.917  18.932  0.00  0.00    +0.000 C 
ATOM     24  C   UNL     1       1.462   9.062  18.553  0.00  0.00    +0.000 C 
BRANCH  19  30
ATOM     25  C   UNL     1      -2.979  13.620  20.313  0.00  0.00    +0.000 C 
ATOM     26  O   UNL     1      -2.748  14.714  20.814  0.00  0.00    +0.000 OA
ATOM     27  N   UNL     1      -2.076  12.915  19.549  0.00  0.00    +0.000 N 
ATOM     28  C   UNL     1      -0.709  13.392  19.359  0.00  0.00    +0.000 C 
ATOM     29  C   UNL     1       0.319  12.354  19.872  0.00  0.00    +0.000 C 
ATOM     30  N   UNL     1       0.093  10.999  19.309  0.00  0.00    +0.000 NA
ATOM     31  C   UNL     1      -1.306  10.582  19.567  0.00  0.00    +0.000 C 
ATOM     32  C   UNL     1      -2.327  11.586  19.009  0.00  0.00    +0.000 C 
BRANCH  25  34
ATOM     33  C   UNL     1      -4.572  12.709  21.799  0.00  0.00    +0.000 C 
ATOM     34  O   UNL     1      -4.161  12.959  20.454  0.00  0.00    +0.000 OA
ENDBRANCH  25  34
ENDBRANCH  19  30
ENDBRANCH   1  22
TORSDOF 5
ENDMDL
