MODEL 1
REMARK VINA RESULT:      -5.7      0.000      0.000
REMARK  Name = 
REMARK  6 active torsions:
REMARK  status: ('A' for Active; 'I' for Inactive)
REMARK    1  A    between atoms: C_1  and  O_2
REMARK    2  A    between atoms: O_2  and  C_3
REMARK    3  A    between atoms: C_6  and  C_7
REMARK    4  A    between atoms: C_9  and  C_10
REMARK    5  A    between atoms: C_10  and  C_11
REMARK    6  A    between atoms: C_10  and  N_12
REMARK                            x       y       z     vdW  Elec       q    Type
REMARK                         _______ _______ _______ _____ _____    ______ ____
ROOT
ATOM      1  C   UNL     1       6.157   4.611  18.248  0.00  0.00    +0.000 A 
ATOM      2  C   UNL     1       5.240   4.693  19.303  0.00  0.00    +0.000 A 
ATOM      3  C   UNL     1       3.873   4.531  19.078  0.00  0.00    +0.000 A 
ATOM      4  C   UNL     1       3.395   4.283  17.793  0.00  0.00    +0.000 A 
ATOM      5  C   UNL     1       1.930   4.081  17.541  0.00  0.00    +0.000 C 
ATOM      6  C   UNL     1       4.306   4.225  16.730  0.00  0.00    +0.000 A 
ATOM      7  C   UNL     1       5.690   4.406  16.933  0.00  0.00    +0.000 A 
ENDROOT
BRANCH   1   9
ATOM      8  C   UNL     1       7.957   5.815  19.229  0.00  0.00    +0.000 C 
ATOM      9  O   UNL     1       7.514   4.732  18.419  0.00  0.00    +0.000 OA
ENDBRANCH   1   9
BRANCH   7  10
ATOM     10  C   UNL     1       6.602   4.365  15.715  0.00  0.00    +0.000 C 
ATOM     11  C   UNL     1       5.853   4.053  14.415  0.00  0.00    +0.000 C 
BRANCH  10  12
ATOM     12  N   UNL     1       7.393   5.594  15.591  0.00  0.00    +0.000 NA
ATOM     13  H   UNL     1       7.286   6.109  16.466  0.00  0.00    +0.000 HD
ATOM     14  H   UNL     1       6.982   6.184  14.870  0.00  0.00    +0.000 HD
ENDBRANCH  10  12
ENDBRANCH   7  10
TORSDOF 3
ENDMDL
MODEL 2
REMARK VINA RESULT:      -5.6      1.724      1.819
REMARK  Name = 
REMARK  6 active torsions:
REMARK  status: ('A' for Active; 'I' for Inactive)
REMARK    1  A    between atoms: C_1  and  O_2
REMARK    2  A    between atoms: O_2  and  C_3
REMARK    3  A    between atoms: C_6  and  C_7
REMARK    4  A    between atoms: C_9  and  C_10
REMARK    5  A    between atoms: C_10  and  C_11
REMARK    6  A    between atoms: C_10  and  N_12
REMARK                            x       y       z     vdW  Elec       q    Type
REMARK                         _______ _______ _______ _____ _____    ______ ____
ROOT
ATOM      1  C   UNL     1       5.399   6.217  16.864  0.00  0.00    +0.000 A 
ATOM      2  C   UNL     1       4.349   6.926  17.460  0.00  0.00    +0.000 A 
ATOM      3  C   UNL     1       3.181   6.276  17.860  0.00  0.00    +0.000 A 
ATOM      4  C   UNL     1       3.040   4.902  17.673  0.00  0.00    +0.000 A 
ATOM      5  C   UNL     1       1.802   4.186  18.121  0.00  0.00    +0.000 C 
ATOM      6  C   UNL     1       4.079   4.193  17.054  0.00  0.00    +0.000 A 
ATOM      7  C   UNL     1       5.258   4.834  16.624  0.00  0.00    +0.000 A 
ENDROOT
BRANCH   1   9
ATOM      8  C   UNL     1       7.288   7.520  17.484  0.00  0.00    +0.000 C 
ATOM      9  O   UNL     1       6.580   6.802  16.480  0.00  0.00    +0.000 OA
ENDBRANCH   1   9
BRANCH   7  10
ATOM     10  C   UNL     1       6.317   3.991  15.927  0.00  0.00    +0.000 C 
ATOM     11  C   UNL     1       6.378   4.236  14.415  0.00  0.00    +0.000 C 
BRANCH  10  12
ATOM     12  N   UNL     1       7.635   4.160  16.547  0.00  0.00    +0.000 NA
ATOM     13  H   UNL     1       8.236   3.419  16.181  0.00  0.00    +0.000 HD
ATOM     14  H   UNL     1       7.559   3.986  17.547  0.00  0.00    +0.000 HD
ENDBRANCH  10  12
ENDBRANCH   7  10
TORSDOF 3
ENDMDL
MODEL 3
REMARK VINA RESULT:      -5.5      1.773      3.182
REMARK  Name = 
REMARK  6 active torsions:
REMARK  status: ('A' for Active; 'I' for Inactive)
REMARK    1  A    between atoms: C_1  and  O_2
REMARK    2  A    between atoms: O_2  and  C_3
REMARK    3  A    between atoms: C_6  and  C_7
REMARK    4  A    between atoms: C_9  and  C_10
REMARK    5  A    between atoms: C_10  and  C_11
REMARK    6  A    between atoms: C_10  and  N_12
REMARK                            x       y       z     vdW  Elec       q    Type
REMARK                         _______ _______ _______ _____ _____    ______ ____
ROOT
ATOM      1  C   UNL     1       6.291   4.616  16.909  0.00  0.00    +0.000 A 
ATOM      2  C   UNL     1       5.067   4.061  16.515  0.00  0.00    +0.000 A 
ATOM      3  C   UNL     1       3.988   4.007  17.398  0.00  0.00    +0.000 A 
ATOM      4  C   UNL     1       4.111   4.508  18.692  0.00  0.00    +0.000 A 
ATOM      5  C   UNL     1       2.952   4.481  19.643  0.00  0.00    +0.000 C 
ATOM      6  C   UNL     1       5.342   5.042  19.098  0.00  0.00    +0.000 A 
ATOM      7  C   UNL     1       6.451   5.087  18.228  0.00  0.00    +0.000 A 
ENDROOT
BRANCH   1   9
ATOM      8  C   UNL     1       7.092   4.825  14.680  0.00  0.00    +0.000 C 
ATOM      9  O   UNL     1       7.374   4.721  16.071  0.00  0.00    +0.000 OA
ENDBRANCH   1   9
BRANCH   7  10
ATOM     10  C   UNL     1       7.759   5.649  18.766  0.00  0.00    +0.000 C 
ATOM     11  C   UNL     1       8.002   7.104  18.352  0.00  0.00    +0.000 C 
BRANCH  10  12
ATOM     12  N   UNL     1       7.859   5.487  20.220  0.00  0.00    +0.000 NA
ATOM     13  H   UNL     1       8.828   5.243  20.429  0.00  0.00    +0.000 HD
ATOM     14  H   UNL     1       7.303   4.683  20.505  0.00  0.00    +0.000 HD
ENDBRANCH  10  12
ENDBRANCH   7  10
TORSDOF 3
ENDMDL
MODEL 4
REMARK VINA RESULT:      -5.5      1.893      3.474
REMARK  Name = 
REMARK  6 active torsions:
REMARK  status: ('A' for Active; 'I' for Inactive)
REMARK    1  A    between atoms: C_1  and  O_2
REMARK    2  A    between atoms: O_2  and  C_3
REMARK    3  A    between atoms: C_6  and  C_7
REMARK    4  A    between atoms: C_9  and  C_10
REMARK    5  A    between atoms: C_10  and  C_11
REMARK    6  A    between atoms: C_10  and  N_12
REMARK                            x       y       z     vdW  Elec       q    Type
REMARK                         _______ _______ _______ _____ _____    ______ ____
ROOT
ATOM      1  C   UNL     1       6.471   4.613  17.767  0.00  0.00    +0.000 A 
ATOM      2  C   UNL     1       7.382   4.958  16.761  0.00  0.00    +0.000 A 
ATOM      3  C   UNL     1       7.077   4.751  15.415  0.00  0.00    +0.000 A 
ATOM      4  C   UNL     1       5.853   4.194  15.049  0.00  0.00    +0.000 A 
ATOM      5  C   UNL     1       5.500   3.990  13.606  0.00  0.00    +0.000 C 
ATOM      6  C   UNL     1       4.948   3.825  16.053  0.00  0.00    +0.000 A 
ATOM      7  C   UNL     1       5.246   4.007  17.420  0.00  0.00    +0.000 A 
ENDROOT
BRANCH   1   9
ATOM      8  C   UNL     1       7.744   5.746  19.424  0.00  0.00    +0.000 C 
ATOM      9  O   UNL     1       6.709   4.824  19.102  0.00  0.00    +0.000 OA
ENDBRANCH   1   9
BRANCH   7  10
ATOM     10  C   UNL     1       4.220   3.541  18.443  0.00  0.00    +0.000 C 
ATOM     11  C   UNL     1       2.982   2.903  17.804  0.00  0.00    +0.000 C 
BRANCH  10  12
ATOM     12  N   UNL     1       4.821   2.650  19.442  0.00  0.00    +0.000 NA
ATOM     13  H   UNL     1       4.762   3.127  20.343  0.00  0.00    +0.000 HD
ATOM     14  H   UNL     1       5.815   2.550  19.245  0.00  0.00    +0.000 HD
ENDBRANCH  10  12
ENDBRANCH   7  10
TORSDOF 3
ENDMDL
MODEL 5
REMARK VINA RESULT:      -5.4      4.460      5.114
REMARK  Name = 
REMARK  6 active torsions:
REMARK  status: ('A' for Active; 'I' for Inactive)
REMARK    1  A    between atoms: C_1  and  O_2
REMARK    2  A    between atoms: O_2  and  C_3
REMARK    3  A    between atoms: C_6  and  C_7
REMARK    4  A    between atoms: C_9  and  C_10
REMARK    5  A    between atoms: C_10  and  C_11
REMARK    6  A    between atoms: C_10  and  N_12
REMARK                            x       y       z     vdW  Elec       q    Type
REMARK                         _______ _______ _______ _____ _____    ______ ____
ROOT
ATOM      1  C   UNL     1       1.599   4.286  20.067  0.00  0.00    +0.000 A 
ATOM      2  C   UNL     1       1.729   5.557  20.640  0.00  0.00    +0.000 A 
ATOM      3  C   UNL     1       2.223   6.631  19.898  0.00  0.00    +0.000 A 
ATOM      4  C   UNL     1       2.596   6.455  18.567  0.00  0.00    +0.000 A 
ATOM      5  C   UNL     1       3.103   7.605  17.750  0.00  0.00    +0.000 C 
ATOM      6  C   UNL     1       2.490   5.179  17.997  0.00  0.00    +0.000 A 
ATOM      7  C   UNL     1       2.014   4.076  18.735  0.00  0.00    +0.000 A 
ENDROOT
BRANCH   1   9
ATOM      8  C   UNL     1       1.882   2.696  21.811  0.00  0.00    +0.000 C 
ATOM      9  O   UNL     1       1.092   3.204  20.743  0.00  0.00    +0.000 OA
ENDBRANCH   1   9
BRANCH   7  10
ATOM     10  C   UNL     1       1.970   2.719  18.047  0.00  0.00    +0.000 C 
ATOM     11  C   UNL     1       3.176   1.836  18.385  0.00  0.00    +0.000 C 
BRANCH  10  12
ATOM     12  N   UNL     1       0.708   2.020  18.312  0.00  0.00    +0.000 NA
ATOM     13  H   UNL     1       0.358   1.682  17.414  0.00  0.00    +0.000 HD
ATOM     14  H   UNL     1       0.018   2.691  18.643  0.00  0.00    +0.000 HD
ENDBRANCH  10  12
ENDBRANCH   7  10
TORSDOF 3
ENDMDL
MODEL 6
REMARK VINA RESULT:      -5.4      2.584      3.961
REMARK  Name = 
REMARK  6 active torsions:
REMARK  status: ('A' for Active; 'I' for Inactive)
REMARK    1  A    between atoms: C_1  and  O_2
REMARK    2  A    between atoms: O_2  and  C_3
REMARK    3  A    between atoms: C_6  and  C_7
REMARK    4  A    between atoms: C_9  and  C_10
REMARK    5  A    between atoms: C_10  and  C_11
REMARK    6  A    between atoms: C_10  and  N_12
REMARK                            x       y       z     vdW  Elec       q    Type
REMARK                         _______ _______ _______ _____ _____    ______ ____
ROOT
ATOM      1  C   UNL     1       4.300   5.661  17.717  0.00  0.00    +0.000 A 
ATOM      2  C   UNL     1       4.773   6.526  16.722  0.00  0.00    +0.000 A 
ATOM      3  C   UNL     1       5.342   6.026  15.550  0.00  0.00    +0.000 A 
ATOM      4  C   UNL     1       5.449   4.650  15.350  0.00  0.00    +0.000 A 
ATOM      5  C   UNL     1       6.034   4.099  14.084  0.00  0.00    +0.000 C 
ATOM      6  C   UNL     1       4.999   3.782  16.354  0.00  0.00    +0.000 A 
ATOM      7  C   UNL     1       4.440   4.267  17.555  0.00  0.00    +0.000 A 
ENDROOT
BRANCH   1   9
ATOM      8  C   UNL     1       2.557   6.927  18.722  0.00  0.00    +0.000 C 
ATOM      9  O   UNL     1       3.705   6.100  18.874  0.00  0.00    +0.000 OA
ENDBRANCH   1   9
BRANCH   7  10
ATOM     10  C   UNL     1       4.015   3.253  18.606  0.00  0.00    +0.000 C 
ATOM     11  C   UNL     1       3.372   1.999  18.004  0.00  0.00    +0.000 C 
BRANCH  10  12
ATOM     12  N   UNL     1       5.124   2.904  19.500  0.00  0.00    +0.000 NA
ATOM     13  H   UNL     1       5.064   1.900  19.675  0.00  0.00    +0.000 HD
ATOM     14  H   UNL     1       4.979   3.352  20.403  0.00  0.00    +0.000 HD
ENDBRANCH  10  12
ENDBRANCH   7  10
TORSDOF 3
ENDMDL
MODEL 7
REMARK VINA RESULT:      -5.4      1.433      3.088
REMARK  Name = 
REMARK  6 active torsions:
REMARK  status: ('A' for Active; 'I' for Inactive)
REMARK    1  A    between atoms: C_1  and  O_2
REMARK    2  A    between atoms: O_2  and  C_3
REMARK    3  A    between atoms: C_6  and  C_7
REMARK    4  A    between atoms: C_9  and  C_10
REMARK    5  A    between atoms: C_10  and  C_11
REMARK    6  A    between atoms: C_10  and  N_12
REMARK                            x       y       z     vdW  Elec       q    Type
REMARK                         _______ _______ _______ _____ _____    ______ ____
ROOT
ATOM      1  C   UNL     1       5.283   4.122  16.775  0.00  0.00    +0.000 A 
ATOM      2  C   UNL     1       3.923   3.796  16.840  0.00  0.00    +0.000 A 
ATOM      3  C   UNL     1       3.124   4.258  17.887  0.00  0.00    +0.000 A 
ATOM      4  C   UNL     1       3.670   5.059  18.889  0.00  0.00    +0.000 A 
ATOM      5  C   UNL     1       2.818   5.584  20.005  0.00  0.00    +0.000 C 
ATOM      6  C   UNL     1       5.036   5.368  18.840  0.00  0.00    +0.000 A 
ATOM      7  C   UNL     1       5.866   4.893  17.803  0.00  0.00    +0.000 A 
ENDROOT
BRANCH   1   9
ATOM      8  C   UNL     1       5.841   4.273  14.469  0.00  0.00    +0.000 C 
ATOM      9  O   UNL     1       6.106   3.719  15.753  0.00  0.00    +0.000 OA
ENDBRANCH   1   9
BRANCH   7  10
ATOM     10  C   UNL     1       7.345   5.246  17.852  0.00  0.00    +0.000 C 
ATOM     11  C   UNL     1       7.740   5.997  19.127  0.00  0.00    +0.000 C 
BRANCH  10  12
ATOM     12  N   UNL     1       8.189   4.064  17.649  0.00  0.00    +0.000 NA
ATOM     13  H   UNL     1       7.727   3.282  18.115  0.00  0.00    +0.000 HD
ATOM     14  H   UNL     1       9.072   4.196  18.138  0.00  0.00    +0.000 HD
ENDBRANCH  10  12
ENDBRANCH   7  10
TORSDOF 3
ENDMDL
MODEL 8
REMARK VINA RESULT:      -5.3      3.126      4.211
REMARK  Name = 
REMARK  6 active torsions:
REMARK  status: ('A' for Active; 'I' for Inactive)
REMARK    1  A    between atoms: C_1  and  O_2
REMARK    2  A    between atoms: O_2  and  C_3
REMARK    3  A    between atoms: C_6  and  C_7
REMARK    4  A    between atoms: C_9  and  C_10
REMARK    5  A    between atoms: C_10  and  C_11
REMARK    6  A    between atoms: C_10  and  N_12
REMARK                            x       y       z     vdW  Elec       q    Type
REMARK                         _______ _______ _______ _____ _____    ______ ____
ROOT
ATOM      1  C   UNL     1       2.650   4.575  20.131  0.00  0.00    +0.000 A 
ATOM      2  C   UNL     1       2.016   5.712  20.648  0.00  0.00    +0.000 A 
ATOM      3  C   UNL     1       1.986   6.906  19.925  0.00  0.00    +0.000 A 
ATOM      4  C   UNL     1       2.588   6.985  18.671  0.00  0.00    +0.000 A 
ATOM      5  C   UNL     1       2.540   8.254  17.872  0.00  0.00    +0.000 C 
ATOM      6  C   UNL     1       3.244   5.857  18.161  0.00  0.00    +0.000 A 
ATOM      7  C   UNL     1       3.305   4.648  18.884  0.00  0.00    +0.000 A 
ENDROOT
BRANCH   1   9
ATOM      8  C   UNL     1       1.430   2.840  21.204  0.00  0.00    +0.000 C 
ATOM      9  O   UNL     1       2.683   3.369  20.787  0.00  0.00    +0.000 OA
ENDBRANCH   1   9
BRANCH   7  10
ATOM     10  C   UNL     1       4.073   3.486  18.271  0.00  0.00    +0.000 C 
ATOM     11  C   UNL     1       4.598   3.790  16.864  0.00  0.00    +0.000 C 
BRANCH  10  12
ATOM     12  N   UNL     1       5.151   3.025  19.152  0.00  0.00    +0.000 NA
ATOM     13  H   UNL     1       4.893   3.289  20.104  0.00  0.00    +0.000 HD
ATOM     14  H   UNL     1       6.000   3.546  18.941  0.00  0.00    +0.000 HD
ENDBRANCH  10  12
ENDBRANCH   7  10
TORSDOF 3
ENDMDL
MODEL 9
REMARK VINA RESULT:      -5.3      2.466      3.329
REMARK  Name = 
REMARK  6 active torsions:
REMARK  status: ('A' for Active; 'I' for Inactive)
REMARK    1  A    between atoms: C_1  and  O_2
REMARK    2  A    between atoms: O_2  and  C_3
REMARK    3  A    between atoms: C_6  and  C_7
REMARK    4  A    between atoms: C_9  and  C_10
REMARK    5  A    between atoms: C_10  and  C_11
REMARK    6  A    between atoms: C_10  and  N_12
REMARK                            x       y       z     vdW  Elec       q    Type
REMARK                         _______ _______ _______ _____ _____    ______ ____
ROOT
ATOM      1  C   UNL     1       3.809   4.253  17.664  0.00  0.00    +0.000 A 
ATOM      2  C   UNL     1       2.485   4.579  17.984  0.00  0.00    +0.000 A 
ATOM      3  C   UNL     1       2.079   5.910  18.086  0.00  0.00    +0.000 A 
ATOM      4  C   UNL     1       2.989   6.942  17.868  0.00  0.00    +0.000 A 
ATOM      5  C   UNL     1       2.560   8.377  17.948  0.00  0.00    +0.000 C 
ATOM      6  C   UNL     1       4.320   6.621  17.571  0.00  0.00    +0.000 A 
ATOM      7  C   UNL     1       4.756   5.282  17.485  0.00  0.00    +0.000 A 
ENDROOT
BRANCH   1   9
ATOM      8  C   UNL     1       3.402   1.939  18.028  0.00  0.00    +0.000 C 
ATOM      9  O   UNL     1       4.253   2.962  17.523  0.00  0.00    +0.000 OA
ENDBRANCH   1   9
BRANCH   7  10
ATOM     10  C   UNL     1       6.228   5.027  17.197  0.00  0.00    +0.000 C 
ATOM     11  C   UNL     1       7.031   6.316  16.988  0.00  0.00    +0.000 C 
BRANCH  10  12
ATOM     12  N   UNL     1       6.841   4.180  18.226  0.00  0.00    +0.000 NA
ATOM     13  H   UNL     1       7.772   4.557  18.409  0.00  0.00    +0.000 HD
ATOM     14  H   UNL     1       6.989   3.247  17.846  0.00  0.00    +0.000 HD
ENDBRANCH  10  12
ENDBRANCH   7  10
TORSDOF 3
ENDMDL
