MODEL 1
REMARK VINA RESULT:      -9.1      0.000      0.000
REMARK  Name = 
REMARK  7 active torsions:
REMARK  status: ('A' for Active; 'I' for Inactive)
REMARK    1  A    between atoms: C_1  and  C_2
REMARK    2  A    between atoms: C_2  and  N_3
REMARK    3  A    between atoms: C_2  and  C_4
REMARK    4  A    between atoms: N_6  and  C_7
REMARK    5  A    between atoms: C_10  and  C_11
REMARK    6  A    between atoms: N_16  and  C_17
REMARK    7  A    between atoms: C_20  and  N_21
REMARK                            x       y       z     vdW  Elec       q    Type
REMARK                         _______ _______ _______ _____ _____    ______ ____
ROOT
ATOM      1  C   UNL     1      -1.630  10.900  18.778  0.00  0.00    +0.000 A 
ATOM      2  C   UNL     1      -1.990  11.816  19.742  0.00  0.00    +0.000 A 
ATOM      3  C   UNL     1      -1.090  12.004  20.760  0.00  0.00    +0.000 A 
ATOM      4  N   UNL     1       0.090  11.362  20.834  0.00  0.00    +0.000 NA
ATOM      5  C   UNL     1       0.339  10.446  19.887  0.00  0.00    +0.000 A 
ATOM      6  N   UNL     1       1.576   9.811  19.909  0.00  0.00    +0.000 N 
ATOM      7  N   UNL     1      -0.500  10.177  18.875  0.00  0.00    +0.000 NA
ATOM      8  H   UNL     1       2.214  10.264  20.548  0.00  0.00    +0.000 HD
ENDROOT
BRANCH   1  12
ATOM      9  C   UNL     1      -3.917  10.272  15.177  0.00  0.00    +0.000 A 
ATOM     10  C   UNL     1      -2.753   9.548  15.432  0.00  0.00    +0.000 A 
ATOM     11  C   UNL     1      -2.020   9.753  16.596  0.00  0.00    +0.000 A 
ATOM     12  C   UNL     1      -2.415  10.700  17.548  0.00  0.00    +0.000 A 
ATOM     13  C   UNL     1      -3.598  11.415  17.295  0.00  0.00    +0.000 A 
ATOM     14  C   UNL     1      -4.334  11.216  16.116  0.00  0.00    +0.000 A 
BRANCH   9  17
ATOM     15  C   UNL     1      -4.119   9.790  12.759  0.00  0.00    +0.000 C 
ATOM     16  O   UNL     1      -2.939   9.546  12.545  0.00  0.00    +0.000 OA
ATOM     17  N   UNL     1      -4.670  10.087  13.994  0.00  0.00    +0.000 N 
ATOM     18  H   UNL     1      -5.676  10.087  14.094  0.00  0.00    +0.000 HD
BRANCH  15  20
ATOM     19  C   UNL     1      -6.450   9.177  11.926  0.00  0.00    +0.000 C 
ATOM     20  C   UNL     1      -5.108   9.792  11.567  0.00  0.00    +0.000 C 
BRANCH  20  21
ATOM     21  N   UNL     1      -4.504   8.993  10.472  0.00  0.00    +0.000 NA
ATOM     22  H   UNL     1      -3.994   8.221  10.916  0.00  0.00    +0.000 HD
ATOM     23  H   UNL     1      -3.731   9.552  10.093  0.00  0.00    +0.000 HD
ENDBRANCH  20  21
ENDBRANCH  15  20
ENDBRANCH   9  17
ENDBRANCH   1  12
BRANCH   6  24
ATOM     24  C   UNL     1       1.867   8.479  19.586  0.00  0.00    +0.000 A 
ATOM     25  C   UNL     1       2.300   8.162  18.299  0.00  0.00    +0.000 A 
ATOM     26  C   UNL     1       2.585   6.837  17.946  0.00  0.00    +0.000 A 
ATOM     27  C   UNL     1       2.450   5.780  18.855  0.00  0.00    +0.000 A 
ATOM     28  C   UNL     1       1.989   6.108  20.135  0.00  0.00    +0.000 A 
ATOM     29  C   UNL     1       1.699   7.431  20.493  0.00  0.00    +0.000 A 
BRANCH  27  30
ATOM     30  N   UNL     1       2.767   4.484  18.516  0.00  0.00    +0.000 N 
ATOM     31  C   UNL     1       1.776   3.535  17.991  0.00  0.00    +0.000 C 
ATOM     32  C   UNL     1       1.704   2.295  18.889  0.00  0.00    +0.000 C 
ATOM     33  O   UNL     1       3.001   1.696  19.063  0.00  0.00    +0.000 OA
ATOM     34  C   UNL     1       3.902   2.636  19.674  0.00  0.00    +0.000 C 
ATOM     35  C   UNL     1       4.083   3.901  18.815  0.00  0.00    +0.000 C 
ENDBRANCH  27  30
ENDBRANCH   6  24
TORSDOF 6
ENDMDL
MODEL 2
REMARK VINA RESULT:      -9.0      0.551      1.322
REMARK  Name = 
REMARK  7 active torsions:
REMARK  status: ('A' for Active; 'I' for Inactive)
REMARK    1  A    between atoms: C_1  and  C_2
REMARK    2  A    between atoms: C_2  and  N_3
REMARK    3  A    between atoms: C_2  and  C_4
REMARK    4  A    between atoms: N_6  and  C_7
REMARK    5  A    between atoms: C_10  and  C_11
REMARK    6  A    between atoms: N_16  and  C_17
REMARK    7  A    between atoms: C_20  and  N_21
REMARK                            x       y       z     vdW  Elec       q    Type
REMARK                         _______ _______ _______ _____ _____    ______ ____
ROOT
ATOM      1  C   UNL     1      -1.618  11.001  18.928  0.00  0.00    +0.000 A 
ATOM      2  C   UNL     1      -1.927  11.992  19.834  0.00  0.00    +0.000 A 
ATOM      3  C   UNL     1      -1.034  12.169  20.861  0.00  0.00    +0.000 A 
ATOM      4  N   UNL     1       0.094  11.449  20.994  0.00  0.00    +0.000 NA
ATOM      5  C   UNL     1       0.293  10.468  20.102  0.00  0.00    +0.000 A 
ATOM      6  N   UNL     1       1.480   9.747  20.184  0.00  0.00    +0.000 N 
ATOM      7  N   UNL     1      -0.546  10.206  19.088  0.00  0.00    +0.000 NA
ATOM      8  H   UNL     1       2.137  10.187  20.812  0.00  0.00    +0.000 HD
ENDROOT
BRANCH   1  12
ATOM      9  C   UNL     1      -3.875  10.347  15.313  0.00  0.00    +0.000 A 
ATOM     10  C   UNL     1      -2.680   9.671  15.553  0.00  0.00    +0.000 A 
ATOM     11  C   UNL     1      -1.956   9.884  16.723  0.00  0.00    +0.000 A 
ATOM     12  C   UNL     1      -2.393  10.792  17.694  0.00  0.00    +0.000 A 
ATOM     13  C   UNL     1      -3.607  11.459  17.455  0.00  0.00    +0.000 A 
ATOM     14  C   UNL     1      -4.334  11.252  16.272  0.00  0.00    +0.000 A 
BRANCH   9  17
ATOM     15  C   UNL     1      -4.063   9.812  12.905  0.00  0.00    +0.000 C 
ATOM     16  O   UNL     1      -2.887   9.532  12.711  0.00  0.00    +0.000 OA
ATOM     17  N   UNL     1      -4.619  10.154  14.125  0.00  0.00    +0.000 N 
ATOM     18  H   UNL     1      -5.626  10.183  14.214  0.00  0.00    +0.000 HD
BRANCH  15  20
ATOM     19  C   UNL     1      -6.317   9.046  11.993  0.00  0.00    +0.000 C 
ATOM     20  C   UNL     1      -5.037   9.811  11.701  0.00  0.00    +0.000 C 
BRANCH  20  21
ATOM     21  N   UNL     1      -4.350   9.161  10.558  0.00  0.00    +0.000 NA
ATOM     22  H   UNL     1      -3.345   9.323  10.687  0.00  0.00    +0.000 HD
ATOM     23  H   UNL     1      -4.542   9.739   9.733  0.00  0.00    +0.000 HD
ENDBRANCH  20  21
ENDBRANCH  15  20
ENDBRANCH   9  17
ENDBRANCH   1  12
BRANCH   6  24
ATOM     24  C   UNL     1       1.678   8.383  19.938  0.00  0.00    +0.000 A 
ATOM     25  C   UNL     1       1.327   7.449  20.912  0.00  0.00    +0.000 A 
ATOM     26  C   UNL     1       1.527   6.079  20.696  0.00  0.00    +0.000 A 
ATOM     27  C   UNL     1       2.081   5.587  19.508  0.00  0.00    +0.000 A 
ATOM     28  C   UNL     1       2.454   6.536  18.549  0.00  0.00    +0.000 A 
ATOM     29  C   UNL     1       2.260   7.907  18.761  0.00  0.00    +0.000 A 
BRANCH  27  30
ATOM     30  N   UNL     1       2.241   4.238  19.284  0.00  0.00    +0.000 N 
ATOM     31  C   UNL     1       3.172   3.409  20.060  0.00  0.00    +0.000 C 
ATOM     32  C   UNL     1       4.184   2.735  19.127  0.00  0.00    +0.000 C 
ATOM     33  O   UNL     1       3.526   1.993  18.084  0.00  0.00    +0.000 OA
ATOM     34  C   UNL     1       2.708   2.873  17.293  0.00  0.00    +0.000 C 
ATOM     35  C   UNL     1       1.619   3.561  18.137  0.00  0.00    +0.000 C 
ENDBRANCH  27  30
ENDBRANCH   6  24
TORSDOF 6
ENDMDL
MODEL 3
REMARK VINA RESULT:      -8.9      0.608      1.230
REMARK  Name = 
REMARK  7 active torsions:
REMARK  status: ('A' for Active; 'I' for Inactive)
REMARK    1  A    between atoms: C_1  and  C_2
REMARK    2  A    between atoms: C_2  and  N_3
REMARK    3  A    between atoms: C_2  and  C_4
REMARK    4  A    between atoms: N_6  and  C_7
REMARK    5  A    between atoms: C_10  and  C_11
REMARK    6  A    between atoms: N_16  and  C_17
REMARK    7  A    between atoms: C_20  and  N_21
REMARK                            x       y       z     vdW  Elec       q    Type
REMARK                         _______ _______ _______ _____ _____    ______ ____
ROOT
ATOM      1  C   UNL     1      -1.348  10.969  18.528  0.00  0.00    +0.000 A 
ATOM      2  C   UNL     1      -1.562  12.042  19.365  0.00  0.00    +0.000 A 
ATOM      3  C   UNL     1      -0.606  12.259  20.325  0.00  0.00    +0.000 A 
ATOM      4  N   UNL     1       0.496  11.498  20.458  0.00  0.00    +0.000 NA
ATOM      5  C   UNL     1       0.601  10.440  19.641  0.00  0.00    +0.000 A 
ATOM      6  N   UNL     1       1.759   9.673  19.720  0.00  0.00    +0.000 N 
ATOM      7  N   UNL     1      -0.303  10.138  18.697  0.00  0.00    +0.000 NA
ATOM      8  H   UNL     1       2.469  10.129  20.274  0.00  0.00    +0.000 HD
ENDROOT
BRANCH   1  12
ATOM      9  C   UNL     1      -3.848  10.221  15.096  0.00  0.00    +0.000 A 
ATOM     10  C   UNL     1      -4.117  11.270  15.974  0.00  0.00    +0.000 A 
ATOM     11  C   UNL     1      -3.305  11.509  17.079  0.00  0.00    +0.000 A 
ATOM     12  C   UNL     1      -2.199  10.699  17.358  0.00  0.00    +0.000 A 
ATOM     13  C   UNL     1      -1.922   9.653  16.461  0.00  0.00    +0.000 A 
ATOM     14  C   UNL     1      -2.744   9.405  15.350  0.00  0.00    +0.000 A 
BRANCH   9  17
ATOM     15  C   UNL     1      -4.188   9.746  12.693  0.00  0.00    +0.000 C 
ATOM     16  O   UNL     1      -3.008   9.660  12.378  0.00  0.00    +0.000 OA
ATOM     17  N   UNL     1      -4.667   9.955  13.974  0.00  0.00    +0.000 N 
ATOM     18  H   UNL     1      -5.653   9.822  14.156  0.00  0.00    +0.000 HD
BRANCH  15  20
ATOM     19  C   UNL     1      -6.491   8.864  12.046  0.00  0.00    +0.000 C 
ATOM     20  C   UNL     1      -5.264   9.633  11.585  0.00  0.00    +0.000 C 
BRANCH  20  21
ATOM     21  N   UNL     1      -4.663   8.912  10.436  0.00  0.00    +0.000 NA
ATOM     22  H   UNL     1      -3.989   8.243  10.826  0.00  0.00    +0.000 HD
ATOM     23  H   UNL     1      -4.036   9.577   9.968  0.00  0.00    +0.000 HD
ENDBRANCH  20  21
ENDBRANCH  15  20
ENDBRANCH   9  17
ENDBRANCH   1  12
BRANCH   6  24
ATOM     24  C   UNL     1       1.883   8.285  19.577  0.00  0.00    +0.000 A 
ATOM     25  C   UNL     1       2.288   7.753  18.353  0.00  0.00    +0.000 A 
ATOM     26  C   UNL     1       2.408   6.368  18.179  0.00  0.00    +0.000 A 
ATOM     27  C   UNL     1       2.131   5.463  19.212  0.00  0.00    +0.000 A 
ATOM     28  C   UNL     1       1.700   6.008  20.426  0.00  0.00    +0.000 A 
ATOM     29  C   UNL     1       1.574   7.392  20.605  0.00  0.00    +0.000 A 
BRANCH  27  30
ATOM     30  N   UNL     1       2.287   4.104  19.049  0.00  0.00    +0.000 N 
ATOM     31  C   UNL     1       2.495   3.188  20.178  0.00  0.00    +0.000 C 
ATOM     32  C   UNL     1       3.809   2.417  19.998  0.00  0.00    +0.000 C 
ATOM     33  O   UNL     1       3.853   1.744  18.727  0.00  0.00    +0.000 OA
ATOM     34  C   UNL     1       3.748   2.700  17.657  0.00  0.00    +0.000 C 
ATOM     35  C   UNL     1       2.429   3.491  17.721  0.00  0.00    +0.000 C 
ENDBRANCH  27  30
ENDBRANCH   6  24
TORSDOF 6
ENDMDL
MODEL 4
REMARK VINA RESULT:      -8.8      0.806      1.665
REMARK  Name = 
REMARK  7 active torsions:
REMARK  status: ('A' for Active; 'I' for Inactive)
REMARK    1  A    between atoms: C_1  and  C_2
REMARK    2  A    between atoms: C_2  and  N_3
REMARK    3  A    between atoms: C_2  and  C_4
REMARK    4  A    between atoms: N_6  and  C_7
REMARK    5  A    between atoms: C_10  and  C_11
REMARK    6  A    between atoms: N_16  and  C_17
REMARK    7  A    between atoms: C_20  and  N_21
REMARK                            x       y       z     vdW  Elec       q    Type
REMARK                         _______ _______ _______ _____ _____    ______ ____
ROOT
ATOM      1  C   UNL     1      -1.328  10.770  19.305  0.00  0.00    +0.000 A 
ATOM      2  C   UNL     1      -1.605  11.740  20.244  0.00  0.00    +0.000 A 
ATOM      3  C   UNL     1      -0.716  11.844  21.283  0.00  0.00    +0.000 A 
ATOM      4  N   UNL     1       0.381  11.073  21.400  0.00  0.00    +0.000 NA
ATOM      5  C   UNL     1       0.547  10.116  20.475  0.00  0.00    +0.000 A 
ATOM      6  N   UNL     1       1.702   9.345  20.541  0.00  0.00    +0.000 N 
ATOM      7  N   UNL     1      -0.291   9.926  19.445  0.00  0.00    +0.000 NA
ATOM      8  H   UNL     1       2.371   9.734  21.190  0.00  0.00    +0.000 HD
ENDROOT
BRANCH   1  12
ATOM      9  C   UNL     1      -3.593  10.426  15.653  0.00  0.00    +0.000 A 
ATOM     10  C   UNL     1      -3.926  11.367  16.625  0.00  0.00    +0.000 A 
ATOM     11  C   UNL     1      -3.190  11.476  17.802  0.00  0.00    +0.000 A 
ATOM     12  C   UNL     1      -2.099  10.638  18.058  0.00  0.00    +0.000 A 
ATOM     13  C   UNL     1      -1.757   9.702  17.067  0.00  0.00    +0.000 A 
ATOM     14  C   UNL     1      -2.504   9.584  15.884  0.00  0.00    +0.000 A 
BRANCH   9  17
ATOM     15  C   UNL     1      -3.782   9.963  13.230  0.00  0.00    +0.000 C 
ATOM     16  O   UNL     1      -2.615   9.648  13.036  0.00  0.00    +0.000 OA
ATOM     17  N   UNL     1      -4.335  10.290  14.456  0.00  0.00    +0.000 N 
ATOM     18  H   UNL     1      -5.342  10.351  14.539  0.00  0.00    +0.000 HD
BRANCH  15  20
ATOM     19  C   UNL     1      -5.961   9.130  12.199  0.00  0.00    +0.000 C 
ATOM     20  C   UNL     1      -4.747  10.028  12.020  0.00  0.00    +0.000 C 
BRANCH  20  21
ATOM     21  N   UNL     1      -4.003   9.579  10.818  0.00  0.00    +0.000 NA
ATOM     22  H   UNL     1      -4.705   9.276  10.133  0.00  0.00    +0.000 HD
ATOM     23  H   UNL     1      -3.563   8.685  11.062  0.00  0.00    +0.000 HD
ENDBRANCH  20  21
ENDBRANCH  15  20
ENDBRANCH   9  17
ENDBRANCH   1  12
BRANCH   6  24
ATOM     24  C   UNL     1       1.846   7.983  20.247  0.00  0.00    +0.000 A 
ATOM     25  C   UNL     1       1.452   7.030  21.186  0.00  0.00    +0.000 A 
ATOM     26  C   UNL     1       1.597   5.662  20.923  0.00  0.00    +0.000 A 
ATOM     27  C   UNL     1       2.139   5.190  19.720  0.00  0.00    +0.000 A 
ATOM     28  C   UNL     1       2.556   6.156  18.798  0.00  0.00    +0.000 A 
ATOM     29  C   UNL     1       2.417   7.526  19.057  0.00  0.00    +0.000 A 
BRANCH  27  30
ATOM     30  N   UNL     1       2.245   3.844  19.449  0.00  0.00    +0.000 N 
ATOM     31  C   UNL     1       2.915   2.903  20.356  0.00  0.00    +0.000 C 
ATOM     32  C   UNL     1       4.058   2.188  19.624  0.00  0.00    +0.000 C 
ATOM     33  O   UNL     1       3.597   1.556  18.417  0.00  0.00    +0.000 OA
ATOM     34  C   UNL     1       3.043   2.540  17.525  0.00  0.00    +0.000 C 
ATOM     35  C   UNL     1       1.847   3.278  18.153  0.00  0.00    +0.000 C 
ENDBRANCH  27  30
ENDBRANCH   6  24
TORSDOF 6
ENDMDL
MODEL 5
REMARK VINA RESULT:      -8.2      5.314      9.053
REMARK  Name = 
REMARK  7 active torsions:
REMARK  status: ('A' for Active; 'I' for Inactive)
REMARK    1  A    between atoms: C_1  and  C_2
REMARK    2  A    between atoms: C_2  and  N_3
REMARK    3  A    between atoms: C_2  and  C_4
REMARK    4  A    between atoms: N_6  and  C_7
REMARK    5  A    between atoms: C_10  and  C_11
REMARK    6  A    between atoms: N_16  and  C_17
REMARK    7  A    between atoms: C_20  and  N_21
REMARK                            x       y       z     vdW  Elec       q    Type
REMARK                         _______ _______ _______ _____ _____    ______ ____
ROOT
ATOM      1  C   UNL     1       0.689   9.392  21.313  0.00  0.00    +0.000 A 
ATOM      2  C   UNL     1      -0.105   9.201  22.423  0.00  0.00    +0.000 A 
ATOM      3  C   UNL     1      -0.751  10.312  22.901  0.00  0.00    +0.000 A 
ATOM      4  N   UNL     1      -0.653  11.528  22.333  0.00  0.00    +0.000 NA
ATOM      5  C   UNL     1       0.184  11.641  21.291  0.00  0.00    +0.000 A 
ATOM      6  N   UNL     1       0.259  12.873  20.651  0.00  0.00    +0.000 N 
ATOM      7  N   UNL     1       0.878  10.612  20.781  0.00  0.00    +0.000 NA
ATOM      8  H   UNL     1      -0.480  13.493  20.951  0.00  0.00    +0.000 HD
ENDROOT
BRANCH   1  12
ATOM      9  C   UNL     1       2.516   6.090  19.228  0.00  0.00    +0.000 A 
ATOM     10  C   UNL     1       1.920   5.918  20.477  0.00  0.00    +0.000 A 
ATOM     11  C   UNL     1       1.330   6.987  21.145  0.00  0.00    +0.000 A 
ATOM     12  C   UNL     1       1.323   8.274  20.596  0.00  0.00    +0.000 A 
ATOM     13  C   UNL     1       1.908   8.439  19.329  0.00  0.00    +0.000 A 
ATOM     14  C   UNL     1       2.513   7.364  18.658  0.00  0.00    +0.000 A 
BRANCH   9  17
ATOM     15  C   UNL     1       2.450   4.103  17.757  0.00  0.00    +0.000 C 
ATOM     16  O   UNL     1       1.260   4.151  17.475  0.00  0.00    +0.000 OA
ATOM     17  N   UNL     1       3.132   5.020  18.538  0.00  0.00    +0.000 N 
ATOM     18  H   UNL     1       4.143   4.994  18.555  0.00  0.00    +0.000 HD
BRANCH  15  20
ATOM     19  C   UNL     1       3.288   1.730  18.173  0.00  0.00    +0.000 C 
ATOM     20  C   UNL     1       3.294   2.918  17.225  0.00  0.00    +0.000 C 
BRANCH  20  21
ATOM     21  N   UNL     1       4.693   3.387  17.068  0.00  0.00    +0.000 NA
ATOM     22  H   UNL     1       5.212   3.046  17.886  0.00  0.00    +0.000 HD
ATOM     23  H   UNL     1       4.685   4.398  17.243  0.00  0.00    +0.000 HD
ENDBRANCH  20  21
ENDBRANCH  15  20
ENDBRANCH   9  17
ENDBRANCH   1  12
BRANCH   6  24
ATOM     24  C   UNL     1       1.387  13.484  20.088  0.00  0.00    +0.000 A 
ATOM     25  C   UNL     1       2.387  13.985  20.922  0.00  0.00    +0.000 A 
ATOM     26  C   UNL     1       3.519  14.612  20.386  0.00  0.00    +0.000 A 
ATOM     27  C   UNL     1       3.700  14.765  19.006  0.00  0.00    +0.000 A 
ATOM     28  C   UNL     1       2.677  14.283  18.181  0.00  0.00    +0.000 A 
ATOM     29  C   UNL     1       1.541  13.659  18.711  0.00  0.00    +0.000 A 
BRANCH  27  30
ATOM     30  N   UNL     1       4.832  15.348  18.481  0.00  0.00    +0.000 N 
ATOM     31  C   UNL     1       5.884  14.575  17.808  0.00  0.00    +0.000 C 
ATOM     32  C   UNL     1       7.230  14.791  18.510  0.00  0.00    +0.000 C 
ATOM     33  O   UNL     1       7.553  16.189  18.610  0.00  0.00    +0.000 OA
ATOM     34  C   UNL     1       6.541  16.878  19.366  0.00  0.00    +0.000 C 
ATOM     35  C   UNL     1       5.154  16.764  18.707  0.00  0.00    +0.000 C 
ENDBRANCH  27  30
ENDBRANCH   6  24
TORSDOF 6
ENDMDL
MODEL 6
REMARK VINA RESULT:      -8.2      5.309      9.267
REMARK  Name = 
REMARK  7 active torsions:
REMARK  status: ('A' for Active; 'I' for Inactive)
REMARK    1  A    between atoms: C_1  and  C_2
REMARK    2  A    between atoms: C_2  and  N_3
REMARK    3  A    between atoms: C_2  and  C_4
REMARK    4  A    between atoms: N_6  and  C_7
REMARK    5  A    between atoms: C_10  and  C_11
REMARK    6  A    between atoms: N_16  and  C_17
REMARK    7  A    between atoms: C_20  and  N_21
REMARK                            x       y       z     vdW  Elec       q    Type
REMARK                         _______ _______ _______ _____ _____    ______ ____
ROOT
ATOM      1  C   UNL     1       0.691  10.340  19.352  0.00  0.00    +0.000 A 
ATOM      2  C   UNL     1      -0.612  10.323  19.802  0.00  0.00    +0.000 A 
ATOM      3  C   UNL     1      -1.252  11.535  19.841  0.00  0.00    +0.000 A 
ATOM      4  N   UNL     1      -0.679  12.689  19.453  0.00  0.00    +0.000 NA
ATOM      5  C   UNL     1       0.608  12.628  19.083  0.00  0.00    +0.000 A 
ATOM      6  N   UNL     1       1.206  13.797  18.623  0.00  0.00    +0.000 N 
ATOM      7  N   UNL     1       1.318  11.490  19.047  0.00  0.00    +0.000 NA
ATOM      8  H   UNL     1       0.523  14.522  18.455  0.00  0.00    +0.000 HD
ENDROOT
BRANCH   1  12
ATOM      9  C   UNL     1       2.964   6.752  18.616  0.00  0.00    +0.000 A 
ATOM     10  C   UNL     1       2.841   7.744  17.644  0.00  0.00    +0.000 A 
ATOM     11  C   UNL     1       2.107   8.901  17.887  0.00  0.00    +0.000 A 
ATOM     12  C   UNL     1       1.457   9.107  19.110  0.00  0.00    +0.000 A 
ATOM     13  C   UNL     1       1.599   8.113  20.092  0.00  0.00    +0.000 A 
ATOM     14  C   UNL     1       2.331   6.940  19.845  0.00  0.00    +0.000 A 
BRANCH   9  17
ATOM     15  C   UNL     1       3.137   4.386  17.916  0.00  0.00    +0.000 C 
ATOM     16  O   UNL     1       1.979   4.243  17.545  0.00  0.00    +0.000 OA
ATOM     17  N   UNL     1       3.695   5.563  18.384  0.00  0.00    +0.000 N 
ATOM     18  H   UNL     1       4.699   5.623  18.486  0.00  0.00    +0.000 HD
BRANCH  15  20
ATOM     19  C   UNL     1       3.383   1.878  18.310  0.00  0.00    +0.000 C 
ATOM     20  C   UNL     1       4.083   3.160  17.890  0.00  0.00    +0.000 C 
BRANCH  20  21
ATOM     21  N   UNL     1       5.195   3.421  18.837  0.00  0.00    +0.000 NA
ATOM     22  H   UNL     1       5.680   2.527  18.976  0.00  0.00    +0.000 HD
ATOM     23  H   UNL     1       4.768   3.562  19.759  0.00  0.00    +0.000 HD
ENDBRANCH  20  21
ENDBRANCH  15  20
ENDBRANCH   9  17
ENDBRANCH   1  12
BRANCH   6  24
ATOM     24  C   UNL     1       2.525  14.225  18.821  0.00  0.00    +0.000 A 
ATOM     25  C   UNL     1       2.999  14.420  20.118  0.00  0.00    +0.000 A 
ATOM     26  C   UNL     1       4.310  14.860  20.343  0.00  0.00    +0.000 A 
ATOM     27  C   UNL     1       5.196  15.122  19.292  0.00  0.00    +0.000 A 
ATOM     28  C   UNL     1       4.701  14.949  17.994  0.00  0.00    +0.000 A 
ATOM     29  C   UNL     1       3.390  14.513  17.763  0.00  0.00    +0.000 A 
BRANCH  27  30
ATOM     30  N   UNL     1       6.496  15.518  19.518  0.00  0.00    +0.000 N 
ATOM     31  C   UNL     1       7.100  16.679  18.850  0.00  0.00    +0.000 C 
ATOM     32  C   UNL     1       8.351  16.251  18.074  0.00  0.00    +0.000 C 
ATOM     33  O   UNL     1       9.283  15.556  18.922  0.00  0.00    +0.000 OA
ATOM     34  C   UNL     1       8.671  14.374  19.466  0.00  0.00    +0.000 C 
ATOM     35  C   UNL     1       7.429  14.707  20.313  0.00  0.00    +0.000 C 
ENDBRANCH  27  30
ENDBRANCH   6  24
TORSDOF 6
ENDMDL
MODEL 7
REMARK VINA RESULT:      -8.2      5.318      9.248
REMARK  Name = 
REMARK  7 active torsions:
REMARK  status: ('A' for Active; 'I' for Inactive)
REMARK    1  A    between atoms: C_1  and  C_2
REMARK    2  A    between atoms: C_2  and  N_3
REMARK    3  A    between atoms: C_2  and  C_4
REMARK    4  A    between atoms: N_6  and  C_7
REMARK    5  A    between atoms: C_10  and  C_11
REMARK    6  A    between atoms: N_16  and  C_17
REMARK    7  A    between atoms: C_20  and  N_21
REMARK                            x       y       z     vdW  Elec       q    Type
REMARK                         _______ _______ _______ _____ _____    ______ ____
ROOT
ATOM      1  C   UNL     1       0.666  10.367  19.327  0.00  0.00    +0.000 A 
ATOM      2  C   UNL     1      -0.649  10.341  19.741  0.00  0.00    +0.000 A 
ATOM      3  C   UNL     1      -1.296  11.550  19.770  0.00  0.00    +0.000 A 
ATOM      4  N   UNL     1      -0.718  12.709  19.405  0.00  0.00    +0.000 NA
ATOM      5  C   UNL     1       0.579  12.656  19.069  0.00  0.00    +0.000 A 
ATOM      6  N   UNL     1       1.183  13.831  18.633  0.00  0.00    +0.000 N 
ATOM      7  N   UNL     1       1.295  11.522  19.046  0.00  0.00    +0.000 NA
ATOM      8  H   UNL     1       0.502  14.553  18.451  0.00  0.00    +0.000 HD
ENDROOT
BRANCH   1  12
ATOM      9  C   UNL     1       2.920   6.750  18.682  0.00  0.00    +0.000 A 
ATOM     10  C   UNL     1       2.270   6.992  19.890  0.00  0.00    +0.000 A 
ATOM     11  C   UNL     1       1.541   8.160  20.093  0.00  0.00    +0.000 A 
ATOM     12  C   UNL     1       1.445   9.140  19.098  0.00  0.00    +0.000 A 
ATOM     13  C   UNL     1       2.088   8.883  17.875  0.00  0.00    +0.000 A 
ATOM     14  C   UNL     1       2.831   7.709  17.672  0.00  0.00    +0.000 A 
BRANCH   9  17
ATOM     15  C   UNL     1       3.157   4.404  17.934  0.00  0.00    +0.000 C 
ATOM     16  O   UNL     1       2.022   4.258  17.500  0.00  0.00    +0.000 OA
ATOM     17  N   UNL     1       3.676   5.574  18.459  0.00  0.00    +0.000 N 
ATOM     18  H   UNL     1       4.673   5.642  18.615  0.00  0.00    +0.000 HD
BRANCH  15  20
ATOM     19  C   UNL     1       3.424   1.899  18.331  0.00  0.00    +0.000 C 
ATOM     20  C   UNL     1       4.118   3.189  17.927  0.00  0.00    +0.000 C 
BRANCH  20  21
ATOM     21  N   UNL     1       5.206   3.461  18.899  0.00  0.00    +0.000 NA
ATOM     22  H   UNL     1       4.754   3.728  19.781  0.00  0.00    +0.000 HD
ATOM     23  H   UNL     1       5.635   4.350  18.617  0.00  0.00    +0.000 HD
ENDBRANCH  20  21
ENDBRANCH  15  20
ENDBRANCH   9  17
ENDBRANCH   1  12
BRANCH   6  24
ATOM     24  C   UNL     1       2.495  14.264  18.870  0.00  0.00    +0.000 A 
ATOM     25  C   UNL     1       3.330  14.553  17.791  0.00  0.00    +0.000 A 
ATOM     26  C   UNL     1       4.649  14.975  18.000  0.00  0.00    +0.000 A 
ATOM     27  C   UNL     1       5.187  15.126  19.284  0.00  0.00    +0.000 A 
ATOM     28  C   UNL     1       4.348  14.806  20.357  0.00  0.00    +0.000 A 
ATOM     29  C   UNL     1       3.029  14.380  20.155  0.00  0.00    +0.000 A 
BRANCH  27  30
ATOM     30  N   UNL     1       6.472  15.577  19.486  0.00  0.00    +0.000 N 
ATOM     31  C   UNL     1       7.068  16.657  18.688  0.00  0.00    +0.000 C 
ATOM     32  C   UNL     1       8.347  16.162  18.001  0.00  0.00    +0.000 C 
ATOM     33  O   UNL     1       9.272  15.604  18.951  0.00  0.00    +0.000 OA
ATOM     34  C   UNL     1       8.671  14.487  19.630  0.00  0.00    +0.000 C 
ATOM     35  C   UNL     1       7.401  14.897  20.399  0.00  0.00    +0.000 C 
ENDBRANCH  27  30
ENDBRANCH   6  24
TORSDOF 6
ENDMDL
MODEL 8
REMARK VINA RESULT:      -8.0      5.146      9.002
REMARK  Name = 
REMARK  7 active torsions:
REMARK  status: ('A' for Active; 'I' for Inactive)
REMARK    1  A    between atoms: C_1  and  C_2
REMARK    2  A    between atoms: C_2  and  N_3
REMARK    3  A    between atoms: C_2  and  C_4
REMARK    4  A    between atoms: N_6  and  C_7
REMARK    5  A    between atoms: C_10  and  C_11
REMARK    6  A    between atoms: N_16  and  C_17
REMARK    7  A    between atoms: C_20  and  N_21
REMARK                            x       y       z     vdW  Elec       q    Type
REMARK                         _______ _______ _______ _____ _____    ______ ____
ROOT
ATOM      1  C   UNL     1       0.718   9.834  20.840  0.00  0.00    +0.000 A 
ATOM      2  C   UNL     1      -0.228   9.704  21.833  0.00  0.00    +0.000 A 
ATOM      3  C   UNL     1      -0.833  10.864  22.245  0.00  0.00    +0.000 A 
ATOM      4  N   UNL     1      -0.556  12.071  21.719  0.00  0.00    +0.000 NA
ATOM      5  C   UNL     1       0.417  12.119  20.798  0.00  0.00    +0.000 A 
ATOM      6  N   UNL     1       0.682  13.346  20.199  0.00  0.00    +0.000 N 
ATOM      7  N   UNL     1       1.081  11.038  20.363  0.00  0.00    +0.000 NA
ATOM      8  H   UNL     1      -0.034  14.025  20.412  0.00  0.00    +0.000 HD
ENDROOT
BRANCH   1  12
ATOM      9  C   UNL     1       2.572   6.455  18.908  0.00  0.00    +0.000 A 
ATOM     10  C   UNL     1       2.375   7.658  18.232  0.00  0.00    +0.000 A 
ATOM     11  C   UNL     1       1.778   8.746  18.861  0.00  0.00    +0.000 A 
ATOM     12  C   UNL     1       1.343   8.671  20.189  0.00  0.00    +0.000 A 
ATOM     13  C   UNL     1       1.558   7.462  20.872  0.00  0.00    +0.000 A 
ATOM     14  C   UNL     1       2.152   6.359  20.236  0.00  0.00    +0.000 A 
BRANCH   9  17
ATOM     15  C   UNL     1       2.453   4.318  17.668  0.00  0.00    +0.000 C 
ATOM     16  O   UNL     1       1.242   4.304  17.488  0.00  0.00    +0.000 OA
ATOM     17  N   UNL     1       3.165   5.332  18.284  0.00  0.00    +0.000 N 
ATOM     18  H   UNL     1       4.174   5.335  18.214  0.00  0.00    +0.000 HD
BRANCH  15  20
ATOM     19  C   UNL     1       3.108   1.889  18.085  0.00  0.00    +0.000 C 
ATOM     20  C   UNL     1       3.290   3.105  17.192  0.00  0.00    +0.000 C 
BRANCH  20  21
ATOM     21  N   UNL     1       4.721   3.498  17.219  0.00  0.00    +0.000 NA
ATOM     22  H   UNL     1       5.129   3.190  16.329  0.00  0.00    +0.000 HD
ATOM     23  H   UNL     1       5.186   2.867  17.882  0.00  0.00    +0.000 HD
ENDBRANCH  20  21
ENDBRANCH  15  20
ENDBRANCH   9  17
ENDBRANCH   1  12
BRANCH   6  24
ATOM     24  C   UNL     1       1.923  13.860  19.801  0.00  0.00    +0.000 A 
ATOM     25  C   UNL     1       2.224  13.960  18.443  0.00  0.00    +0.000 A 
ATOM     26  C   UNL     1       3.463  14.459  18.019  0.00  0.00    +0.000 A 
ATOM     27  C   UNL     1       4.446  14.874  18.925  0.00  0.00    +0.000 A 
ATOM     28  C   UNL     1       4.143  14.743  20.285  0.00  0.00    +0.000 A 
ATOM     29  C   UNL     1       2.907  14.242  20.715  0.00  0.00    +0.000 A 
BRANCH  27  30
ATOM     30  N   UNL     1       5.647  15.399  18.504  0.00  0.00    +0.000 N 
ATOM     31  C   UNL     1       6.648  14.607  17.776  0.00  0.00    +0.000 C 
ATOM     32  C   UNL     1       7.979  14.609  18.536  0.00  0.00    +0.000 C 
ATOM     33  O   UNL     1       8.429  15.949  18.807  0.00  0.00    +0.000 OA
ATOM     34  C   UNL     1       7.457  16.643  19.609  0.00  0.00    +0.000 C 
ATOM     35  C   UNL     1       6.092  16.742  18.903  0.00  0.00    +0.000 C 
ENDBRANCH  27  30
ENDBRANCH   6  24
TORSDOF 6
ENDMDL
MODEL 9
REMARK VINA RESULT:      -7.9      5.571      9.268
REMARK  Name = 
REMARK  7 active torsions:
REMARK  status: ('A' for Active; 'I' for Inactive)
REMARK    1  A    between atoms: C_1  and  C_2
REMARK    2  A    between atoms: C_2  and  N_3
REMARK    3  A    between atoms: C_2  and  C_4
REMARK    4  A    between atoms: N_6  and  C_7
REMARK    5  A    between atoms: C_10  and  C_11
REMARK    6  A    between atoms: N_16  and  C_17
REMARK    7  A    between atoms: C_20  and  N_21
REMARK                            x       y       z     vdW  Elec       q    Type
REMARK                         _______ _______ _______ _____ _____    ______ ____
ROOT
ATOM      1  C   UNL     1       0.761   9.471  21.302  0.00  0.00    +0.000 A 
ATOM      2  C   UNL     1      -0.017   9.261  22.419  0.00  0.00    +0.000 A 
ATOM      3  C   UNL     1      -0.651  10.365  22.929  0.00  0.00    +0.000 A 
ATOM      4  N   UNL     1      -0.554  11.592  22.385  0.00  0.00    +0.000 NA
ATOM      5  C   UNL     1       0.267  11.723  21.334  0.00  0.00    +0.000 A 
ATOM      6  N   UNL     1       0.338  12.968  20.718  0.00  0.00    +0.000 N 
ATOM      7  N   UNL     1       0.948  10.701  20.792  0.00  0.00    +0.000 NA
ATOM      8  H   UNL     1      -0.393  13.584  21.042  0.00  0.00    +0.000 HD
ENDROOT
BRANCH   1  12
ATOM      9  C   UNL     1       2.540   6.205  19.122  0.00  0.00    +0.000 A 
ATOM     10  C   UNL     1       1.998   6.018  20.392  0.00  0.00    +0.000 A 
ATOM     11  C   UNL     1       1.422   7.075  21.091  0.00  0.00    +0.000 A 
ATOM     12  C   UNL     1       1.378   8.365  20.551  0.00  0.00    +0.000 A 
ATOM     13  C   UNL     1       1.910   8.546  19.263  0.00  0.00    +0.000 A 
ATOM     14  C   UNL     1       2.499   7.482  18.560  0.00  0.00    +0.000 A 
BRANCH   9  17
ATOM     15  C   UNL     1       4.480   4.811  18.481  0.00  0.00    +0.000 C 
ATOM     16  O   UNL     1       5.294   5.305  19.251  0.00  0.00    +0.000 OA
ATOM     17  N   UNL     1       3.140   5.146  18.400  0.00  0.00    +0.000 N 
ATOM     18  H   UNL     1       2.517   4.553  17.867  0.00  0.00    +0.000 HD
BRANCH  15  20
ATOM     19  C   UNL     1       4.892   4.195  16.041  0.00  0.00    +0.000 C 
ATOM     20  C   UNL     1       4.961   3.726  17.485  0.00  0.00    +0.000 C 
BRANCH  20  21
ATOM     21  N   UNL     1       4.079   2.543  17.638  0.00  0.00    +0.000 NA
ATOM     22  H   UNL     1       3.164   2.805  17.253  0.00  0.00    +0.000 HD
ATOM     23  H   UNL     1       3.862   2.466  18.638  0.00  0.00    +0.000 HD
ENDBRANCH  20  21
ENDBRANCH  15  20
ENDBRANCH   9  17
ENDBRANCH   1  12
BRANCH   6  24
ATOM     24  C   UNL     1       1.461  13.585  20.151  0.00  0.00    +0.000 A 
ATOM     25  C   UNL     1       2.487  14.041  20.978  0.00  0.00    +0.000 A 
ATOM     26  C   UNL     1       3.615  14.673  20.438  0.00  0.00    +0.000 A 
ATOM     27  C   UNL     1       3.765  14.876  19.060  0.00  0.00    +0.000 A 
ATOM     28  C   UNL     1       2.716  14.439  18.244  0.00  0.00    +0.000 A 
ATOM     29  C   UNL     1       1.584  13.809  18.778  0.00  0.00    +0.000 A 
BRANCH  27  30
ATOM     30  N   UNL     1       4.891  15.464  18.530  0.00  0.00    +0.000 N 
ATOM     31  C   UNL     1       5.918  14.702  17.807  0.00  0.00    +0.000 C 
ATOM     32  C   UNL     1       7.282  14.878  18.485  0.00  0.00    +0.000 C 
ATOM     33  O   UNL     1       7.625  16.268  18.625  0.00  0.00    +0.000 OA
ATOM     34  C   UNL     1       6.639  16.942  19.428  0.00  0.00    +0.000 C 
ATOM     35  C   UNL     1       5.236  16.867  18.798  0.00  0.00    +0.000 C 
ENDBRANCH  27  30
ENDBRANCH   6  24
TORSDOF 6
ENDMDL
