MODEL 1
REMARK VINA RESULT:      -8.4      0.000      0.000
REMARK  Name = 
REMARK  6 active torsions:
REMARK  status: ('A' for Active; 'I' for Inactive)
REMARK    1  A    between atoms: C_2  and  C_22
REMARK    2  A    between atoms: N_3  and  C_4
REMARK    3  A    between atoms: C_4  and  C_5
REMARK    4  A    between atoms: C_11  and  C_12
REMARK    5  A    between atoms: C_12  and  C_13
REMARK    6  A    between atoms: C_15  and  C_16
REMARK                            x       y       z     vdW  Elec       q    Type
REMARK                         _______ _______ _______ _____ _____    ______ ____
ROOT
ATOM      1  C   UNL     1       4.077   3.018  18.271  0.00  0.00    +0.000 C 
ATOM      2  O   UNL     1       3.807   2.050  17.550  0.00  0.00    +0.000 OA
ATOM      3  N   UNL     1       3.305   3.328  19.386  0.00  0.00    +0.000 N 
ATOM      4  C   UNL     1       2.280   2.377  19.813  0.00  0.00    +0.000 C 
ATOM      5  C   UNL     1       0.892   2.984  19.649  0.00  0.00    +0.000 C 
ATOM      6  C   UNL     1       0.795   4.319  20.385  0.00  0.00    +0.000 C 
ATOM      7  C   UNL     1       1.922   5.302  19.981  0.00  0.00    +0.000 C 
ATOM      8  C   UNL     1       3.297   4.609  20.103  0.00  0.00    +0.000 C 
ENDROOT
BRANCH   1   9
ATOM      9  C   UNL     1       5.248   3.926  17.877  0.00  0.00    +0.000 C 
BRANCH   9  12
ATOM     10  O   UNL     1       6.677   5.791  16.378  0.00  0.00    +0.000 OA
ATOM     11  C   UNL     1       6.337   4.747  15.830  0.00  0.00    +0.000 C 
ATOM     12  N   UNL     1       5.649   3.748  16.488  0.00  0.00    +0.000 N 
ATOM     13  H   UNL     1       5.527   2.837  16.067  0.00  0.00    +0.000 HD
BRANCH  11  14
ATOM     14  C   UNL     1       6.587   4.556  14.371  0.00  0.00    +0.000 A 
ATOM     15  C   UNL     1       7.603   5.209  13.682  0.00  0.00    +0.000 A 
ATOM     16  C   UNL     1       7.780   4.957  12.313  0.00  0.00    +0.000 A 
ATOM     17  C   UNL     1       6.992   4.013  11.650  0.00  0.00    +0.000 A 
ATOM     18  C   UNL     1       5.976   3.363  12.331  0.00  0.00    +0.000 A 
ATOM     19  C   UNL     1       5.740   3.695  13.663  0.00  0.00    +0.000 A 
ENDBRANCH  11  14
ENDBRANCH   9  12
ENDBRANCH   1   9
BRANCH   7  20
ATOM     20  C   UNL     1       1.791   6.563  20.856  0.00  0.00    +0.000 C 
BRANCH  20  21
ATOM     21  C   UNL     1       1.637   7.859  20.152  0.00  0.00    +0.000 A 
ATOM     22  N   UNL     1       0.953   8.943  20.439  0.00  0.00    +0.000 NA
ATOM     23  C   UNL     1       1.044   9.646  19.255  0.00  0.00    +0.000 A 
ATOM     24  N   UNL     1       1.810   9.094  18.323  0.00  0.00    +0.000 NA
ATOM     25  O   UNL     1       2.244   7.923  18.930  0.00  0.00    +0.000 OA
BRANCH  23  26
ATOM     26  C   UNL     1       0.233  10.905  18.980  0.00  0.00    +0.000 C 
ATOM     27  C   UNL     1      -1.039  10.704  18.203  0.00  0.00    +0.000 C 
ATOM     28  C   UNL     1      -1.100  11.076  19.652  0.00  0.00    +0.000 C 
ENDBRANCH  23  26
ENDBRANCH  20  21
ENDBRANCH   7  20
TORSDOF 6
ENDMDL
MODEL 2
REMARK VINA RESULT:      -8.1      1.839      8.899
REMARK  Name = 
REMARK  6 active torsions:
REMARK  status: ('A' for Active; 'I' for Inactive)
REMARK    1  A    between atoms: C_2  and  C_22
REMARK    2  A    between atoms: N_3  and  C_4
REMARK    3  A    between atoms: C_4  and  C_5
REMARK    4  A    between atoms: C_11  and  C_12
REMARK    5  A    between atoms: C_12  and  C_13
REMARK    6  A    between atoms: C_15  and  C_16
REMARK                            x       y       z     vdW  Elec       q    Type
REMARK                         _______ _______ _______ _____ _____    ______ ____
ROOT
ATOM      1  C   UNL     1       2.187   5.956  19.765  0.00  0.00    +0.000 C 
ATOM      2  O   UNL     1       1.382   5.551  20.611  0.00  0.00    +0.000 OA
ATOM      3  N   UNL     1       3.008   5.076  19.067  0.00  0.00    +0.000 N 
ATOM      4  C   UNL     1       2.769   3.640  19.203  0.00  0.00    +0.000 C 
ATOM      5  C   UNL     1       3.949   2.969  19.894  0.00  0.00    +0.000 C 
ATOM      6  C   UNL     1       5.253   3.279  19.160  0.00  0.00    +0.000 C 
ATOM      7  C   UNL     1       5.472   4.799  18.956  0.00  0.00    +0.000 C 
ATOM      8  C   UNL     1       4.218   5.433  18.316  0.00  0.00    +0.000 C 
ENDROOT
BRANCH   1   9
ATOM      9  C   UNL     1       2.322   7.467  19.539  0.00  0.00    +0.000 C 
BRANCH   9  12
ATOM     10  O   UNL     1       1.269   9.958  18.867  0.00  0.00    +0.000 OA
ATOM     11  C   UNL     1       0.965   9.476  19.953  0.00  0.00    +0.000 C 
ATOM     12  N   UNL     1       1.410   8.239  20.372  0.00  0.00    +0.000 N 
ATOM     13  H   UNL     1       1.017   7.795  21.191  0.00  0.00    +0.000 HD
BRANCH  11  14
ATOM     14  C   UNL     1       0.151  10.271  20.919  0.00  0.00    +0.000 A 
ATOM     15  C   UNL     1      -0.537  11.425  20.564  0.00  0.00    +0.000 A 
ATOM     16  C   UNL     1      -1.295  12.102  21.532  0.00  0.00    +0.000 A 
ATOM     17  C   UNL     1      -1.417  11.598  22.829  0.00  0.00    +0.000 A 
ATOM     18  C   UNL     1      -0.730  10.450  23.189  0.00  0.00    +0.000 A 
ATOM     19  C   UNL     1       0.102   9.842  22.251  0.00  0.00    +0.000 A 
ENDBRANCH  11  14
ENDBRANCH   9  12
ENDBRANCH   1   9
BRANCH   7  20
ATOM     20  C   UNL     1       6.751   4.988  18.118  0.00  0.00    +0.000 C 
BRANCH  20  21
ATOM     21  C   UNL     1       6.621   4.846  16.648  0.00  0.00    +0.000 A 
ATOM     22  N   UNL     1       6.068   3.922  15.897  0.00  0.00    +0.000 NA
ATOM     23  C   UNL     1       6.531   4.273  14.645  0.00  0.00    +0.000 A 
ATOM     24  N   UNL     1       7.243   5.391  14.594  0.00  0.00    +0.000 NA
ATOM     25  O   UNL     1       7.271   5.802  15.921  0.00  0.00    +0.000 OA
BRANCH  23  26
ATOM     26  C   UNL     1       6.349   3.387  13.420  0.00  0.00    +0.000 C 
ATOM     27  C   UNL     1       5.312   3.847  12.432  0.00  0.00    +0.000 C 
ATOM     28  C   UNL     1       6.764   3.910  12.074  0.00  0.00    +0.000 C 
ENDBRANCH  23  26
ENDBRANCH  20  21
ENDBRANCH   7  20
TORSDOF 6
ENDMDL
MODEL 3
REMARK VINA RESULT:      -8.1      1.946      8.937
REMARK  Name = 
REMARK  6 active torsions:
REMARK  status: ('A' for Active; 'I' for Inactive)
REMARK    1  A    between atoms: C_2  and  C_22
REMARK    2  A    between atoms: N_3  and  C_4
REMARK    3  A    between atoms: C_4  and  C_5
REMARK    4  A    between atoms: C_11  and  C_12
REMARK    5  A    between atoms: C_12  and  C_13
REMARK    6  A    between atoms: C_15  and  C_16
REMARK                            x       y       z     vdW  Elec       q    Type
REMARK                         _______ _______ _______ _____ _____    ______ ____
ROOT
ATOM      1  C   UNL     1       2.282   5.615  18.966  0.00  0.00    +0.000 C 
ATOM      2  O   UNL     1       1.329   5.112  19.574  0.00  0.00    +0.000 OA
ATOM      3  N   UNL     1       2.967   4.910  17.983  0.00  0.00    +0.000 N 
ATOM      4  C   UNL     1       2.422   3.630  17.532  0.00  0.00    +0.000 C 
ATOM      5  C   UNL     1       3.362   2.491  17.909  0.00  0.00    +0.000 C 
ATOM      6  C   UNL     1       4.769   2.751  17.370  0.00  0.00    +0.000 C 
ATOM      7  C   UNL     1       5.318   4.137  17.792  0.00  0.00    +0.000 C 
ATOM      8  C   UNL     1       4.294   5.240  17.447  0.00  0.00    +0.000 C 
ENDROOT
BRANCH   1   9
ATOM      9  C   UNL     1       2.750   7.020  19.364  0.00  0.00    +0.000 C 
BRANCH   9  12
ATOM     10  O   UNL     1       1.407   9.417  18.896  0.00  0.00    +0.000 OA
ATOM     11  C   UNL     1       1.246   8.866  19.981  0.00  0.00    +0.000 C 
ATOM     12  N   UNL     1       1.843   7.665  20.304  0.00  0.00    +0.000 N 
ATOM     13  H   UNL     1       1.566   7.153  21.131  0.00  0.00    +0.000 HD
BRANCH  11  14
ATOM     14  C   UNL     1       0.446   9.539  21.046  0.00  0.00    +0.000 A 
ATOM     15  C   UNL     1       0.288   9.015  22.324  0.00  0.00    +0.000 A 
ATOM     16  C   UNL     1      -0.466   9.723  23.272  0.00  0.00    +0.000 A 
ATOM     17  C   UNL     1      -1.007  10.975  22.968  0.00  0.00    +0.000 A 
ATOM     18  C   UNL     1      -0.856  11.500  21.695  0.00  0.00    +0.000 A 
ATOM     19  C   UNL     1      -0.194  10.744  20.730  0.00  0.00    +0.000 A 
ENDBRANCH  11  14
ENDBRANCH   9  12
ENDBRANCH   1   9
BRANCH   7  20
ATOM     20  C   UNL     1       6.685   4.335  17.111  0.00  0.00    +0.000 C 
BRANCH  20  21
ATOM     21  C   UNL     1       6.683   4.552  15.644  0.00  0.00    +0.000 A 
ATOM     22  N   UNL     1       6.011   3.984  14.670  0.00  0.00    +0.000 NA
ATOM     23  C   UNL     1       6.674   4.468  13.561  0.00  0.00    +0.000 A 
ATOM     24  N   UNL     1       7.630   5.354  13.811  0.00  0.00    +0.000 NA
ATOM     25  O   UNL     1       7.613   5.447  15.197  0.00  0.00    +0.000 OA
BRANCH  23  26
ATOM     26  C   UNL     1       6.420   3.945  12.154  0.00  0.00    +0.000 C 
ATOM     27  C   UNL     1       6.348   2.448  12.018  0.00  0.00    +0.000 C 
ATOM     28  C   UNL     1       5.110   3.273  11.851  0.00  0.00    +0.000 C 
ENDBRANCH  23  26
ENDBRANCH  20  21
ENDBRANCH   7  20
TORSDOF 6
ENDMDL
MODEL 4
REMARK VINA RESULT:      -8.1      1.990      8.637
REMARK  Name = 
REMARK  6 active torsions:
REMARK  status: ('A' for Active; 'I' for Inactive)
REMARK    1  A    between atoms: C_2  and  C_22
REMARK    2  A    between atoms: N_3  and  C_4
REMARK    3  A    between atoms: C_4  and  C_5
REMARK    4  A    between atoms: C_11  and  C_12
REMARK    5  A    between atoms: C_12  and  C_13
REMARK    6  A    between atoms: C_15  and  C_16
REMARK                            x       y       z     vdW  Elec       q    Type
REMARK                         _______ _______ _______ _____ _____    ______ ____
ROOT
ATOM      1  C   UNL     1       2.426   7.129  18.814  0.00  0.00    +0.000 C 
ATOM      2  O   UNL     1       1.629   6.955  19.744  0.00  0.00    +0.000 OA
ATOM      3  N   UNL     1       3.249   6.101  18.365  0.00  0.00    +0.000 N 
ATOM      4  C   UNL     1       3.021   4.750  18.874  0.00  0.00    +0.000 C 
ATOM      5  C   UNL     1       4.211   4.289  19.708  0.00  0.00    +0.000 C 
ATOM      6  C   UNL     1       5.508   4.403  18.908  0.00  0.00    +0.000 C 
ATOM      7  C   UNL     1       5.715   5.817  18.311  0.00  0.00    +0.000 C 
ATOM      8  C   UNL     1       4.452   6.255  17.537  0.00  0.00    +0.000 C 
ENDROOT
BRANCH   1   9
ATOM      9  C   UNL     1       2.549   8.528  18.200  0.00  0.00    +0.000 C 
BRANCH   9  12
ATOM     10  O   UNL     1       1.084  10.342  19.727  0.00  0.00    +0.000 OA
ATOM     11  C   UNL     1       0.605   9.961  18.664  0.00  0.00    +0.000 C 
ATOM     12  N   UNL     1       1.258   9.086  17.821  0.00  0.00    +0.000 N 
ATOM     13  H   UNL     1       0.920   8.919  16.883  0.00  0.00    +0.000 HD
BRANCH  11  14
ATOM     14  C   UNL     1      -0.775  10.378  18.279  0.00  0.00    +0.000 A 
ATOM     15  C   UNL     1      -1.464  11.407  18.912  0.00  0.00    +0.000 A 
ATOM     16  C   UNL     1      -2.753  11.746  18.473  0.00  0.00    +0.000 A 
ATOM     17  C   UNL     1      -3.326  11.108  17.371  0.00  0.00    +0.000 A 
ATOM     18  C   UNL     1      -2.646  10.081  16.739  0.00  0.00    +0.000 A 
ATOM     19  C   UNL     1      -1.412   9.681  17.245  0.00  0.00    +0.000 A 
ENDBRANCH  11  14
ENDBRANCH   9  12
ENDBRANCH   1   9
BRANCH   7  20
ATOM     20  C   UNL     1       6.986   5.787  17.443  0.00  0.00    +0.000 C 
BRANCH  20  21
ATOM     21  C   UNL     1       6.836   5.324  16.042  0.00  0.00    +0.000 A 
ATOM     22  N   UNL     1       6.070   4.410  15.493  0.00  0.00    +0.000 NA
ATOM     23  C   UNL     1       6.618   4.317  14.230  0.00  0.00    +0.000 A 
ATOM     24  N   UNL     1       7.593   5.177  13.967  0.00  0.00    +0.000 NA
ATOM     25  O   UNL     1       7.716   5.882  15.158  0.00  0.00    +0.000 OA
BRANCH  23  26
ATOM     26  C   UNL     1       6.224   3.230  13.238  0.00  0.00    +0.000 C 
ATOM     27  C   UNL     1       5.214   3.632  12.198  0.00  0.00    +0.000 C 
ATOM     28  C   UNL     1       6.634   3.372  11.799  0.00  0.00    +0.000 C 
ENDBRANCH  23  26
ENDBRANCH  20  21
ENDBRANCH   7  20
TORSDOF 6
ENDMDL
MODEL 5
REMARK VINA RESULT:      -7.8      2.350      8.258
REMARK  Name = 
REMARK  6 active torsions:
REMARK  status: ('A' for Active; 'I' for Inactive)
REMARK    1  A    between atoms: C_2  and  C_22
REMARK    2  A    between atoms: N_3  and  C_4
REMARK    3  A    between atoms: C_4  and  C_5
REMARK    4  A    between atoms: C_11  and  C_12
REMARK    5  A    between atoms: C_12  and  C_13
REMARK    6  A    between atoms: C_15  and  C_16
REMARK                            x       y       z     vdW  Elec       q    Type
REMARK                         _______ _______ _______ _____ _____    ______ ____
ROOT
ATOM      1  C   UNL     1       1.722   4.963  20.332  0.00  0.00    +0.000 C 
ATOM      2  O   UNL     1       1.345   4.485  21.409  0.00  0.00    +0.000 OA
ATOM      3  N   UNL     1       1.672   4.223  19.155  0.00  0.00    +0.000 N 
ATOM      4  C   UNL     1       0.982   2.935  19.168  0.00  0.00    +0.000 C 
ATOM      5  C   UNL     1       1.970   1.800  18.924  0.00  0.00    +0.000 C 
ATOM      6  C   UNL     1       2.752   2.033  17.632  0.00  0.00    +0.000 C 
ATOM      7  C   UNL     1       3.428   3.426  17.590  0.00  0.00    +0.000 C 
ATOM      8  C   UNL     1       2.392   4.526  17.912  0.00  0.00    +0.000 C 
ENDROOT
BRANCH   1   9
ATOM      9  C   UNL     1       2.318   6.376  20.320  0.00  0.00    +0.000 C 
BRANCH   9  12
ATOM     10  O   UNL     1       1.509   8.829  19.276  0.00  0.00    +0.000 OA
ATOM     11  C   UNL     1       1.154   8.540  20.414  0.00  0.00    +0.000 C 
ATOM     12  N   UNL     1       1.478   7.341  21.015  0.00  0.00    +0.000 N 
ATOM     13  H   UNL     1       1.039   7.059  21.881  0.00  0.00    +0.000 HD
BRANCH  11  14
ATOM     14  C   UNL     1       0.412   9.538  21.239  0.00  0.00    +0.000 A 
ATOM     15  C   UNL     1      -0.176   9.230  22.460  0.00  0.00    +0.000 A 
ATOM     16  C   UNL     1      -0.839  10.235  23.181  0.00  0.00    +0.000 A 
ATOM     17  C   UNL     1      -0.861  11.553  22.718  0.00  0.00    +0.000 A 
ATOM     18  C   UNL     1      -0.279  11.866  21.500  0.00  0.00    +0.000 A 
ATOM     19  C   UNL     1       0.286  10.842  20.743  0.00  0.00    +0.000 A 
ENDBRANCH  11  14
ENDBRANCH   9  12
ENDBRANCH   1   9
BRANCH   7  20
ATOM     20  C   UNL     1       4.091   3.593  16.211  0.00  0.00    +0.000 C 
BRANCH  20  21
ATOM     21  C   UNL     1       5.331   4.405  16.152  0.00  0.00    +0.000 A 
ATOM     22  N   UNL     1       6.119   4.880  17.088  0.00  0.00    +0.000 NA
ATOM     23  C   UNL     1       6.913   5.746  16.365  0.00  0.00    +0.000 A 
ATOM     24  N   UNL     1       6.710   5.745  15.054  0.00  0.00    +0.000 NA
ATOM     25  O   UNL     1       5.684   4.821  14.899  0.00  0.00    +0.000 OA
BRANCH  23  26
ATOM     26  C   UNL     1       7.877   6.725  17.021  0.00  0.00    +0.000 C 
ATOM     27  C   UNL     1       7.249   7.951  17.627  0.00  0.00    +0.000 C 
ATOM     28  C   UNL     1       7.837   6.898  18.514  0.00  0.00    +0.000 C 
ENDBRANCH  23  26
ENDBRANCH  20  21
ENDBRANCH   7  20
TORSDOF 6
ENDMDL
MODEL 6
REMARK VINA RESULT:      -7.8      0.936      1.307
REMARK  Name = 
REMARK  6 active torsions:
REMARK  status: ('A' for Active; 'I' for Inactive)
REMARK    1  A    between atoms: C_2  and  C_22
REMARK    2  A    between atoms: N_3  and  C_4
REMARK    3  A    between atoms: C_4  and  C_5
REMARK    4  A    between atoms: C_11  and  C_12
REMARK    5  A    between atoms: C_12  and  C_13
REMARK    6  A    between atoms: C_15  and  C_16
REMARK                            x       y       z     vdW  Elec       q    Type
REMARK                         _______ _______ _______ _____ _____    ______ ____
ROOT
ATOM      1  C   UNL     1       4.037   3.180  18.341  0.00  0.00    +0.000 C 
ATOM      2  O   UNL     1       3.693   2.232  17.624  0.00  0.00    +0.000 OA
ATOM      3  N   UNL     1       3.294   3.550  19.457  0.00  0.00    +0.000 N 
ATOM      4  C   UNL     1       2.203   2.679  19.891  0.00  0.00    +0.000 C 
ATOM      5  C   UNL     1       0.863   3.387  19.730  0.00  0.00    +0.000 C 
ATOM      6  C   UNL     1       0.869   4.728  20.463  0.00  0.00    +0.000 C 
ATOM      7  C   UNL     1       2.065   5.623  20.052  0.00  0.00    +0.000 C 
ATOM      8  C   UNL     1       3.385   4.830  20.171  0.00  0.00    +0.000 C 
ENDROOT
BRANCH   1   9
ATOM      9  C   UNL     1       5.271   3.997  17.940  0.00  0.00    +0.000 C 
BRANCH   9  12
ATOM     10  O   UNL     1       7.397   5.267  16.661  0.00  0.00    +0.000 OA
ATOM     11  C   UNL     1       6.644   4.576  15.983  0.00  0.00    +0.000 C 
ATOM     12  N   UNL     1       5.578   3.885  16.520  0.00  0.00    +0.000 N 
ATOM     13  H   UNL     1       5.076   3.197  15.975  0.00  0.00    +0.000 HD
BRANCH  11  14
ATOM     14  C   UNL     1       6.810   4.529  14.501  0.00  0.00    +0.000 A 
ATOM     15  C   UNL     1       7.687   5.355  13.807  0.00  0.00    +0.000 A 
ATOM     16  C   UNL     1       7.795   5.231  12.413  0.00  0.00    +0.000 A 
ATOM     17  C   UNL     1       7.081   4.248  11.723  0.00  0.00    +0.000 A 
ATOM     18  C   UNL     1       6.204   3.425  12.409  0.00  0.00    +0.000 A 
ATOM     19  C   UNL     1       6.025   3.623  13.776  0.00  0.00    +0.000 A 
ENDBRANCH  11  14
ENDBRANCH   9  12
ENDBRANCH   1   9
BRANCH   7  20
ATOM     20  C   UNL     1       2.031   6.892  20.923  0.00  0.00    +0.000 C 
BRANCH  20  21
ATOM     21  C   UNL     1       1.332   8.075  20.365  0.00  0.00    +0.000 A 
ATOM     22  N   UNL     1       1.636   8.899  19.389  0.00  0.00    +0.000 NA
ATOM     23  C   UNL     1       0.705   9.901  19.576  0.00  0.00    +0.000 A 
ATOM     24  N   UNL     1      -0.184   9.680  20.537  0.00  0.00    +0.000 NA
ATOM     25  O   UNL     1       0.203   8.444  21.040  0.00  0.00    +0.000 OA
BRANCH  23  26
ATOM     26  C   UNL     1       0.753  11.223  18.823  0.00  0.00    +0.000 C 
ATOM     27  C   UNL     1       1.514  12.331  19.500  0.00  0.00    +0.000 C 
ATOM     28  C   UNL     1       2.065  11.695  18.261  0.00  0.00    +0.000 C 
ENDBRANCH  23  26
ENDBRANCH  20  21
ENDBRANCH   7  20
TORSDOF 6
ENDMDL
MODEL 7
REMARK VINA RESULT:      -7.7      1.772      8.452
REMARK  Name = 
REMARK  6 active torsions:
REMARK  status: ('A' for Active; 'I' for Inactive)
REMARK    1  A    between atoms: C_2  and  C_22
REMARK    2  A    between atoms: N_3  and  C_4
REMARK    3  A    between atoms: C_4  and  C_5
REMARK    4  A    between atoms: C_11  and  C_12
REMARK    5  A    between atoms: C_12  and  C_13
REMARK    6  A    between atoms: C_15  and  C_16
REMARK                            x       y       z     vdW  Elec       q    Type
REMARK                         _______ _______ _______ _____ _____    ______ ____
ROOT
ATOM      1  C   UNL     1       2.384   5.778  18.897  0.00  0.00    +0.000 C 
ATOM      2  O   UNL     1       1.422   5.294  19.504  0.00  0.00    +0.000 OA
ATOM      3  N   UNL     1       3.058   5.057  17.916  0.00  0.00    +0.000 N 
ATOM      4  C   UNL     1       2.492   3.786  17.470  0.00  0.00    +0.000 C 
ATOM      5  C   UNL     1       3.410   2.632  17.851  0.00  0.00    +0.000 C 
ATOM      6  C   UNL     1       4.822   2.864  17.315  0.00  0.00    +0.000 C 
ATOM      7  C   UNL     1       5.396   4.241  17.733  0.00  0.00    +0.000 C 
ATOM      8  C   UNL     1       4.392   5.362  17.382  0.00  0.00    +0.000 C 
ENDROOT
BRANCH   1   9
ATOM      9  C   UNL     1       2.877   7.176  19.290  0.00  0.00    +0.000 C 
BRANCH   9  12
ATOM     10  O   UNL     1       2.258   8.932  17.216  0.00  0.00    +0.000 OA
ATOM     11  C   UNL     1       1.595   8.997  18.246  0.00  0.00    +0.000 C 
ATOM     12  N   UNL     1       1.801   8.158  19.322  0.00  0.00    +0.000 N 
ATOM     13  H   UNL     1       1.140   8.121  20.086  0.00  0.00    +0.000 HD
BRANCH  11  14
ATOM     14  C   UNL     1       0.572  10.072  18.406  0.00  0.00    +0.000 A 
ATOM     15  C   UNL     1      -0.756   9.921  18.022  0.00  0.00    +0.000 A 
ATOM     16  C   UNL     1      -1.657  10.978  18.226  0.00  0.00    +0.000 A 
ATOM     17  C   UNL     1      -1.252  12.152  18.865  0.00  0.00    +0.000 A 
ATOM     18  C   UNL     1       0.070  12.309  19.246  0.00  0.00    +0.000 A 
ATOM     19  C   UNL     1       0.980  11.297  18.947  0.00  0.00    +0.000 A 
ENDBRANCH  11  14
ENDBRANCH   9  12
ENDBRANCH   1   9
BRANCH   7  20
ATOM     20  C   UNL     1       6.767   4.412  17.053  0.00  0.00    +0.000 C 
BRANCH  20  21
ATOM     21  C   UNL     1       6.771   4.640  15.588  0.00  0.00    +0.000 A 
ATOM     22  N   UNL     1       6.077   4.104  14.611  0.00  0.00    +0.000 NA
ATOM     23  C   UNL     1       6.756   4.572  13.504  0.00  0.00    +0.000 A 
ATOM     24  N   UNL     1       7.744   5.420  13.759  0.00  0.00    +0.000 NA
ATOM     25  O   UNL     1       7.732   5.504  15.146  0.00  0.00    +0.000 OA
BRANCH  23  26
ATOM     26  C   UNL     1       6.481   4.068  12.094  0.00  0.00    +0.000 C 
ATOM     27  C   UNL     1       7.049   2.716  11.762  0.00  0.00    +0.000 C 
ATOM     28  C   UNL     1       5.569   2.888  11.906  0.00  0.00    +0.000 C 
ENDBRANCH  23  26
ENDBRANCH  20  21
ENDBRANCH   7  20
TORSDOF 6
ENDMDL
MODEL 8
REMARK VINA RESULT:      -7.6      0.972      1.494
REMARK  Name = 
REMARK  6 active torsions:
REMARK  status: ('A' for Active; 'I' for Inactive)
REMARK    1  A    between atoms: C_2  and  C_22
REMARK    2  A    between atoms: N_3  and  C_4
REMARK    3  A    between atoms: C_4  and  C_5
REMARK    4  A    between atoms: C_11  and  C_12
REMARK    5  A    between atoms: C_12  and  C_13
REMARK    6  A    between atoms: C_15  and  C_16
REMARK                            x       y       z     vdW  Elec       q    Type
REMARK                         _______ _______ _______ _____ _____    ______ ____
ROOT
ATOM      1  C   UNL     1       4.208   3.217  18.382  0.00  0.00    +0.000 C 
ATOM      2  O   UNL     1       3.978   2.323  17.558  0.00  0.00    +0.000 OA
ATOM      3  N   UNL     1       3.365   3.436  19.466  0.00  0.00    +0.000 N 
ATOM      4  C   UNL     1       2.303   2.467  19.733  0.00  0.00    +0.000 C 
ATOM      5  C   UNL     1       0.936   3.109  19.533  0.00  0.00    +0.000 C 
ATOM      6  C   UNL     1       0.803   4.373  20.382  0.00  0.00    +0.000 C 
ATOM      7  C   UNL     1       1.965   5.370  20.147  0.00  0.00    +0.000 C 
ATOM      8  C   UNL     1       3.322   4.646  20.297  0.00  0.00    +0.000 C 
ENDROOT
BRANCH   1   9
ATOM      9  C   UNL     1       5.413   4.137  18.154  0.00  0.00    +0.000 C 
BRANCH   9  12
ATOM     10  O   UNL     1       4.882   5.796  15.978  0.00  0.00    +0.000 OA
ATOM     11  C   UNL     1       5.641   4.847  15.810  0.00  0.00    +0.000 C 
ATOM     12  N   UNL     1       5.991   3.981  16.825  0.00  0.00    +0.000 N 
ATOM     13  H   UNL     1       6.739   3.313  16.704  0.00  0.00    +0.000 HD
BRANCH  11  14
ATOM     14  C   UNL     1       6.158   4.541  14.444  0.00  0.00    +0.000 A 
ATOM     15  C   UNL     1       5.548   3.632  13.586  0.00  0.00    +0.000 A 
ATOM     16  C   UNL     1       6.090   3.417  12.310  0.00  0.00    +0.000 A 
ATOM     17  C   UNL     1       7.195   4.148  11.868  0.00  0.00    +0.000 A 
ATOM     18  C   UNL     1       7.809   5.052  12.719  0.00  0.00    +0.000 A 
ATOM     19  C   UNL     1       7.327   5.184  14.019  0.00  0.00    +0.000 A 
ENDBRANCH  11  14
ENDBRANCH   9  12
ENDBRANCH   1   9
BRANCH   7  20
ATOM     20  C   UNL     1       1.788   6.547  21.124  0.00  0.00    +0.000 C 
BRANCH  20  21
ATOM     21  C   UNL     1       1.310   7.830  20.555  0.00  0.00    +0.000 A 
ATOM     22  N   UNL     1       1.652   8.498  19.477  0.00  0.00    +0.000 NA
ATOM     23  C   UNL     1       1.017   9.705  19.690  0.00  0.00    +0.000 A 
ATOM     24  N   UNL     1       0.251   9.763  20.772  0.00  0.00    +0.000 NA
ATOM     25  O   UNL     1       0.408   8.501  21.332  0.00  0.00    +0.000 OA
BRANCH  23  26
ATOM     26  C   UNL     1       1.263  10.930  18.820  0.00  0.00    +0.000 C 
ATOM     27  C   UNL     1       0.120  11.905  18.729  0.00  0.00    +0.000 C 
ATOM     28  C   UNL     1       1.364  12.280  19.473  0.00  0.00    +0.000 C 
ENDBRANCH  23  26
ENDBRANCH  20  21
ENDBRANCH   7  20
TORSDOF 6
ENDMDL
MODEL 9
REMARK VINA RESULT:      -7.6      0.974      1.442
REMARK  Name = 
REMARK  6 active torsions:
REMARK  status: ('A' for Active; 'I' for Inactive)
REMARK    1  A    between atoms: C_2  and  C_22
REMARK    2  A    between atoms: N_3  and  C_4
REMARK    3  A    between atoms: C_4  and  C_5
REMARK    4  A    between atoms: C_11  and  C_12
REMARK    5  A    between atoms: C_12  and  C_13
REMARK    6  A    between atoms: C_15  and  C_16
REMARK                            x       y       z     vdW  Elec       q    Type
REMARK                         _______ _______ _______ _____ _____    ______ ____
ROOT
ATOM      1  C   UNL     1       4.113   4.116  18.228  0.00  0.00    +0.000 C 
ATOM      2  O   UNL     1       3.893   3.056  17.629  0.00  0.00    +0.000 OA
ATOM      3  N   UNL     1       3.476   4.414  19.428  0.00  0.00    +0.000 N 
ATOM      4  C   UNL     1       2.687   3.370  20.079  0.00  0.00    +0.000 C 
ATOM      5  C   UNL     1       1.212   3.752  20.099  0.00  0.00    +0.000 C 
ATOM      6  C   UNL     1       1.018   5.123  20.747  0.00  0.00    +0.000 C 
ATOM      7  C   UNL     1       1.905   6.215  20.099  0.00  0.00    +0.000 C 
ATOM      8  C   UNL     1       3.374   5.742  20.047  0.00  0.00    +0.000 C 
ENDROOT
BRANCH   1   9
ATOM      9  C   UNL     1       5.055   5.142  17.589  0.00  0.00    +0.000 C 
BRANCH   9  12
ATOM     10  O   UNL     1       7.549   4.528  16.507  0.00  0.00    +0.000 OA
ATOM     11  C   UNL     1       6.590   4.595  15.746  0.00  0.00    +0.000 C 
ATOM     12  N   UNL     1       5.309   4.866  16.181  0.00  0.00    +0.000 N 
ATOM     13  H   UNL     1       4.516   4.753  15.565  0.00  0.00    +0.000 HD
BRANCH  11  14
ATOM     14  C   UNL     1       6.797   4.465  14.274  0.00  0.00    +0.000 A 
ATOM     15  C   UNL     1       6.143   3.519  13.494  0.00  0.00    +0.000 A 
ATOM     16  C   UNL     1       6.383   3.479  12.112  0.00  0.00    +0.000 A 
ATOM     17  C   UNL     1       7.220   4.416  11.502  0.00  0.00    +0.000 A 
ATOM     18  C   UNL     1       7.876   5.359  12.274  0.00  0.00    +0.000 A 
ATOM     19  C   UNL     1       7.714   5.326  13.657  0.00  0.00    +0.000 A 
ENDBRANCH  11  14
ENDBRANCH   9  12
ENDBRANCH   1   9
BRANCH   7  20
ATOM     20  C   UNL     1       1.709   7.520  20.894  0.00  0.00    +0.000 C 
BRANCH  20  21
ATOM     21  C   UNL     1       1.072   8.654  20.183  0.00  0.00    +0.000 A 
ATOM     22  N   UNL     1       0.030   9.400  20.469  0.00  0.00    +0.000 NA
ATOM     23  C   UNL     1      -0.160  10.073  19.279  0.00  0.00    +0.000 A 
ATOM     24  N   UNL     1       0.753   9.844  18.343  0.00  0.00    +0.000 NA
ATOM     25  O   UNL     1       1.602   8.930  18.955  0.00  0.00    +0.000 OA
BRANCH  23  26
ATOM     26  C   UNL     1      -1.389  10.929  19.002  0.00  0.00    +0.000 C 
ATOM     27  C   UNL     1      -1.454  12.236  19.743  0.00  0.00    +0.000 C 
ATOM     28  C   UNL     1      -1.222  12.227  18.264  0.00  0.00    +0.000 C 
ENDBRANCH  23  26
ENDBRANCH  20  21
ENDBRANCH   7  20
TORSDOF 6
ENDMDL
