MODEL 1
REMARK VINA RESULT:      -8.7      0.000      0.000
REMARK  Name = 
REMARK  7 active torsions:
REMARK  status: ('A' for Active; 'I' for Inactive)
REMARK    1  A    between atoms: C_1  and  C_2
REMARK    2  A    between atoms: C_2  and  C_4
REMARK    3  A    between atoms: C_7  and  N_8
REMARK    4  A    between atoms: C_9  and  C_11
REMARK    5  A    between atoms: C_11  and  S_12
REMARK    6  A    between atoms: S_12  and  C_13
REMARK    7  A    between atoms: C_19  and  C_20
REMARK                            x       y       z     vdW  Elec       q    Type
REMARK                         _______ _______ _______ _____ _____    ______ ____
ROOT
ATOM      1  C   UNL     1       5.544   4.960  18.190  0.00  0.00    +0.000 A 
ATOM      2  N   UNL     1       5.821   3.724  18.540  0.00  0.00    +0.000 NA
ATOM      3  N   UNL     1       4.816   3.297  19.389  0.00  0.00    +0.000 NA
ATOM      4  C   UNL     1       3.966   4.293  19.536  0.00  0.00    +0.000 A 
ATOM      5  C   UNL     1       2.810   4.461  20.325  0.00  0.00    +0.000 A 
ATOM      6  C   UNL     1       2.155   5.628  20.290  0.00  0.00    +0.000 A 
ATOM      7  C   UNL     1       2.678   6.702  19.385  0.00  0.00    +0.000 A 
ATOM      8  N   UNL     1       3.752   6.586  18.664  0.00  0.00    +0.000 NA
ATOM      9  N   UNL     1       4.368   5.369  18.771  0.00  0.00    +0.000 N 
ENDROOT
BRANCH   7  10
ATOM     10  C   UNL     1       1.941   8.003  19.351  0.00  0.00    +0.000 A 
ATOM     11  C   UNL     1       1.919   8.723  18.146  0.00  0.00    +0.000 A 
ATOM     12  C   UNL     1       1.274   9.959  18.066  0.00  0.00    +0.000 A 
ATOM     13  C   UNL     1       0.639  10.476  19.191  0.00  0.00    +0.000 A 
ATOM     14 BR   UNL     1      -0.211  12.161  19.099  0.00  0.00    +0.000 Br
ATOM     15  C   UNL     1       0.624   9.758  20.387  0.00  0.00    +0.000 A 
ATOM     16  C   UNL     1       1.267   8.518  20.465  0.00  0.00    +0.000 A 
ENDBRANCH   7  10
BRANCH   1  17
ATOM     17  S   UNL     1       6.491   6.018  17.205  0.00  0.00    +0.000 S 
BRANCH  17  18
ATOM     18  C   UNL     1       7.697   6.623  18.411  0.00  0.00    +0.000 C 
BRANCH  18  20
ATOM     19  N   UNL     1       8.861   8.680  19.034  0.00  0.00    +0.000 N 
ATOM     20  C   UNL     1       8.003   8.081  18.119  0.00  0.00    +0.000 C 
ATOM     21  O   UNL     1       7.540   8.621  17.117  0.00  0.00    +0.000 OA
ATOM     22  H   UNL     1       9.305   8.079  19.720  0.00  0.00    +0.000 HD
BRANCH  19  26
ATOM     23  C   UNL     1       9.951  12.769  19.215  0.00  0.00    +0.000 A 
ATOM     24  C   UNL     1       9.831  12.135  17.979  0.00  0.00    +0.000 A 
ATOM     25  C   UNL     1       9.466  10.786  17.910  0.00  0.00    +0.000 A 
ATOM     26  C   UNL     1       9.213  10.048  19.067  0.00  0.00    +0.000 A 
ATOM     27  C   UNL     1       9.292  10.695  20.306  0.00  0.00    +0.000 A 
ATOM     28  C   UNL     1       9.674  12.043  20.380  0.00  0.00    +0.000 A 
BRANCH  23  30
ATOM     29  C   UNL     1      11.778  14.506  19.783  0.00  0.00    +0.000 C 
ATOM     30  C   UNL     1      10.374  14.197  19.320  0.00  0.00    +0.000 C 
ATOM     31  O   UNL     1       9.588  15.094  19.023  0.00  0.00    +0.000 OA
ENDBRANCH  23  30
ENDBRANCH  19  26
ENDBRANCH  18  20
ENDBRANCH  17  18
ENDBRANCH   1  17
TORSDOF 6
ENDMDL
MODEL 2
REMARK VINA RESULT:      -8.7      0.266      1.271
REMARK  Name = 
REMARK  7 active torsions:
REMARK  status: ('A' for Active; 'I' for Inactive)
REMARK    1  A    between atoms: C_1  and  C_2
REMARK    2  A    between atoms: C_2  and  C_4
REMARK    3  A    between atoms: C_7  and  N_8
REMARK    4  A    between atoms: C_9  and  C_11
REMARK    5  A    between atoms: C_11  and  S_12
REMARK    6  A    between atoms: S_12  and  C_13
REMARK    7  A    between atoms: C_19  and  C_20
REMARK                            x       y       z     vdW  Elec       q    Type
REMARK                         _______ _______ _______ _____ _____    ______ ____
ROOT
ATOM      1  C   UNL     1       5.583   5.048  18.189  0.00  0.00    +0.000 A 
ATOM      2  N   UNL     1       5.894   3.819  18.536  0.00  0.00    +0.000 NA
ATOM      3  N   UNL     1       4.904   3.365  19.389  0.00  0.00    +0.000 NA
ATOM      4  C   UNL     1       4.028   4.337  19.540  0.00  0.00    +0.000 A 
ATOM      5  C   UNL     1       2.871   4.473  20.333  0.00  0.00    +0.000 A 
ATOM      6  C   UNL     1       2.185   5.622  20.303  0.00  0.00    +0.000 A 
ATOM      7  C   UNL     1       2.676   6.711  19.398  0.00  0.00    +0.000 A 
ATOM      8  N   UNL     1       3.750   6.625  18.672  0.00  0.00    +0.000 NA
ATOM      9  N   UNL     1       4.399   5.424  18.776  0.00  0.00    +0.000 N 
ENDROOT
BRANCH   7  10
ATOM     10  C   UNL     1       1.904   7.992  19.368  0.00  0.00    +0.000 A 
ATOM     11  C   UNL     1       1.245   8.397  20.540  0.00  0.00    +0.000 A 
ATOM     12  C   UNL     1       0.482   9.567  20.560  0.00  0.00    +0.000 A 
ATOM     13  C   UNL     1       0.384  10.343  19.409  0.00  0.00    +0.000 A 
ATOM     14 BR   UNL     1      -0.670  11.911  19.419  0.00  0.00    +0.000 Br
ATOM     15  C   UNL     1       1.059   9.970  18.247  0.00  0.00    +0.000 A 
ATOM     16  C   UNL     1       1.826   8.801  18.228  0.00  0.00    +0.000 A 
ENDBRANCH   7  10
BRANCH   1  17
ATOM     17  S   UNL     1       6.498   6.132  17.203  0.00  0.00    +0.000 S 
BRANCH  17  18
ATOM     18  C   UNL     1       7.766   6.677  18.373  0.00  0.00    +0.000 C 
BRANCH  18  20
ATOM     19  N   UNL     1       8.933   8.709  19.067  0.00  0.00    +0.000 N 
ATOM     20  C   UNL     1       8.032   8.157  18.164  0.00  0.00    +0.000 C 
ATOM     21  O   UNL     1       7.503   8.753  17.230  0.00  0.00    +0.000 OA
ATOM     22  H   UNL     1       9.425   8.071  19.684  0.00  0.00    +0.000 HD
BRANCH  19  26
ATOM     23  C   UNL     1       9.904  12.825  19.300  0.00  0.00    +0.000 A 
ATOM     24  C   UNL     1       9.583  12.120  20.458  0.00  0.00    +0.000 A 
ATOM     25  C   UNL     1       9.266  10.758  20.391  0.00  0.00    +0.000 A 
ATOM     26  C   UNL     1       9.266  10.078  19.173  0.00  0.00    +0.000 A 
ATOM     27  C   UNL     1       9.630  10.775  18.015  0.00  0.00    +0.000 A 
ATOM     28  C   UNL     1       9.932  12.144  18.076  0.00  0.00    +0.000 A 
BRANCH  23  30
ATOM     29  C   UNL     1      11.609  14.742  19.000  0.00  0.00    +0.000 C 
ATOM     30  C   UNL     1      10.210  14.286  19.336  0.00  0.00    +0.000 C 
ATOM     31  O   UNL     1       9.328  15.091  19.626  0.00  0.00    +0.000 OA
ENDBRANCH  23  30
ENDBRANCH  19  26
ENDBRANCH  18  20
ENDBRANCH  17  18
ENDBRANCH   1  17
TORSDOF 6
ENDMDL
MODEL 3
REMARK VINA RESULT:      -8.6      3.892      7.118
REMARK  Name = 
REMARK  7 active torsions:
REMARK  status: ('A' for Active; 'I' for Inactive)
REMARK    1  A    between atoms: C_1  and  C_2
REMARK    2  A    between atoms: C_2  and  C_4
REMARK    3  A    between atoms: C_7  and  N_8
REMARK    4  A    between atoms: C_9  and  C_11
REMARK    5  A    between atoms: C_11  and  S_12
REMARK    6  A    between atoms: S_12  and  C_13
REMARK    7  A    between atoms: C_19  and  C_20
REMARK                            x       y       z     vdW  Elec       q    Type
REMARK                         _______ _______ _______ _____ _____    ______ ____
ROOT
ATOM      1  C   UNL     1       3.853   2.501  19.177  0.00  0.00    +0.000 A 
ATOM      2  N   UNL     1       3.085   1.677  18.500  0.00  0.00    +0.000 NA
ATOM      3  N   UNL     1       3.138   2.059  17.171  0.00  0.00    +0.000 NA
ATOM      4  C   UNL     1       3.928   3.110  17.087  0.00  0.00    +0.000 A 
ATOM      5  C   UNL     1       4.293   3.955  16.019  0.00  0.00    +0.000 A 
ATOM      6  C   UNL     1       5.108   4.991  16.249  0.00  0.00    +0.000 A 
ATOM      7  C   UNL     1       5.616   5.188  17.646  0.00  0.00    +0.000 A 
ATOM      8  N   UNL     1       5.281   4.441  18.654  0.00  0.00    +0.000 NA
ATOM      9  N   UNL     1       4.433   3.417  18.333  0.00  0.00    +0.000 N 
ENDROOT
BRANCH   7  10
ATOM     10  C   UNL     1       6.527   6.348  17.896  0.00  0.00    +0.000 A 
ATOM     11  C   UNL     1       6.236   7.570  17.268  0.00  0.00    +0.000 A 
ATOM     12  C   UNL     1       7.071   8.676  17.439  0.00  0.00    +0.000 A 
ATOM     13  C   UNL     1       8.198   8.567  18.249  0.00  0.00    +0.000 A 
ATOM     14 BR   UNL     1       9.349  10.050  18.462  0.00  0.00    +0.000 Br
ATOM     15  C   UNL     1       8.483   7.370  18.904  0.00  0.00    +0.000 A 
ATOM     16  C   UNL     1       7.645   6.263  18.736  0.00  0.00    +0.000 A 
ENDBRANCH   7  10
BRANCH   1  17
ATOM     17  S   UNL     1       4.106   2.547  20.886  0.00  0.00    +0.000 S 
BRANCH  17  18
ATOM     18  C   UNL     1       2.423   2.854  21.475  0.00  0.00    +0.000 C 
BRANCH  18  20
ATOM     19  N   UNL     1       2.645   5.122  20.592  0.00  0.00    +0.000 N 
ATOM     20  C   UNL     1       1.823   4.006  20.689  0.00  0.00    +0.000 C 
ATOM     21  O   UNL     1       0.717   3.886  20.166  0.00  0.00    +0.000 OA
ATOM     22  H   UNL     1       3.599   5.029  20.926  0.00  0.00    +0.000 HD
BRANCH  19  26
ATOM     23  C   UNL     1       1.586   8.888  18.968  0.00  0.00    +0.000 A 
ATOM     24  C   UNL     1       2.205   7.933  18.164  0.00  0.00    +0.000 A 
ATOM     25  C   UNL     1       2.553   6.684  18.691  0.00  0.00    +0.000 A 
ATOM     26  C   UNL     1       2.290   6.366  20.023  0.00  0.00    +0.000 A 
ATOM     27  C   UNL     1       1.630   7.308  20.821  0.00  0.00    +0.000 A 
ATOM     28  C   UNL     1       1.294   8.568  20.301  0.00  0.00    +0.000 A 
BRANCH  23  30
ATOM     29  C   UNL     1      -0.216  10.572  18.203  0.00  0.00    +0.000 C 
ATOM     30  C   UNL     1       1.236  10.241  18.444  0.00  0.00    +0.000 C 
ATOM     31  O   UNL     1       2.123  11.064  18.227  0.00  0.00    +0.000 OA
ENDBRANCH  23  30
ENDBRANCH  19  26
ENDBRANCH  18  20
ENDBRANCH  17  18
ENDBRANCH   1  17
TORSDOF 6
ENDMDL
MODEL 4
REMARK VINA RESULT:      -8.5      4.265      6.915
REMARK  Name = 
REMARK  7 active torsions:
REMARK  status: ('A' for Active; 'I' for Inactive)
REMARK    1  A    between atoms: C_1  and  C_2
REMARK    2  A    between atoms: C_2  and  C_4
REMARK    3  A    between atoms: C_7  and  N_8
REMARK    4  A    between atoms: C_9  and  C_11
REMARK    5  A    between atoms: C_11  and  S_12
REMARK    6  A    between atoms: S_12  and  C_13
REMARK    7  A    between atoms: C_19  and  C_20
REMARK                            x       y       z     vdW  Elec       q    Type
REMARK                         _______ _______ _______ _____ _____    ______ ____
ROOT
ATOM      1  C   UNL     1       5.580   4.615  19.010  0.00  0.00    +0.000 A 
ATOM      2  N   UNL     1       5.605   3.339  18.697  0.00  0.00    +0.000 NA
ATOM      3  N   UNL     1       4.353   3.006  18.212  0.00  0.00    +0.000 NA
ATOM      4  C   UNL     1       3.605   4.090  18.256  0.00  0.00    +0.000 A 
ATOM      5  C   UNL     1       2.248   4.333  17.963  0.00  0.00    +0.000 A 
ATOM      6  C   UNL     1       1.747   5.561  18.141  0.00  0.00    +0.000 A 
ATOM      7  C   UNL     1       2.674   6.635  18.627  0.00  0.00    +0.000 A 
ATOM      8  N   UNL     1       3.922   6.438  18.926  0.00  0.00    +0.000 NA
ATOM      9  N   UNL     1       4.346   5.152  18.731  0.00  0.00    +0.000 N 
ENDROOT
BRANCH   7  10
ATOM     10  C   UNL     1       2.107   8.005  18.822  0.00  0.00    +0.000 A 
ATOM     11  C   UNL     1       1.515   8.310  20.059  0.00  0.00    +0.000 A 
ATOM     12  C   UNL     1       0.941   9.563  20.284  0.00  0.00    +0.000 A 
ATOM     13  C   UNL     1       0.966  10.521  19.276  0.00  0.00    +0.000 A 
ATOM     14 BR   UNL     1       0.165  12.208  19.563  0.00  0.00    +0.000 Br
ATOM     15  C   UNL     1       1.578  10.245  18.054  0.00  0.00    +0.000 A 
ATOM     16  C   UNL     1       2.157   8.992  17.829  0.00  0.00    +0.000 A 
ENDBRANCH   7  10
BRANCH   1  17
ATOM     17  S   UNL     1       6.840   5.551  19.732  0.00  0.00    +0.000 S 
BRANCH  17  18
ATOM     18  C   UNL     1       7.605   6.289  18.268  0.00  0.00    +0.000 C 
BRANCH  18  20
ATOM     19  N   UNL     1       6.734   5.729  16.054  0.00  0.00    +0.000 N 
ATOM     20  C   UNL     1       7.524   5.304  17.115  0.00  0.00    +0.000 C 
ATOM     21  O   UNL     1       8.163   4.255  17.153  0.00  0.00    +0.000 OA
ATOM     22  H   UNL     1       6.397   6.686  16.076  0.00  0.00    +0.000 HD
BRANCH  19  26
ATOM     23  C   UNL     1       5.626   3.448  12.660  0.00  0.00    +0.000 A 
ATOM     24  C   UNL     1       6.856   4.104  12.687  0.00  0.00    +0.000 A 
ATOM     25  C   UNL     1       7.232   4.856  13.806  0.00  0.00    +0.000 A 
ATOM     26  C   UNL     1       6.393   4.964  14.916  0.00  0.00    +0.000 A 
ATOM     27  C   UNL     1       5.177   4.271  14.908  0.00  0.00    +0.000 A 
ATOM     28  C   UNL     1       4.789   3.530  13.781  0.00  0.00    +0.000 A 
BRANCH  23  30
ATOM     29  C   UNL     1       3.898   3.064  10.779  0.00  0.00    +0.000 C 
ATOM     30  C   UNL     1       5.183   2.670  11.466  0.00  0.00    +0.000 C 
ATOM     31  O   UNL     1       5.866   1.735  11.054  0.00  0.00    +0.000 OA
ENDBRANCH  23  30
ENDBRANCH  19  26
ENDBRANCH  18  20
ENDBRANCH  17  18
ENDBRANCH   1  17
TORSDOF 6
ENDMDL
MODEL 5
REMARK VINA RESULT:      -8.3      4.269      6.876
REMARK  Name = 
REMARK  7 active torsions:
REMARK  status: ('A' for Active; 'I' for Inactive)
REMARK    1  A    between atoms: C_1  and  C_2
REMARK    2  A    between atoms: C_2  and  C_4
REMARK    3  A    between atoms: C_7  and  N_8
REMARK    4  A    between atoms: C_9  and  C_11
REMARK    5  A    between atoms: C_11  and  S_12
REMARK    6  A    between atoms: S_12  and  C_13
REMARK    7  A    between atoms: C_19  and  C_20
REMARK                            x       y       z     vdW  Elec       q    Type
REMARK                         _______ _______ _______ _____ _____    ______ ____
ROOT
ATOM      1  C   UNL     1       5.542   4.582  19.023  0.00  0.00    +0.000 A 
ATOM      2  N   UNL     1       5.560   3.299  18.738  0.00  0.00    +0.000 NA
ATOM      3  N   UNL     1       4.299   2.957  18.284  0.00  0.00    +0.000 NA
ATOM      4  C   UNL     1       3.553   4.042  18.318  0.00  0.00    +0.000 A 
ATOM      5  C   UNL     1       2.190   4.280  18.044  0.00  0.00    +0.000 A 
ATOM      6  C   UNL     1       1.693   5.512  18.204  0.00  0.00    +0.000 A 
ATOM      7  C   UNL     1       2.630   6.595  18.650  0.00  0.00    +0.000 A 
ATOM      8  N   UNL     1       3.883   6.403  18.930  0.00  0.00    +0.000 NA
ATOM      9  N   UNL     1       4.303   5.113  18.755  0.00  0.00    +0.000 N 
ENDROOT
BRANCH   7  10
ATOM     10  C   UNL     1       2.068   7.970  18.825  0.00  0.00    +0.000 A 
ATOM     11  C   UNL     1       2.118   8.853  17.734  0.00  0.00    +0.000 A 
ATOM     12  C   UNL     1       1.638  10.159  17.852  0.00  0.00    +0.000 A 
ATOM     13  C   UNL     1       1.097  10.586  19.061  0.00  0.00    +0.000 A 
ATOM     14 BR   UNL     1       0.473  12.360  19.237  0.00  0.00    +0.000 Br
ATOM     15  C   UNL     1       1.011   9.712  20.144  0.00  0.00    +0.000 A 
ATOM     16  C   UNL     1       1.488   8.402  20.025  0.00  0.00    +0.000 A 
ENDBRANCH   7  10
BRANCH   1  17
ATOM     17  S   UNL     1       6.815   5.532  19.701  0.00  0.00    +0.000 S 
BRANCH  17  18
ATOM     18  C   UNL     1       7.482   6.325  18.218  0.00  0.00    +0.000 C 
BRANCH  18  20
ATOM     19  N   UNL     1       6.665   5.708  15.998  0.00  0.00    +0.000 N 
ATOM     20  C   UNL     1       7.463   5.330  17.071  0.00  0.00    +0.000 C 
ATOM     21  O   UNL     1       8.153   4.314  17.124  0.00  0.00    +0.000 OA
ATOM     22  H   UNL     1       6.281   6.647  16.010  0.00  0.00    +0.000 HD
BRANCH  19  26
ATOM     23  C   UNL     1       5.713   3.351  12.610  0.00  0.00    +0.000 A 
ATOM     24  C   UNL     1       6.897   4.087  12.635  0.00  0.00    +0.000 A 
ATOM     25  C   UNL     1       7.222   4.864  13.753  0.00  0.00    +0.000 A 
ATOM     26  C   UNL     1       6.377   4.919  14.862  0.00  0.00    +0.000 A 
ATOM     27  C   UNL     1       5.209   4.148  14.855  0.00  0.00    +0.000 A 
ATOM     28  C   UNL     1       4.871   3.381  13.729  0.00  0.00    +0.000 A 
BRANCH  23  30
ATOM     29  C   UNL     1       6.207   1.392  11.000  0.00  0.00    +0.000 C 
ATOM     30  C   UNL     1       5.323   2.543  11.417  0.00  0.00    +0.000 C 
ATOM     31  O   UNL     1       4.294   2.813  10.802  0.00  0.00    +0.000 OA
ENDBRANCH  23  30
ENDBRANCH  19  26
ENDBRANCH  18  20
ENDBRANCH  17  18
ENDBRANCH   1  17
TORSDOF 6
ENDMDL
MODEL 6
REMARK VINA RESULT:      -8.2      2.074      3.085
REMARK  Name = 
REMARK  7 active torsions:
REMARK  status: ('A' for Active; 'I' for Inactive)
REMARK    1  A    between atoms: C_1  and  C_2
REMARK    2  A    between atoms: C_2  and  C_4
REMARK    3  A    between atoms: C_7  and  N_8
REMARK    4  A    between atoms: C_9  and  C_11
REMARK    5  A    between atoms: C_11  and  S_12
REMARK    6  A    between atoms: S_12  and  C_13
REMARK    7  A    between atoms: C_19  and  C_20
REMARK                            x       y       z     vdW  Elec       q    Type
REMARK                         _______ _______ _______ _____ _____    ______ ____
ROOT
ATOM      1  C   UNL     1       3.658   3.417  17.680  0.00  0.00    +0.000 A 
ATOM      2  N   UNL     1       3.800   2.217  18.198  0.00  0.00    +0.000 NA
ATOM      3  N   UNL     1       3.298   2.260  19.487  0.00  0.00    +0.000 NA
ATOM      4  C   UNL     1       2.879   3.488  19.713  0.00  0.00    +0.000 A 
ATOM      5  C   UNL     1       2.350   4.127  20.853  0.00  0.00    +0.000 A 
ATOM      6  C   UNL     1       2.038   5.428  20.791  0.00  0.00    +0.000 A 
ATOM      7  C   UNL     1       2.249   6.140  19.489  0.00  0.00    +0.000 A 
ATOM      8  N   UNL     1       2.754   5.585  18.429  0.00  0.00    +0.000 NA
ATOM      9  N   UNL     1       3.060   4.260  18.585  0.00  0.00    +0.000 N 
ENDROOT
BRANCH   7  10
ATOM     10  C   UNL     1       1.897   7.593  19.427  0.00  0.00    +0.000 A 
ATOM     11  C   UNL     1       1.399   8.206  20.589  0.00  0.00    +0.000 A 
ATOM     12  C   UNL     1       1.023   9.551  20.579  0.00  0.00    +0.000 A 
ATOM     13  C   UNL     1       1.154  10.292  19.408  0.00  0.00    +0.000 A 
ATOM     14 BR   UNL     1       0.620  12.104  19.379  0.00  0.00    +0.000 Br
ATOM     15  C   UNL     1       1.676   9.706  18.256  0.00  0.00    +0.000 A 
ATOM     16  C   UNL     1       2.056   8.360  18.266  0.00  0.00    +0.000 A 
ENDBRANCH   7  10
BRANCH   1  17
ATOM     17  S   UNL     1       4.179   3.966  16.127  0.00  0.00    +0.000 S 
BRANCH  17  18
ATOM     18  C   UNL     1       5.919   3.469  16.151  0.00  0.00    +0.000 C 
BRANCH  18  20
ATOM     19  N   UNL     1       6.628   5.413  17.452  0.00  0.00    +0.000 N 
ATOM     20  C   UNL     1       6.788   4.709  16.265  0.00  0.00    +0.000 C 
ATOM     21  O   UNL     1       7.583   4.990  15.371  0.00  0.00    +0.000 OA
ATOM     22  H   UNL     1       6.063   4.982  18.178  0.00  0.00    +0.000 HD
BRANCH  19  26
ATOM     23  C   UNL     1       8.478   9.099  18.417  0.00  0.00    +0.000 A 
ATOM     24  C   UNL     1       7.505   9.049  17.420  0.00  0.00    +0.000 A 
ATOM     25  C   UNL     1       6.885   7.836  17.098  0.00  0.00    +0.000 A 
ATOM     26  C   UNL     1       7.221   6.657  17.765  0.00  0.00    +0.000 A 
ATOM     27  C   UNL     1       8.166   6.714  18.795  0.00  0.00    +0.000 A 
ATOM     28  C   UNL     1       8.802   7.924  19.109  0.00  0.00    +0.000 A 
BRANCH  23  30
ATOM     29  C   UNL     1       9.695  10.563  20.162  0.00  0.00    +0.000 C 
ATOM     30  C   UNL     1       9.182  10.371  18.756  0.00  0.00    +0.000 C 
ATOM     31  O   UNL     1       9.344  11.232  17.894  0.00  0.00    +0.000 OA
ENDBRANCH  23  30
ENDBRANCH  19  26
ENDBRANCH  18  20
ENDBRANCH  17  18
ENDBRANCH   1  17
TORSDOF 6
ENDMDL
MODEL 7
REMARK VINA RESULT:      -8.0      2.122      3.099
REMARK  Name = 
REMARK  7 active torsions:
REMARK  status: ('A' for Active; 'I' for Inactive)
REMARK    1  A    between atoms: C_1  and  C_2
REMARK    2  A    between atoms: C_2  and  C_4
REMARK    3  A    between atoms: C_7  and  N_8
REMARK    4  A    between atoms: C_9  and  C_11
REMARK    5  A    between atoms: C_11  and  S_12
REMARK    6  A    between atoms: S_12  and  C_13
REMARK    7  A    between atoms: C_19  and  C_20
REMARK                            x       y       z     vdW  Elec       q    Type
REMARK                         _______ _______ _______ _____ _____    ______ ____
ROOT
ATOM      1  C   UNL     1       3.697   3.472  17.692  0.00  0.00    +0.000 A 
ATOM      2  N   UNL     1       3.865   2.292  18.245  0.00  0.00    +0.000 NA
ATOM      3  N   UNL     1       3.377   2.366  19.538  0.00  0.00    +0.000 NA
ATOM      4  C   UNL     1       2.939   3.593  19.730  0.00  0.00    +0.000 A 
ATOM      5  C   UNL     1       2.410   4.259  20.855  0.00  0.00    +0.000 A 
ATOM      6  C   UNL     1       2.075   5.551  20.756  0.00  0.00    +0.000 A 
ATOM      7  C   UNL     1       2.259   6.226  19.430  0.00  0.00    +0.000 A 
ATOM      8  N   UNL     1       2.762   5.646  18.383  0.00  0.00    +0.000 NA
ATOM      9  N   UNL     1       3.093   4.333  18.576  0.00  0.00    +0.000 N 
ENDROOT
BRANCH   7  10
ATOM     10  C   UNL     1       1.880   7.669  19.327  0.00  0.00    +0.000 A 
ATOM     11  C   UNL     1       2.132   8.337  18.117  0.00  0.00    +0.000 A 
ATOM     12  C   UNL     1       1.830   9.693  17.975  0.00  0.00    +0.000 A 
ATOM     13  C   UNL     1       1.265  10.386  19.042  0.00  0.00    +0.000 A 
ATOM     14 BR   UNL     1       0.880  12.227  18.868  0.00  0.00    +0.000 Br
ATOM     15  C   UNL     1       0.980   9.729  20.239  0.00  0.00    +0.000 A 
ATOM     16  C   UNL     1       1.279   8.370  20.379  0.00  0.00    +0.000 A 
ENDBRANCH   7  10
BRANCH   1  17
ATOM     17  S   UNL     1       4.190   3.980  16.116  0.00  0.00    +0.000 S 
BRANCH  17  18
ATOM     18  C   UNL     1       5.916   3.435  16.102  0.00  0.00    +0.000 C 
BRANCH  18  20
ATOM     19  N   UNL     1       6.714   5.267  17.509  0.00  0.00    +0.000 N 
ATOM     20  C   UNL     1       6.820   4.642  16.272  0.00  0.00    +0.000 C 
ATOM     21  O   UNL     1       7.595   4.964  15.374  0.00  0.00    +0.000 OA
ATOM     22  H   UNL     1       6.160   4.802  18.221  0.00  0.00    +0.000 HD
BRANCH  19  26
ATOM     23  C   UNL     1       8.550   8.926  18.599  0.00  0.00    +0.000 A 
ATOM     24  C   UNL     1       8.778   7.779  19.359  0.00  0.00    +0.000 A 
ATOM     25  C   UNL     1       8.179   6.565  19.003  0.00  0.00    +0.000 A 
ATOM     26  C   UNL     1       7.348   6.472  17.886  0.00  0.00    +0.000 A 
ATOM     27  C   UNL     1       7.153   7.612  17.097  0.00  0.00    +0.000 A 
ATOM     28  C   UNL     1       7.738   8.835  17.461  0.00  0.00    +0.000 A 
BRANCH  23  30
ATOM     29  C   UNL     1       9.758  11.097  17.893  0.00  0.00    +0.000 C 
ATOM     30  C   UNL     1       9.145  10.241  18.976  0.00  0.00    +0.000 C 
ATOM     31  O   UNL     1       9.120  10.614  20.147  0.00  0.00    +0.000 OA
ENDBRANCH  23  30
ENDBRANCH  19  26
ENDBRANCH  18  20
ENDBRANCH  17  18
ENDBRANCH   1  17
TORSDOF 6
ENDMDL
MODEL 8
REMARK VINA RESULT:      -8.0      5.938     10.137
REMARK  Name = 
REMARK  7 active torsions:
REMARK  status: ('A' for Active; 'I' for Inactive)
REMARK    1  A    between atoms: C_1  and  C_2
REMARK    2  A    between atoms: C_2  and  C_4
REMARK    3  A    between atoms: C_7  and  N_8
REMARK    4  A    between atoms: C_9  and  C_11
REMARK    5  A    between atoms: C_11  and  S_12
REMARK    6  A    between atoms: S_12  and  C_13
REMARK    7  A    between atoms: C_19  and  C_20
REMARK                            x       y       z     vdW  Elec       q    Type
REMARK                         _______ _______ _______ _____ _____    ______ ____
ROOT
ATOM      1  C   UNL     1       1.263   9.475  19.696  0.00  0.00    +0.000 A 
ATOM      2  N   UNL     1       0.584   9.565  20.818  0.00  0.00    +0.000 NA
ATOM      3  N   UNL     1       0.692   8.347  21.466  0.00  0.00    +0.000 NA
ATOM      4  C   UNL     1       1.424   7.554  20.710  0.00  0.00    +0.000 A 
ATOM      5  C   UNL     1       1.801   6.200  20.821  0.00  0.00    +0.000 A 
ATOM      6  C   UNL     1       2.540   5.643  19.854  0.00  0.00    +0.000 A 
ATOM      7  C   UNL     1       2.954   6.505  18.700  0.00  0.00    +0.000 A 
ATOM      8  N   UNL     1       2.605   7.748  18.558  0.00  0.00    +0.000 NA
ATOM      9  N   UNL     1       1.837   8.232  19.582  0.00  0.00    +0.000 N 
ENDROOT
BRANCH   7  10
ATOM     10  C   UNL     1       3.781   5.876  17.624  0.00  0.00    +0.000 A 
ATOM     11  C   UNL     1       4.595   6.708  16.839  0.00  0.00    +0.000 A 
ATOM     12  C   UNL     1       5.363   6.179  15.799  0.00  0.00    +0.000 A 
ATOM     13  C   UNL     1       5.326   4.811  15.546  0.00  0.00    +0.000 A 
ATOM     14 BR   UNL     1       6.339   4.091  14.123  0.00  0.00    +0.000 Br
ATOM     15  C   UNL     1       4.547   3.967  16.337  0.00  0.00    +0.000 A 
ATOM     16  C   UNL     1       3.782   4.496  17.381  0.00  0.00    +0.000 A 
ENDBRANCH   7  10
BRANCH   1  17
ATOM     17  S   UNL     1       1.412  10.667  18.453  0.00  0.00    +0.000 S 
BRANCH  17  18
ATOM     18  C   UNL     1       1.237  12.190  19.413  0.00  0.00    +0.000 C 
BRANCH  18  20
ATOM     19  N   UNL     1      -1.148  11.924  19.877  0.00  0.00    +0.000 N 
ATOM     20  C   UNL     1      -0.181  12.712  19.264  0.00  0.00    +0.000 C 
ATOM     21  O   UNL     1      -0.391  13.772  18.679  0.00  0.00    +0.000 OA
ATOM     22  H   UNL     1      -0.826  11.165  20.469  0.00  0.00    +0.000 HD
BRANCH  19  26
ATOM     23  C   UNL     1      -5.344  12.418  19.568  0.00  0.00    +0.000 A 
ATOM     24  C   UNL     1      -4.675  12.852  20.712  0.00  0.00    +0.000 A 
ATOM     25  C   UNL     1      -3.288  12.697  20.820  0.00  0.00    +0.000 A 
ATOM     26  C   UNL     1      -2.546  12.112  19.793  0.00  0.00    +0.000 A 
ATOM     27  C   UNL     1      -3.211  11.716  18.626  0.00  0.00    +0.000 A 
ATOM     28  C   UNL     1      -4.603  11.854  18.521  0.00  0.00    +0.000 A 
BRANCH  23  30
ATOM     29  C   UNL     1      -7.693  11.430  19.991  0.00  0.00    +0.000 C 
ATOM     30  C   UNL     1      -6.826  12.537  19.440  0.00  0.00    +0.000 C 
ATOM     31  O   UNL     1      -7.319  13.527  18.904  0.00  0.00    +0.000 OA
ENDBRANCH  23  30
ENDBRANCH  19  26
ENDBRANCH  18  20
ENDBRANCH  17  18
ENDBRANCH   1  17
TORSDOF 6
ENDMDL
MODEL 9
REMARK VINA RESULT:      -7.9      6.216      9.802
REMARK  Name = 
REMARK  7 active torsions:
REMARK  status: ('A' for Active; 'I' for Inactive)
REMARK    1  A    between atoms: C_1  and  C_2
REMARK    2  A    between atoms: C_2  and  C_4
REMARK    3  A    between atoms: C_7  and  N_8
REMARK    4  A    between atoms: C_9  and  C_11
REMARK    5  A    between atoms: C_11  and  S_12
REMARK    6  A    between atoms: S_12  and  C_13
REMARK    7  A    between atoms: C_19  and  C_20
REMARK                            x       y       z     vdW  Elec       q    Type
REMARK                         _______ _______ _______ _____ _____    ______ ____
ROOT
ATOM      1  C   UNL     1       1.123   9.517  19.957  0.00  0.00    +0.000 A 
ATOM      2  N   UNL     1       0.441   9.543  21.080  0.00  0.00    +0.000 NA
ATOM      3  N   UNL     1       0.554   8.294  21.663  0.00  0.00    +0.000 NA
ATOM      4  C   UNL     1       1.292   7.546  20.869  0.00  0.00    +0.000 A 
ATOM      5  C   UNL     1       1.676   6.190  20.910  0.00  0.00    +0.000 A 
ATOM      6  C   UNL     1       2.421   5.688  19.917  0.00  0.00    +0.000 A 
ATOM      7  C   UNL     1       2.833   6.612  18.811  0.00  0.00    +0.000 A 
ATOM      8  N   UNL     1       2.477   7.859  18.734  0.00  0.00    +0.000 NA
ATOM      9  N   UNL     1       1.704   8.284  19.780  0.00  0.00    +0.000 N 
ENDROOT
BRANCH   7  10
ATOM     10  C   UNL     1       3.666   6.045  17.706  0.00  0.00    +0.000 A 
ATOM     11  C   UNL     1       3.639   4.656  17.499  0.00  0.00    +0.000 A 
ATOM     12  C   UNL     1       4.422   4.068  16.504  0.00  0.00    +0.000 A 
ATOM     13  C   UNL     1       5.230   4.870  15.702  0.00  0.00    +0.000 A 
ATOM     14 BR   UNL     1       6.315   4.080  14.373  0.00  0.00    +0.000 Br
ATOM     15  C   UNL     1       5.244   6.254  15.874  0.00  0.00    +0.000 A 
ATOM     16  C   UNL     1       4.456   6.843  16.869  0.00  0.00    +0.000 A 
ENDBRANCH   7  10
BRANCH   1  17
ATOM     17  S   UNL     1       1.269  10.773  18.779  0.00  0.00    +0.000 S 
BRANCH  17  18
ATOM     18  C   UNL     1      -0.188  10.457  17.755  0.00  0.00    +0.000 C 
BRANCH  18  20
ATOM     19  N   UNL     1      -1.379  11.776  19.432  0.00  0.00    +0.000 N 
ATOM     20  C   UNL     1      -1.439  10.674  18.588  0.00  0.00    +0.000 C 
ATOM     21  O   UNL     1      -2.408   9.932  18.451  0.00  0.00    +0.000 OA
ATOM     22  H   UNL     1      -0.588  12.402  19.328  0.00  0.00    +0.000 HD
BRANCH  19  26
ATOM     23  C   UNL     1      -4.221  12.876  22.375  0.00  0.00    +0.000 A 
ATOM     24  C   UNL     1      -4.559  12.938  21.024  0.00  0.00    +0.000 A 
ATOM     25  C   UNL     1      -3.628  12.571  20.045  0.00  0.00    +0.000 A 
ATOM     26  C   UNL     1      -2.349  12.136  20.395  0.00  0.00    +0.000 A 
ATOM     27  C   UNL     1      -2.023  12.032  21.752  0.00  0.00    +0.000 A 
ATOM     28  C   UNL     1      -2.949  12.414  22.736  0.00  0.00    +0.000 A 
BRANCH  23  30
ATOM     29  C   UNL     1      -5.380  14.768  23.696  0.00  0.00    +0.000 C 
ATOM     30  C   UNL     1      -5.181  13.295  23.438  0.00  0.00    +0.000 C 
ATOM     31  O   UNL     1      -5.799  12.445  24.077  0.00  0.00    +0.000 OA
ENDBRANCH  23  30
ENDBRANCH  19  26
ENDBRANCH  18  20
ENDBRANCH  17  18
ENDBRANCH   1  17
TORSDOF 6
ENDMDL
