MODEL 1
REMARK VINA RESULT:      -8.9      0.000      0.000
REMARK  Name = 
REMARK  9 active torsions:
REMARK  status: ('A' for Active; 'I' for Inactive)
REMARK    1  A    between atoms: C_1  and  C_2
REMARK    2  A    between atoms: C_4  and  O_5
REMARK    3  A    between atoms: O_5  and  C_6
REMARK    4  A    between atoms: C_6  and  C_7
REMARK    5  A    between atoms: C_8  and  C_9
REMARK    6  A    between atoms: C_10  and  C_11
REMARK    7  A    between atoms: C_26  and  N_27
REMARK    8  A    between atoms: N_27  and  C_28
REMARK    9  A    between atoms: C_28  and  C_29
REMARK                            x       y       z     vdW  Elec       q    Type
REMARK                         _______ _______ _______ _____ _____    ______ ____
ROOT
ATOM      1  C   UNL     1       2.933   2.596  17.533  0.00  0.00    +0.000 C 
ENDROOT
BRANCH   1   2
ATOM      2  C   UNL     1       4.060   3.314  16.950  0.00  0.00    +0.000 C 
ATOM      3  C   UNL     1       4.909   3.823  16.278  0.00  0.00    +0.000 C 
BRANCH   3   4
ATOM      4  C   UNL     1       5.909   4.319  15.381  0.00  0.00    +0.000 A 
ATOM      5  C   UNL     1       6.889   5.229  15.731  0.00  0.00    +0.000 A 
ATOM      6  O   UNL     1       7.610   5.566  14.600  0.00  0.00    +0.000 OA
ATOM      7  C   UNL     1       7.116   4.799  13.575  0.00  0.00    +0.000 A 
ATOM      8  C   UNL     1       7.547   4.816  12.250  0.00  0.00    +0.000 A 
ATOM      9  C   UNL     1       6.920   3.916  11.372  0.00  0.00    +0.000 A 
ATOM     10  C   UNL     1       5.928   3.039  11.813  0.00  0.00    +0.000 A 
ATOM     11  C   UNL     1       5.500   3.056  13.144  0.00  0.00    +0.000 A 
ATOM     12  C   UNL     1       6.098   3.971  14.033  0.00  0.00    +0.000 A 
BRANCH   5  13
ATOM     13  C   UNL     1       7.224   5.873  16.991  0.00  0.00    +0.000 A 
ATOM     14  C   UNL     1       7.453   7.262  17.006  0.00  0.00    +0.000 A 
ATOM     15  C   UNL     1       8.035   7.889  18.107  0.00  0.00    +0.000 A 
ATOM     16  C   UNL     1       8.351   7.138  19.233  0.00  0.00    +0.000 A 
ATOM     17  C   UNL     1       8.043   5.777  19.271  0.00  0.00    +0.000 A 
ATOM     18  C   UNL     1       7.476   5.146  18.155  0.00  0.00    +0.000 A 
ENDBRANCH   5  13
ENDBRANCH   3   4
ENDBRANCH   1   2
BRANCH   1  19
ATOM     19  O   UNL     1       2.717   2.934  18.910  0.00  0.00    +0.000 OA
BRANCH  19  23
ATOM     20  C   UNL     1       3.280   7.004  18.064  0.00  0.00    +0.000 C 
ATOM     21  C   UNL     1       2.893   5.868  19.003  0.00  0.00    +0.000 C 
ATOM     22  O   UNL     1       1.904   5.074  18.323  0.00  0.00    +0.000 OA
ATOM     23  C   UNL     1       1.614   3.846  18.986  0.00  0.00    +0.000 C 
ATOM     24  C   UNL     1       1.160   4.080  20.428  0.00  0.00    +0.000 C 
ATOM     25  C   UNL     1       2.087   5.029  21.184  0.00  0.00    +0.000 C 
ATOM     26  C   UNL     1       2.350   6.324  20.388  0.00  0.00    +0.000 C 
BRANCH  26  27
ATOM     27  N   UNL     1       1.152   7.177  20.233  0.00  0.00    +0.000 NA
ATOM     28  H   UNL     1       0.428   6.857  20.875  0.00  0.00    +0.000 HD
BRANCH  27  29
ATOM     29  C   UNL     1       1.411   8.612  20.383  0.00  0.00    +0.000 C 
BRANCH  29  30
ATOM     30  C   UNL     1       0.350   9.495  19.680  0.00  0.00    +0.000 C 
ATOM     31  C   UNL     1      -0.011  10.774  20.456  0.00  0.00    +0.000 C 
ATOM     32  C   UNL     1       1.118  11.803  20.479  0.00  0.00    +0.000 C 
ATOM     33  C   UNL     1       1.615  12.148  19.080  0.00  0.00    +0.000 C 
ATOM     34  C   UNL     1       1.936  10.917  18.240  0.00  0.00    +0.000 C 
ATOM     35  C   UNL     1       0.811   9.881  18.259  0.00  0.00    +0.000 C 
ENDBRANCH  29  30
ENDBRANCH  27  29
ENDBRANCH  26  27
ENDBRANCH  19  23
ENDBRANCH   1  19
TORSDOF 8
ENDMDL
MODEL 2
REMARK VINA RESULT:      -8.7      3.112      5.957
REMARK  Name = 
REMARK  9 active torsions:
REMARK  status: ('A' for Active; 'I' for Inactive)
REMARK    1  A    between atoms: C_1  and  C_2
REMARK    2  A    between atoms: C_4  and  O_5
REMARK    3  A    between atoms: O_5  and  C_6
REMARK    4  A    between atoms: C_6  and  C_7
REMARK    5  A    between atoms: C_8  and  C_9
REMARK    6  A    between atoms: C_10  and  C_11
REMARK    7  A    between atoms: C_26  and  N_27
REMARK    8  A    between atoms: N_27  and  C_28
REMARK    9  A    between atoms: C_28  and  C_29
REMARK                            x       y       z     vdW  Elec       q    Type
REMARK                         _______ _______ _______ _____ _____    ______ ____
ROOT
ATOM      1  C   UNL     1       2.086   9.320  18.343  0.00  0.00    +0.000 C 
ENDROOT
BRANCH   1   2
ATOM      2  C   UNL     1       2.568   7.971  18.076  0.00  0.00    +0.000 C 
ATOM      3  C   UNL     1       2.918   6.826  18.070  0.00  0.00    +0.000 C 
BRANCH   3   4
ATOM      4  C   UNL     1       3.371   5.475  18.206  0.00  0.00    +0.000 A 
ATOM      5  C   UNL     1       4.698   5.089  18.165  0.00  0.00    +0.000 A 
ATOM      6  O   UNL     1       4.764   3.709  18.220  0.00  0.00    +0.000 OA
ATOM      7  C   UNL     1       3.477   3.260  18.372  0.00  0.00    +0.000 A 
ATOM      8  C   UNL     1       3.073   1.929  18.466  0.00  0.00    +0.000 A 
ATOM      9  C   UNL     1       1.701   1.698  18.655  0.00  0.00    +0.000 A 
ATOM     10  C   UNL     1       0.792   2.752  18.760  0.00  0.00    +0.000 A 
ATOM     11  C   UNL     1       1.221   4.079  18.643  0.00  0.00    +0.000 A 
ATOM     12  C   UNL     1       2.590   4.328  18.425  0.00  0.00    +0.000 A 
BRANCH   5  13
ATOM     13  C   UNL     1       5.934   5.844  18.037  0.00  0.00    +0.000 A 
ATOM     14  C   UNL     1       6.986   5.587  18.937  0.00  0.00    +0.000 A 
ATOM     15  C   UNL     1       8.078   6.447  19.041  0.00  0.00    +0.000 A 
ATOM     16  C   UNL     1       8.157   7.556  18.206  0.00  0.00    +0.000 A 
ATOM     17  C   UNL     1       7.170   7.773  17.243  0.00  0.00    +0.000 A 
ATOM     18  C   UNL     1       6.064   6.918  17.154  0.00  0.00    +0.000 A 
ENDBRANCH   5  13
ENDBRANCH   3   4
ENDBRANCH   1   2
BRANCH   1  19
ATOM     19  O   UNL     1       0.837   9.599  17.697  0.00  0.00    +0.000 OA
BRANCH  19  23
ATOM     20  C   UNL     1      -2.961  11.046  16.657  0.00  0.00    +0.000 C 
ATOM     21  C   UNL     1      -1.644  11.153  17.417  0.00  0.00    +0.000 C 
ATOM     22  O   UNL     1      -1.464   9.916  18.130  0.00  0.00    +0.000 OA
ATOM     23  C   UNL     1      -0.166   9.780  18.704  0.00  0.00    +0.000 C 
ATOM     24  C   UNL     1       0.161  10.947  19.638  0.00  0.00    +0.000 C 
ATOM     25  C   UNL     1      -0.133  12.303  19.000  0.00  0.00    +0.000 C 
ATOM     26  C   UNL     1      -1.554  12.354  18.400  0.00  0.00    +0.000 C 
BRANCH  26  27
ATOM     27  N   UNL     1      -2.628  12.290  19.416  0.00  0.00    +0.000 NA
ATOM     28  H   UNL     1      -2.758  11.321  19.703  0.00  0.00    +0.000 HD
BRANCH  27  29
ATOM     29  C   UNL     1      -2.422  13.172  20.567  0.00  0.00    +0.000 C 
BRANCH  29  30
ATOM     30  C   UNL     1      -2.627  12.454  21.924  0.00  0.00    +0.000 C 
ATOM     31  C   UNL     1      -1.399  12.511  22.852  0.00  0.00    +0.000 C 
ATOM     32  C   UNL     1      -1.130  13.909  23.408  0.00  0.00    +0.000 C 
ATOM     33  C   UNL     1      -2.353  14.503  24.099  0.00  0.00    +0.000 C 
ATOM     34  C   UNL     1      -3.616  14.423  23.249  0.00  0.00    +0.000 C 
ATOM     35  C   UNL     1      -3.850  13.026  22.671  0.00  0.00    +0.000 C 
ENDBRANCH  29  30
ENDBRANCH  27  29
ENDBRANCH  26  27
ENDBRANCH  19  23
ENDBRANCH   1  19
TORSDOF 8
ENDMDL
MODEL 3
REMARK VINA RESULT:      -8.6      3.193      6.544
REMARK  Name = 
REMARK  9 active torsions:
REMARK  status: ('A' for Active; 'I' for Inactive)
REMARK    1  A    between atoms: C_1  and  C_2
REMARK    2  A    between atoms: C_4  and  O_5
REMARK    3  A    between atoms: O_5  and  C_6
REMARK    4  A    between atoms: C_6  and  C_7
REMARK    5  A    between atoms: C_8  and  C_9
REMARK    6  A    between atoms: C_10  and  C_11
REMARK    7  A    between atoms: C_26  and  N_27
REMARK    8  A    between atoms: N_27  and  C_28
REMARK    9  A    between atoms: C_28  and  C_29
REMARK                            x       y       z     vdW  Elec       q    Type
REMARK                         _______ _______ _______ _____ _____    ______ ____
ROOT
ATOM      1  C   UNL     1       2.068   9.226  17.723  0.00  0.00    +0.000 C 
ENDROOT
BRANCH   1   2
ATOM      2  C   UNL     1       2.655   7.919  17.988  0.00  0.00    +0.000 C 
ATOM      3  C   UNL     1       2.938   6.767  18.143  0.00  0.00    +0.000 C 
BRANCH   3   4
ATOM      4  C   UNL     1       3.134   5.365  18.359  0.00  0.00    +0.000 A 
ATOM      5  C   UNL     1       4.039   4.587  17.661  0.00  0.00    +0.000 A 
ATOM      6  O   UNL     1       3.887   3.268  18.048  0.00  0.00    +0.000 OA
ATOM      7  C   UNL     1       2.940   3.257  19.041  0.00  0.00    +0.000 A 
ATOM      8  C   UNL     1       2.469   2.134  19.719  0.00  0.00    +0.000 A 
ATOM      9  C   UNL     1       1.519   2.360  20.729  0.00  0.00    +0.000 A 
ATOM     10  C   UNL     1       1.085   3.647  21.046  0.00  0.00    +0.000 A 
ATOM     11  C   UNL     1       1.558   4.756  20.337  0.00  0.00    +0.000 A 
ATOM     12  C   UNL     1       2.491   4.545  19.302  0.00  0.00    +0.000 A 
BRANCH   5  13
ATOM     13  C   UNL     1       5.015   4.904  16.631  0.00  0.00    +0.000 A 
ATOM     14  C   UNL     1       4.886   4.307  15.363  0.00  0.00    +0.000 A 
ATOM     15  C   UNL     1       5.920   4.354  14.430  0.00  0.00    +0.000 A 
ATOM     16  C   UNL     1       7.087   5.045  14.737  0.00  0.00    +0.000 A 
ATOM     17  C   UNL     1       7.194   5.722  15.953  0.00  0.00    +0.000 A 
ATOM     18  C   UNL     1       6.160   5.658  16.896  0.00  0.00    +0.000 A 
ENDBRANCH   5  13
ENDBRANCH   3   4
ENDBRANCH   1   2
BRANCH   1  19
ATOM     19  O   UNL     1       0.929   9.499  18.551  0.00  0.00    +0.000 OA
BRANCH  19  23
ATOM     20  C   UNL     1      -0.142   9.867  22.590  0.00  0.00    +0.000 C 
ATOM     21  C   UNL     1      -0.254  10.281  21.127  0.00  0.00    +0.000 C 
ATOM     22  O   UNL     1       1.080  10.553  20.661  0.00  0.00    +0.000 OA
ATOM     23  C   UNL     1       1.158  10.729  19.248  0.00  0.00    +0.000 C 
ATOM     24  C   UNL     1       0.225  11.844  18.769  0.00  0.00    +0.000 C 
ATOM     25  C   UNL     1      -1.187  11.704  19.334  0.00  0.00    +0.000 C 
ATOM     26  C   UNL     1      -1.171  11.509  20.865  0.00  0.00    +0.000 C 
BRANCH  26  27
ATOM     27  N   UNL     1      -0.695  12.696  21.608  0.00  0.00    +0.000 NA
ATOM     28  H   UNL     1      -0.242  13.338  20.959  0.00  0.00    +0.000 HD
BRANCH  27  29
ATOM     29  C   UNL     1      -1.729  13.366  22.400  0.00  0.00    +0.000 C 
BRANCH  29  30
ATOM     30  C   UNL     1      -3.068  12.587  22.430  0.00  0.00    +0.000 C 
ATOM     31  C   UNL     1      -3.571  12.266  23.849  0.00  0.00    +0.000 C 
ATOM     32  C   UNL     1      -4.045  13.501  24.613  0.00  0.00    +0.000 C 
ATOM     33  C   UNL     1      -5.093  14.293  23.840  0.00  0.00    +0.000 C 
ATOM     34  C   UNL     1      -4.675  14.593  22.404  0.00  0.00    +0.000 C 
ATOM     35  C   UNL     1      -4.168  13.353  21.667  0.00  0.00    +0.000 C 
ENDBRANCH  29  30
ENDBRANCH  27  29
ENDBRANCH  26  27
ENDBRANCH  19  23
ENDBRANCH   1  19
TORSDOF 8
ENDMDL
MODEL 4
REMARK VINA RESULT:      -8.6      3.220      6.056
REMARK  Name = 
REMARK  9 active torsions:
REMARK  status: ('A' for Active; 'I' for Inactive)
REMARK    1  A    between atoms: C_1  and  C_2
REMARK    2  A    between atoms: C_4  and  O_5
REMARK    3  A    between atoms: O_5  and  C_6
REMARK    4  A    between atoms: C_6  and  C_7
REMARK    5  A    between atoms: C_8  and  C_9
REMARK    6  A    between atoms: C_10  and  C_11
REMARK    7  A    between atoms: C_26  and  N_27
REMARK    8  A    between atoms: N_27  and  C_28
REMARK    9  A    between atoms: C_28  and  C_29
REMARK                            x       y       z     vdW  Elec       q    Type
REMARK                         _______ _______ _______ _____ _____    ______ ____
ROOT
ATOM      1  C   UNL     1       2.000   9.244  18.073  0.00  0.00    +0.000 C 
ENDROOT
BRANCH   1   2
ATOM      2  C   UNL     1       2.546   7.904  17.896  0.00  0.00    +0.000 C 
ATOM      3  C   UNL     1       2.923   6.771  17.958  0.00  0.00    +0.000 C 
BRANCH   3   4
ATOM      4  C   UNL     1       3.392   5.436  18.178  0.00  0.00    +0.000 A 
ATOM      5  C   UNL     1       4.724   5.069  18.191  0.00  0.00    +0.000 A 
ATOM      6  O   UNL     1       4.808   3.695  18.322  0.00  0.00    +0.000 OA
ATOM      7  C   UNL     1       3.524   3.234  18.466  0.00  0.00    +0.000 A 
ATOM      8  C   UNL     1       3.137   1.904  18.622  0.00  0.00    +0.000 A 
ATOM      9  C   UNL     1       1.763   1.663  18.789  0.00  0.00    +0.000 A 
ATOM     10  C   UNL     1       0.838   2.708  18.815  0.00  0.00    +0.000 A 
ATOM     11  C   UNL     1       1.250   4.032  18.637  0.00  0.00    +0.000 A 
ATOM     12  C   UNL     1       2.621   4.290  18.440  0.00  0.00    +0.000 A 
BRANCH   5  13
ATOM     13  C   UNL     1       5.953   5.834  18.052  0.00  0.00    +0.000 A 
ATOM     14  C   UNL     1       7.011   5.593  18.950  0.00  0.00    +0.000 A 
ATOM     15  C   UNL     1       8.095   6.463  19.043  0.00  0.00    +0.000 A 
ATOM     16  C   UNL     1       8.160   7.567  18.202  0.00  0.00    +0.000 A 
ATOM     17  C   UNL     1       7.167   7.769  17.241  0.00  0.00    +0.000 A 
ATOM     18  C   UNL     1       6.069   6.903  17.162  0.00  0.00    +0.000 A 
ENDBRANCH   5  13
ENDBRANCH   3   4
ENDBRANCH   1   2
BRANCH   1  19
ATOM     19  O   UNL     1       1.061   9.319  19.155  0.00  0.00    +0.000 OA
BRANCH  19  23
ATOM     20  C   UNL     1      -0.452   9.621  23.056  0.00  0.00    +0.000 C 
ATOM     21  C   UNL     1      -0.299  10.138  21.630  0.00  0.00    +0.000 C 
ATOM     22  O   UNL     1       1.111  10.196  21.349  0.00  0.00    +0.000 OA
ATOM     23  C   UNL     1       1.402  10.443  19.975  0.00  0.00    +0.000 C 
ATOM     24  C   UNL     1       0.742  11.734  19.485  0.00  0.00    +0.000 C 
ATOM     25  C   UNL     1      -0.734  11.814  19.866  0.00  0.00    +0.000 C 
ATOM     26  C   UNL     1      -0.953  11.524  21.366  0.00  0.00    +0.000 C 
BRANCH  26  27
ATOM     27  N   UNL     1      -0.383  12.558  22.258  0.00  0.00    +0.000 NA
ATOM     28  H   UNL     1       0.522  12.852  21.893  0.00  0.00    +0.000 HD
BRANCH  27  29
ATOM     29  C   UNL     1      -1.268  13.702  22.495  0.00  0.00    +0.000 C 
BRANCH  29  30
ATOM     30  C   UNL     1      -2.156  13.529  23.752  0.00  0.00    +0.000 C 
ATOM     31  C   UNL     1      -2.846  14.826  24.213  0.00  0.00    +0.000 C 
ATOM     32  C   UNL     1      -3.943  15.296  23.260  0.00  0.00    +0.000 C 
ATOM     33  C   UNL     1      -4.976  14.208  22.985  0.00  0.00    +0.000 C 
ATOM     34  C   UNL     1      -4.350  12.879  22.579  0.00  0.00    +0.000 C 
ATOM     35  C   UNL     1      -3.228  12.443  23.523  0.00  0.00    +0.000 C 
ENDBRANCH  29  30
ENDBRANCH  27  29
ENDBRANCH  26  27
ENDBRANCH  19  23
ENDBRANCH   1  19
TORSDOF 8
ENDMDL
MODEL 5
REMARK VINA RESULT:      -8.5      3.335      6.117
REMARK  Name = 
REMARK  9 active torsions:
REMARK  status: ('A' for Active; 'I' for Inactive)
REMARK    1  A    between atoms: C_1  and  C_2
REMARK    2  A    between atoms: C_4  and  O_5
REMARK    3  A    between atoms: O_5  and  C_6
REMARK    4  A    between atoms: C_6  and  C_7
REMARK    5  A    between atoms: C_8  and  C_9
REMARK    6  A    between atoms: C_10  and  C_11
REMARK    7  A    between atoms: C_26  and  N_27
REMARK    8  A    between atoms: N_27  and  C_28
REMARK    9  A    between atoms: C_28  and  C_29
REMARK                            x       y       z     vdW  Elec       q    Type
REMARK                         _______ _______ _______ _____ _____    ______ ____
ROOT
ATOM      1  C   UNL     1       1.857   9.142  17.767  0.00  0.00    +0.000 C 
ENDROOT
BRANCH   1   2
ATOM      2  C   UNL     1       2.456   7.880  18.180  0.00  0.00    +0.000 C 
ATOM      3  C   UNL     1       2.917   6.783  18.309  0.00  0.00    +0.000 C 
BRANCH   3   4
ATOM      4  C   UNL     1       3.376   5.427  18.355  0.00  0.00    +0.000 A 
ATOM      5  C   UNL     1       4.698   5.046  18.224  0.00  0.00    +0.000 A 
ATOM      6  O   UNL     1       4.767   3.665  18.208  0.00  0.00    +0.000 OA
ATOM      7  C   UNL     1       3.489   3.206  18.406  0.00  0.00    +0.000 A 
ATOM      8  C   UNL     1       3.090   1.872  18.457  0.00  0.00    +0.000 A 
ATOM      9  C   UNL     1       1.730   1.630  18.707  0.00  0.00    +0.000 A 
ATOM     10  C   UNL     1       0.829   2.676  18.912  0.00  0.00    +0.000 A 
ATOM     11  C   UNL     1       1.251   4.007  18.837  0.00  0.00    +0.000 A 
ATOM     12  C   UNL     1       2.607   4.269  18.559  0.00  0.00    +0.000 A 
BRANCH   5  13
ATOM     13  C   UNL     1       5.927   5.808  18.067  0.00  0.00    +0.000 A 
ATOM     14  C   UNL     1       6.999   5.562  18.945  0.00  0.00    +0.000 A 
ATOM     15  C   UNL     1       8.087   6.430  19.023  0.00  0.00    +0.000 A 
ATOM     16  C   UNL     1       8.141   7.536  18.183  0.00  0.00    +0.000 A 
ATOM     17  C   UNL     1       7.132   7.743  17.240  0.00  0.00    +0.000 A 
ATOM     18  C   UNL     1       6.030   6.880  17.177  0.00  0.00    +0.000 A 
ENDBRANCH   5  13
ENDBRANCH   3   4
ENDBRANCH   1   2
BRANCH   1  19
ATOM     19  O   UNL     1       1.826  10.111  18.824  0.00  0.00    +0.000 OA
BRANCH  19  23
ATOM     20  C   UNL     1      -1.839  11.794  17.673  0.00  0.00    +0.000 C 
ATOM     21  C   UNL     1      -0.689  11.625  18.658  0.00  0.00    +0.000 C 
ATOM     22  O   UNL     1      -0.534  10.212  18.889  0.00  0.00    +0.000 OA
ATOM     23  C   UNL     1       0.652   9.887  19.612  0.00  0.00    +0.000 C 
ATOM     24  C   UNL     1       0.710  10.621  20.953  0.00  0.00    +0.000 C 
ATOM     25  C   UNL     1       0.418  12.113  20.814  0.00  0.00    +0.000 C 
ATOM     26  C   UNL     1      -0.875  12.368  20.011  0.00  0.00    +0.000 C 
BRANCH  26  27
ATOM     27  N   UNL     1      -2.101  11.913  20.703  0.00  0.00    +0.000 NA
ATOM     28  H   UNL     1      -1.845  11.252  21.436  0.00  0.00    +0.000 HD
BRANCH  27  29
ATOM     29  C   UNL     1      -2.939  12.997  21.221  0.00  0.00    +0.000 C 
BRANCH  29  30
ATOM     30  C   UNL     1      -3.726  12.599  22.494  0.00  0.00    +0.000 C 
ATOM     31  C   UNL     1      -3.102  13.120  23.802  0.00  0.00    +0.000 C 
ATOM     32  C   UNL     1      -3.221  14.634  23.964  0.00  0.00    +0.000 C 
ATOM     33  C   UNL     1      -4.659  15.121  23.825  0.00  0.00    +0.000 C 
ATOM     34  C   UNL     1      -5.351  14.590  22.574  0.00  0.00    +0.000 C 
ATOM     35  C   UNL     1      -5.190  13.078  22.409  0.00  0.00    +0.000 C 
ENDBRANCH  29  30
ENDBRANCH  27  29
ENDBRANCH  26  27
ENDBRANCH  19  23
ENDBRANCH   1  19
TORSDOF 8
ENDMDL
MODEL 6
REMARK VINA RESULT:      -8.5      4.755      8.432
REMARK  Name = 
REMARK  9 active torsions:
REMARK  status: ('A' for Active; 'I' for Inactive)
REMARK    1  A    between atoms: C_1  and  C_2
REMARK    2  A    between atoms: C_4  and  O_5
REMARK    3  A    between atoms: O_5  and  C_6
REMARK    4  A    between atoms: C_6  and  C_7
REMARK    5  A    between atoms: C_8  and  C_9
REMARK    6  A    between atoms: C_10  and  C_11
REMARK    7  A    between atoms: C_26  and  N_27
REMARK    8  A    between atoms: N_27  and  C_28
REMARK    9  A    between atoms: C_28  and  C_29
REMARK                            x       y       z     vdW  Elec       q    Type
REMARK                         _______ _______ _______ _____ _____    ______ ____
ROOT
ATOM      1  C   UNL     1       8.655   8.146  18.477  0.00  0.00    +0.000 C 
ENDROOT
BRANCH   1   2
ATOM      2  C   UNL     1       8.811   9.579  18.697  0.00  0.00    +0.000 C 
ATOM      3  C   UNL     1       9.155  10.715  18.845  0.00  0.00    +0.000 C 
BRANCH   3   4
ATOM      4  C   UNL     1       9.696  12.021  19.072  0.00  0.00    +0.000 A 
ATOM      5  C   UNL     1       9.349  12.836  20.134  0.00  0.00    +0.000 A 
ATOM      6  O   UNL     1       9.977  14.058  19.983  0.00  0.00    +0.000 OA
ATOM      7  C   UNL     1      10.768  13.959  18.866  0.00  0.00    +0.000 A 
ATOM      8  C   UNL     1      11.577  14.963  18.337  0.00  0.00    +0.000 A 
ATOM      9  C   UNL     1      12.333  14.629  17.201  0.00  0.00    +0.000 A 
ATOM     10  C   UNL     1      12.287  13.350  16.645  0.00  0.00    +0.000 A 
ATOM     11  C   UNL     1      11.451  12.366  17.184  0.00  0.00    +0.000 A 
ATOM     12  C   UNL     1      10.665  12.692  18.306  0.00  0.00    +0.000 A 
BRANCH   5  13
ATOM     13  C   UNL     1       8.462  12.641  21.269  0.00  0.00    +0.000 A 
ATOM     14  C   UNL     1       7.510  13.634  21.568  0.00  0.00    +0.000 A 
ATOM     15  C   UNL     1       6.823  13.639  22.781  0.00  0.00    +0.000 A 
ATOM     16  C   UNL     1       7.046  12.617  23.697  0.00  0.00    +0.000 A 
ATOM     17  C   UNL     1       7.916  11.574  23.377  0.00  0.00    +0.000 A 
ATOM     18  C   UNL     1       8.619  11.581  22.165  0.00  0.00    +0.000 A 
ENDBRANCH   5  13
ENDBRANCH   3   4
ENDBRANCH   1   2
BRANCH   1  19
ATOM     19  O   UNL     1       7.476   7.829  17.724  0.00  0.00    +0.000 OA
BRANCH  19  23
ATOM     20  C   UNL     1       7.115   4.914  14.729  0.00  0.00    +0.000 C 
ATOM     21  C   UNL     1       6.531   5.777  15.841  0.00  0.00    +0.000 C 
ATOM     22  O   UNL     1       7.354   5.581  17.006  0.00  0.00    +0.000 OA
ATOM     23  C   UNL     1       7.067   6.498  18.059  0.00  0.00    +0.000 C 
ATOM     24  C   UNL     1       5.595   6.435  18.472  0.00  0.00    +0.000 C 
ATOM     25  C   UNL     1       4.651   6.499  17.274  0.00  0.00    +0.000 C 
ATOM     26  C   UNL     1       5.043   5.480  16.184  0.00  0.00    +0.000 C 
BRANCH  26  27
ATOM     27  N   UNL     1       4.865   4.071  16.599  0.00  0.00    +0.000 NA
ATOM     28  H   UNL     1       5.581   3.831  17.283  0.00  0.00    +0.000 HD
BRANCH  27  29
ATOM     29  C   UNL     1       3.521   3.753  17.088  0.00  0.00    +0.000 C 
BRANCH  29  30
ATOM     30  C   UNL     1       3.533   2.820  18.325  0.00  0.00    +0.000 C 
ATOM     31  C   UNL     1       3.727   3.559  19.661  0.00  0.00    +0.000 C 
ATOM     32  C   UNL     1       2.519   4.403  20.064  0.00  0.00    +0.000 C 
ATOM     33  C   UNL     1       1.226   3.594  20.081  0.00  0.00    +0.000 C 
ATOM     34  C   UNL     1       1.007   2.793  18.802  0.00  0.00    +0.000 C 
ATOM     35  C   UNL     1       2.238   1.984  18.395  0.00  0.00    +0.000 C 
ENDBRANCH  29  30
ENDBRANCH  27  29
ENDBRANCH  26  27
ENDBRANCH  19  23
ENDBRANCH   1  19
TORSDOF 8
ENDMDL
MODEL 7
REMARK VINA RESULT:      -8.5      3.290      6.631
REMARK  Name = 
REMARK  9 active torsions:
REMARK  status: ('A' for Active; 'I' for Inactive)
REMARK    1  A    between atoms: C_1  and  C_2
REMARK    2  A    between atoms: C_4  and  O_5
REMARK    3  A    between atoms: O_5  and  C_6
REMARK    4  A    between atoms: C_6  and  C_7
REMARK    5  A    between atoms: C_8  and  C_9
REMARK    6  A    between atoms: C_10  and  C_11
REMARK    7  A    between atoms: C_26  and  N_27
REMARK    8  A    between atoms: N_27  and  C_28
REMARK    9  A    between atoms: C_28  and  C_29
REMARK                            x       y       z     vdW  Elec       q    Type
REMARK                         _______ _______ _______ _____ _____    ______ ____
ROOT
ATOM      1  C   UNL     1       1.876   9.145  17.732  0.00  0.00    +0.000 C 
ENDROOT
BRANCH   1   2
ATOM      2  C   UNL     1       2.518   7.846  17.889  0.00  0.00    +0.000 C 
ATOM      3  C   UNL     1       2.842   6.708  18.069  0.00  0.00    +0.000 C 
BRANCH   3   4
ATOM      4  C   UNL     1       3.117   5.339  18.384  0.00  0.00    +0.000 A 
ATOM      5  C   UNL     1       4.073   4.569  17.747  0.00  0.00    +0.000 A 
ATOM      6  O   UNL     1       3.995   3.274  18.224  0.00  0.00    +0.000 OA
ATOM      7  C   UNL     1       3.040   3.275  19.210  0.00  0.00    +0.000 A 
ATOM      8  C   UNL     1       2.629   2.176  19.961  0.00  0.00    +0.000 A 
ATOM      9  C   UNL     1       1.657   2.414  20.946  0.00  0.00    +0.000 A 
ATOM     10  C   UNL     1       1.144   3.692  21.170  0.00  0.00    +0.000 A 
ATOM     11  C   UNL     1       1.559   4.775  20.388  0.00  0.00    +0.000 A 
ATOM     12  C   UNL     1       2.513   4.550  19.377  0.00  0.00    +0.000 A 
BRANCH   5  13
ATOM     13  C   UNL     1       5.040   4.872  16.704  0.00  0.00    +0.000 A 
ATOM     14  C   UNL     1       4.937   4.209  15.466  0.00  0.00    +0.000 A 
ATOM     15  C   UNL     1       5.972   4.249  14.534  0.00  0.00    +0.000 A 
ATOM     16  C   UNL     1       7.111   4.997  14.808  0.00  0.00    +0.000 A 
ATOM     17  C   UNL     1       7.189   5.737  15.989  0.00  0.00    +0.000 A 
ATOM     18  C   UNL     1       6.156   5.680  16.933  0.00  0.00    +0.000 A 
ENDBRANCH   5  13
ENDBRANCH   3   4
ENDBRANCH   1   2
BRANCH   1  19
ATOM     19  O   UNL     1       1.661   9.809  18.985  0.00  0.00    +0.000 OA
BRANCH  19  23
ATOM     20  C   UNL     1       0.264  13.763  18.919  0.00  0.00    +0.000 C 
ATOM     21  C   UNL     1       0.452  12.417  19.606  0.00  0.00    +0.000 C 
ATOM     22  O   UNL     1      -0.056  11.410  18.712  0.00  0.00    +0.000 OA
ATOM     23  C   UNL     1       0.261  10.081  19.121  0.00  0.00    +0.000 C 
ATOM     24  C   UNL     1      -0.246   9.793  20.535  0.00  0.00    +0.000 C 
ATOM     25  C   UNL     1       0.135  10.891  21.526  0.00  0.00    +0.000 C 
ATOM     26  C   UNL     1      -0.237  12.292  20.995  0.00  0.00    +0.000 C 
BRANCH  26  27
ATOM     27  N   UNL     1      -1.695  12.515  20.886  0.00  0.00    +0.000 NA
ATOM     28  H   UNL     1      -2.066  11.941  20.131  0.00  0.00    +0.000 HD
BRANCH  27  29
ATOM     29  C   UNL     1      -2.431  12.306  22.136  0.00  0.00    +0.000 C 
BRANCH  29  30
ATOM     30  C   UNL     1      -3.105  13.597  22.665  0.00  0.00    +0.000 C 
ATOM     31  C   UNL     1      -4.457  13.912  22.000  0.00  0.00    +0.000 C 
ATOM     32  C   UNL     1      -5.565  12.936  22.395  0.00  0.00    +0.000 C 
ATOM     33  C   UNL     1      -5.724  12.823  23.908  0.00  0.00    +0.000 C 
ATOM     34  C   UNL     1      -4.405  12.568  24.629  0.00  0.00    +0.000 C 
ATOM     35  C   UNL     1      -3.299  13.530  24.194  0.00  0.00    +0.000 C 
ENDBRANCH  29  30
ENDBRANCH  27  29
ENDBRANCH  26  27
ENDBRANCH  19  23
ENDBRANCH   1  19
TORSDOF 8
ENDMDL
MODEL 8
REMARK VINA RESULT:      -8.5      3.114      5.883
REMARK  Name = 
REMARK  9 active torsions:
REMARK  status: ('A' for Active; 'I' for Inactive)
REMARK    1  A    between atoms: C_1  and  C_2
REMARK    2  A    between atoms: C_4  and  O_5
REMARK    3  A    between atoms: O_5  and  C_6
REMARK    4  A    between atoms: C_6  and  C_7
REMARK    5  A    between atoms: C_8  and  C_9
REMARK    6  A    between atoms: C_10  and  C_11
REMARK    7  A    between atoms: C_26  and  N_27
REMARK    8  A    between atoms: N_27  and  C_28
REMARK    9  A    between atoms: C_28  and  C_29
REMARK                            x       y       z     vdW  Elec       q    Type
REMARK                         _______ _______ _______ _____ _____    ______ ____
ROOT
ATOM      1  C   UNL     1       1.904   9.192  18.238  0.00  0.00    +0.000 C 
ENDROOT
BRANCH   1   2
ATOM      2  C   UNL     1       2.505   7.880  18.032  0.00  0.00    +0.000 C 
ATOM      3  C   UNL     1       2.903   6.752  18.056  0.00  0.00    +0.000 C 
BRANCH   3   4
ATOM      4  C   UNL     1       3.377   5.412  18.234  0.00  0.00    +0.000 A 
ATOM      5  C   UNL     1       4.710   5.046  18.210  0.00  0.00    +0.000 A 
ATOM      6  O   UNL     1       4.797   3.670  18.305  0.00  0.00    +0.000 OA
ATOM      7  C   UNL     1       3.516   3.205  18.465  0.00  0.00    +0.000 A 
ATOM      8  C   UNL     1       3.133   1.871  18.596  0.00  0.00    +0.000 A 
ATOM      9  C   UNL     1       1.764   1.624  18.785  0.00  0.00    +0.000 A 
ATOM     10  C   UNL     1       0.839   2.667  18.856  0.00  0.00    +0.000 A 
ATOM     11  C   UNL     1       1.246   3.996  18.702  0.00  0.00    +0.000 A 
ATOM     12  C   UNL     1       2.612   4.260  18.483  0.00  0.00    +0.000 A 
BRANCH   5  13
ATOM     13  C   UNL     1       5.935   5.816  18.064  0.00  0.00    +0.000 A 
ATOM     14  C   UNL     1       7.010   5.556  18.935  0.00  0.00    +0.000 A 
ATOM     15  C   UNL     1       8.096   6.425  19.027  0.00  0.00    +0.000 A 
ATOM     16  C   UNL     1       8.143   7.548  18.210  0.00  0.00    +0.000 A 
ATOM     17  C   UNL     1       7.131   7.771  17.274  0.00  0.00    +0.000 A 
ATOM     18  C   UNL     1       6.032   6.906  17.196  0.00  0.00    +0.000 A 
ENDBRANCH   5  13
ENDBRANCH   3   4
ENDBRANCH   1   2
BRANCH   1  19
ATOM     19  O   UNL     1       1.143   9.266  19.451  0.00  0.00    +0.000 OA
BRANCH  19  23
ATOM     20  C   UNL     1      -0.695  10.242  23.093  0.00  0.00    +0.000 C 
ATOM     21  C   UNL     1      -0.467  10.461  21.603  0.00  0.00    +0.000 C 
ATOM     22  O   UNL     1       0.954  10.582  21.405  0.00  0.00    +0.000 OA
ATOM     23  C   UNL     1       1.335  10.562  20.031  0.00  0.00    +0.000 C 
ATOM     24  C   UNL     1       0.626  11.659  19.235  0.00  0.00    +0.000 C 
ATOM     25  C   UNL     1      -0.879  11.688  19.496  0.00  0.00    +0.000 C 
ATOM     26  C   UNL     1      -1.195  11.699  21.006  0.00  0.00    +0.000 C 
BRANCH  26  27
ATOM     27  N   UNL     1      -0.774  12.942  21.690  0.00  0.00    +0.000 NA
ATOM     28  H   UNL     1       0.242  12.959  21.757  0.00  0.00    +0.000 HD
BRANCH  27  29
ATOM     29  C   UNL     1      -1.296  14.170  21.083  0.00  0.00    +0.000 C 
BRANCH  29  30
ATOM     30  C   UNL     1      -0.314  15.363  21.191  0.00  0.00    +0.000 C 
ATOM     31  C   UNL     1       0.917  15.243  20.274  0.00  0.00    +0.000 C 
ATOM     32  C   UNL     1       0.580  15.399  18.791  0.00  0.00    +0.000 C 
ATOM     33  C   UNL     1      -0.180  16.689  18.503  0.00  0.00    +0.000 C 
ATOM     34  C   UNL     1      -1.380  16.893  19.421  0.00  0.00    +0.000 C 
ATOM     35  C   UNL     1      -1.033  16.696  20.897  0.00  0.00    +0.000 C 
ENDBRANCH  29  30
ENDBRANCH  27  29
ENDBRANCH  26  27
ENDBRANCH  19  23
ENDBRANCH   1  19
TORSDOF 8
ENDMDL
MODEL 9
REMARK VINA RESULT:      -8.5      3.301      6.130
REMARK  Name = 
REMARK  9 active torsions:
REMARK  status: ('A' for Active; 'I' for Inactive)
REMARK    1  A    between atoms: C_1  and  C_2
REMARK    2  A    between atoms: C_4  and  O_5
REMARK    3  A    between atoms: O_5  and  C_6
REMARK    4  A    between atoms: C_6  and  C_7
REMARK    5  A    between atoms: C_8  and  C_9
REMARK    6  A    between atoms: C_10  and  C_11
REMARK    7  A    between atoms: C_26  and  N_27
REMARK    8  A    between atoms: N_27  and  C_28
REMARK    9  A    between atoms: C_28  and  C_29
REMARK                            x       y       z     vdW  Elec       q    Type
REMARK                         _______ _______ _______ _____ _____    ______ ____
ROOT
ATOM      1  C   UNL     1       1.700   9.061  17.806  0.00  0.00    +0.000 C 
ENDROOT
BRANCH   1   2
ATOM      2  C   UNL     1       2.514   7.871  18.019  0.00  0.00    +0.000 C 
ATOM      3  C   UNL     1       3.004   6.784  18.120  0.00  0.00    +0.000 C 
BRANCH   3   4
ATOM      4  C   UNL     1       3.452   5.432  18.264  0.00  0.00    +0.000 A 
ATOM      5  C   UNL     1       4.779   5.043  18.240  0.00  0.00    +0.000 A 
ATOM      6  O   UNL     1       4.841   3.663  18.298  0.00  0.00    +0.000 OA
ATOM      7  C   UNL     1       3.551   3.216  18.435  0.00  0.00    +0.000 A 
ATOM      8  C   UNL     1       3.144   1.886  18.526  0.00  0.00    +0.000 A 
ATOM      9  C   UNL     1       1.769   1.659  18.699  0.00  0.00    +0.000 A 
ATOM     10  C   UNL     1       0.861   2.715  18.791  0.00  0.00    +0.000 A 
ATOM     11  C   UNL     1       1.294   4.041  18.677  0.00  0.00    +0.000 A 
ATOM     12  C   UNL     1       2.666   4.286  18.476  0.00  0.00    +0.000 A 
BRANCH   5  13
ATOM     13  C   UNL     1       6.018   5.794  18.125  0.00  0.00    +0.000 A 
ATOM     14  C   UNL     1       7.047   5.559  19.057  0.00  0.00    +0.000 A 
ATOM     15  C   UNL     1       8.136   6.421  19.169  0.00  0.00    +0.000 A 
ATOM     16  C   UNL     1       8.236   7.510  18.311  0.00  0.00    +0.000 A 
ATOM     17  C   UNL     1       7.274   7.705  17.319  0.00  0.00    +0.000 A 
ATOM     18  C   UNL     1       6.170   6.848  17.221  0.00  0.00    +0.000 A 
ENDBRANCH   5  13
ENDBRANCH   3   4
ENDBRANCH   1   2
BRANCH   1  19
ATOM     19  O   UNL     1       1.382   9.739  19.030  0.00  0.00    +0.000 OA
BRANCH  19  23
ATOM     20  C   UNL     1       2.014  13.543  20.679  0.00  0.00    +0.000 C 
ATOM     21  C   UNL     1       1.176  12.285  20.486  0.00  0.00    +0.000 C 
ATOM     22  O   UNL     1       1.045  12.077  19.068  0.00  0.00    +0.000 OA
ATOM     23  C   UNL     1       0.480  10.811  18.734  0.00  0.00    +0.000 C 
ATOM     24  C   UNL     1      -0.885  10.613  19.396  0.00  0.00    +0.000 C 
ATOM     25  C   UNL     1      -0.864  10.948  20.886  0.00  0.00    +0.000 C 
ATOM     26  C   UNL     1      -0.229  12.329  21.151  0.00  0.00    +0.000 C 
BRANCH  26  27
ATOM     27  N   UNL     1      -1.028  13.458  20.628  0.00  0.00    +0.000 NA
ATOM     28  H   UNL     1      -1.720  13.101  19.970  0.00  0.00    +0.000 HD
BRANCH  27  29
ATOM     29  C   UNL     1      -1.646  14.289  21.665  0.00  0.00    +0.000 C 
BRANCH  29  30
ATOM     30  C   UNL     1      -1.510  13.686  23.085  0.00  0.00    +0.000 C 
ATOM     31  C   UNL     1      -1.094  14.707  24.159  0.00  0.00    +0.000 C 
ATOM     32  C   UNL     1      -2.189  15.723  24.481  0.00  0.00    +0.000 C 
ATOM     33  C   UNL     1      -3.506  15.053  24.859  0.00  0.00    +0.000 C 
ATOM     34  C   UNL     1      -3.943  13.988  23.859  0.00  0.00    +0.000 C 
ATOM     35  C   UNL     1      -2.823  13.003  23.521  0.00  0.00    +0.000 C 
ENDBRANCH  29  30
ENDBRANCH  27  29
ENDBRANCH  26  27
ENDBRANCH  19  23
ENDBRANCH   1  19
TORSDOF 8
ENDMDL
