MODEL 1
REMARK VINA RESULT:      -7.9      0.000      0.000
REMARK  Name = 
REMARK  9 active torsions:
REMARK  status: ('A' for Active; 'I' for Inactive)
REMARK    1  A    between atoms: C_1  and  C_2
REMARK    2  A    between atoms: C_2  and  C_3
REMARK    3  A    between atoms: C_2  and  N_7
REMARK    4  A    between atoms: N_5  and  O_6
REMARK    5  A    between atoms: N_7  and  C_8
REMARK    6  A    between atoms: N_7  and  S_18
REMARK    7  A    between atoms: C_8  and  C_9
REMARK    8  A    between atoms: C_12  and  N_13
REMARK    9  A    between atoms: S_18  and  C_21
REMARK                            x       y       z     vdW  Elec       q    Type
REMARK                         _______ _______ _______ _____ _____    ______ ____
ROOT
ATOM      1  N   UNL     1       6.125   5.949  16.940  0.00  0.00    +0.000 NA
ENDROOT
BRANCH   1   2
ATOM      2  S   UNL     1       6.276   5.633  15.256  0.00  0.00    +0.000 S 
ATOM      3  O   UNL     1       5.355   6.560  14.617  0.00  0.00    +0.000 OA
ATOM      4  O   UNL     1       7.688   5.718  14.927  0.00  0.00    +0.000 OA
BRANCH   2   5
ATOM      5  C   UNL     1       5.697   3.873  14.953  0.00  0.00    +0.000 C 
ATOM      6  F   UNL     1       6.385   3.268  13.943  0.00  0.00    +0.000 F 
ATOM      7  F   UNL     1       5.840   3.083  16.053  0.00  0.00    +0.000 F 
ATOM      8  F   UNL     1       4.379   3.831  14.603  0.00  0.00    +0.000 F 
ENDBRANCH   2   5
ENDBRANCH   1   2
BRANCH   1  10
ATOM      9  C   UNL     1       7.776   7.596  18.000  0.00  0.00    +0.000 C 
ATOM     10  C   UNL     1       7.365   6.148  17.766  0.00  0.00    +0.000 C 
BRANCH  10  11
ATOM     11  C   UNL     1       7.331   5.376  19.091  0.00  0.00    +0.000 C 
ATOM     12  O   UNL     1       6.475   4.535  19.377  0.00  0.00    +0.000 OA
ATOM     13  N   UNL     1       8.367   5.662  19.959  0.00  0.00    +0.000 N 
ATOM     14  H   UNL     1       8.919   6.512  19.899  0.00  0.00    +0.000 HD
BRANCH  13  15
ATOM     15  O   UNL     1       8.271   5.062  21.236  0.00  0.00    +0.000 OA
ATOM     16  H   UNL     1       9.207   4.846  21.447  0.00  0.00    +0.000 HD
ENDBRANCH  13  15
ENDBRANCH  10  11
ENDBRANCH   1  10
BRANCH   1  17
ATOM     17  C   UNL     1       4.897   6.740  17.321  0.00  0.00    +0.000 C 
BRANCH  17  18
ATOM     18  C   UNL     1       3.833   5.942  18.041  0.00  0.00    +0.000 A 
ATOM     19  C   UNL     1       3.280   6.417  19.242  0.00  0.00    +0.000 A 
ATOM     20  C   UNL     1       2.619   5.546  20.110  0.00  0.00    +0.000 A 
ATOM     21  C   UNL     1       2.485   4.200  19.754  0.00  0.00    +0.000 A 
ATOM     22  C   UNL     1       2.874   3.760  18.485  0.00  0.00    +0.000 A 
ATOM     23  C   UNL     1       3.518   4.644  17.618  0.00  0.00    +0.000 A 
BRANCH  21  24
ATOM     24  N   UNL     1       2.028   3.227  20.750  0.00  0.00    +0.000 N 
ATOM     25  O   UNL     1       1.382   2.248  20.351  0.00  0.00    +0.000 OA
ATOM     26  O   UNL     1       2.288   3.457  21.941  0.00  0.00    +0.000 OA
ENDBRANCH  21  24
ENDBRANCH  17  18
ENDBRANCH   1  17
TORSDOF 8
ENDMDL
MODEL 2
REMARK VINA RESULT:      -7.8      0.868      1.366
REMARK  Name = 
REMARK  9 active torsions:
REMARK  status: ('A' for Active; 'I' for Inactive)
REMARK    1  A    between atoms: C_1  and  C_2
REMARK    2  A    between atoms: C_2  and  C_3
REMARK    3  A    between atoms: C_2  and  N_7
REMARK    4  A    between atoms: N_5  and  O_6
REMARK    5  A    between atoms: N_7  and  C_8
REMARK    6  A    between atoms: N_7  and  S_18
REMARK    7  A    between atoms: C_8  and  C_9
REMARK    8  A    between atoms: C_12  and  N_13
REMARK    9  A    between atoms: S_18  and  C_21
REMARK                            x       y       z     vdW  Elec       q    Type
REMARK                         _______ _______ _______ _____ _____    ______ ____
ROOT
ATOM      1  N   UNL     1       6.203   6.057  16.956  0.00  0.00    +0.000 NA
ENDROOT
BRANCH   1   2
ATOM      2  S   UNL     1       6.079   5.743  15.270  0.00  0.00    +0.000 S 
ATOM      3  O   UNL     1       5.198   6.782  14.759  0.00  0.00    +0.000 OA
ATOM      4  O   UNL     1       7.432   5.661  14.747  0.00  0.00    +0.000 OA
BRANCH   2   5
ATOM      5  C   UNL     1       5.254   4.070  15.062  0.00  0.00    +0.000 C 
ATOM      6  F   UNL     1       4.947   3.803  13.760  0.00  0.00    +0.000 F 
ATOM      7  F   UNL     1       6.040   3.047  15.497  0.00  0.00    +0.000 F 
ATOM      8  F   UNL     1       4.084   3.997  15.759  0.00  0.00    +0.000 F 
ENDBRANCH   2   5
ENDBRANCH   1   2
BRANCH   1  10
ATOM      9  C   UNL     1       7.704   7.874  17.962  0.00  0.00    +0.000 C 
ATOM     10  C   UNL     1       7.540   6.418  17.542  0.00  0.00    +0.000 C 
BRANCH  10  11
ATOM     11  C   UNL     1       7.969   5.479  18.676  0.00  0.00    +0.000 C 
ATOM     12  O   UNL     1       8.259   4.291  18.514  0.00  0.00    +0.000 OA
ATOM     13  N   UNL     1       8.048   6.068  19.923  0.00  0.00    +0.000 N 
ATOM     14  H   UNL     1       7.570   6.934  20.155  0.00  0.00    +0.000 HD
BRANCH  13  15
ATOM     15  O   UNL     1       8.307   5.184  20.996  0.00  0.00    +0.000 OA
ATOM     16  H   UNL     1       9.144   4.748  20.722  0.00  0.00    +0.000 HD
ENDBRANCH  13  15
ENDBRANCH  10  11
ENDBRANCH   1  10
BRANCH   1  17
ATOM     17  C   UNL     1       4.978   6.695  17.567  0.00  0.00    +0.000 C 
BRANCH  17  18
ATOM     18  C   UNL     1       4.239   5.818  18.554  0.00  0.00    +0.000 A 
ATOM     19  C   UNL     1       4.601   4.470  18.715  0.00  0.00    +0.000 A 
ATOM     20  C   UNL     1       3.712   3.564  19.295  0.00  0.00    +0.000 A 
ATOM     21  C   UNL     1       2.468   4.020  19.743  0.00  0.00    +0.000 A 
ATOM     22  C   UNL     1       2.175   5.387  19.749  0.00  0.00    +0.000 A 
ATOM     23  C   UNL     1       3.079   6.287  19.183  0.00  0.00    +0.000 A 
BRANCH  21  24
ATOM     24  N   UNL     1       1.432   3.053  20.116  0.00  0.00    +0.000 N 
ATOM     25  O   UNL     1       1.281   2.800  21.320  0.00  0.00    +0.000 OA
ATOM     26  O   UNL     1       0.785   2.521  19.201  0.00  0.00    +0.000 OA
ENDBRANCH  21  24
ENDBRANCH  17  18
ENDBRANCH   1  17
TORSDOF 8
ENDMDL
MODEL 3
REMARK VINA RESULT:      -7.8      0.866      1.281
REMARK  Name = 
REMARK  9 active torsions:
REMARK  status: ('A' for Active; 'I' for Inactive)
REMARK    1  A    between atoms: C_1  and  C_2
REMARK    2  A    between atoms: C_2  and  C_3
REMARK    3  A    between atoms: C_2  and  N_7
REMARK    4  A    between atoms: N_5  and  O_6
REMARK    5  A    between atoms: N_7  and  C_8
REMARK    6  A    between atoms: N_7  and  S_18
REMARK    7  A    between atoms: C_8  and  C_9
REMARK    8  A    between atoms: C_12  and  N_13
REMARK    9  A    between atoms: S_18  and  C_21
REMARK                            x       y       z     vdW  Elec       q    Type
REMARK                         _______ _______ _______ _____ _____    ______ ____
ROOT
ATOM      1  N   UNL     1       6.173   6.015  16.976  0.00  0.00    +0.000 NA
ENDROOT
BRANCH   1   2
ATOM      2  S   UNL     1       6.057   5.722  15.285  0.00  0.00    +0.000 S 
ATOM      3  O   UNL     1       5.171   6.762  14.785  0.00  0.00    +0.000 OA
ATOM      4  O   UNL     1       7.411   5.655  14.767  0.00  0.00    +0.000 OA
BRANCH   2   5
ATOM      5  C   UNL     1       5.244   4.046  15.053  0.00  0.00    +0.000 C 
ATOM      6  F   UNL     1       6.062   3.018  15.418  0.00  0.00    +0.000 F 
ATOM      7  F   UNL     1       4.102   3.918  15.783  0.00  0.00    +0.000 F 
ATOM      8  F   UNL     1       4.908   3.828  13.749  0.00  0.00    +0.000 F 
ENDBRANCH   2   5
ENDBRANCH   1   2
BRANCH   1  10
ATOM      9  C   UNL     1       7.610   7.879  17.989  0.00  0.00    +0.000 C 
ATOM     10  C   UNL     1       7.496   6.420  17.565  0.00  0.00    +0.000 C 
BRANCH  10  11
ATOM     11  C   UNL     1       7.956   5.492  18.695  0.00  0.00    +0.000 C 
ATOM     12  O   UNL     1       8.279   4.312  18.531  0.00  0.00    +0.000 OA
ATOM     13  N   UNL     1       8.023   6.082  19.942  0.00  0.00    +0.000 N 
ATOM     14  H   UNL     1       7.523   6.934  20.178  0.00  0.00    +0.000 HD
BRANCH  13  15
ATOM     15  O   UNL     1       8.312   5.205  21.014  0.00  0.00    +0.000 OA
ATOM     16  H   UNL     1       8.096   5.747  21.805  0.00  0.00    +0.000 HD
ENDBRANCH  13  15
ENDBRANCH  10  11
ENDBRANCH   1  10
BRANCH   1  17
ATOM     17  C   UNL     1       4.925   6.594  17.599  0.00  0.00    +0.000 C 
BRANCH  17  18
ATOM     18  C   UNL     1       4.331   5.756  18.710  0.00  0.00    +0.000 A 
ATOM     19  C   UNL     1       4.740   4.425  18.892  0.00  0.00    +0.000 A 
ATOM     20  C   UNL     1       3.948   3.534  19.618  0.00  0.00    +0.000 A 
ATOM     21  C   UNL     1       2.757   3.992  20.191  0.00  0.00    +0.000 A 
ATOM     22  C   UNL     1       2.435   5.353  20.166  0.00  0.00    +0.000 A 
ATOM     23  C   UNL     1       3.244   6.238  19.451  0.00  0.00    +0.000 A 
BRANCH  21  24
ATOM     24  N   UNL     1       1.795   3.028  20.733  0.00  0.00    +0.000 N 
ATOM     25  O   UNL     1       0.812   2.737  20.037  0.00  0.00    +0.000 OA
ATOM     26  O   UNL     1       2.005   2.584  21.872  0.00  0.00    +0.000 OA
ENDBRANCH  21  24
ENDBRANCH  17  18
ENDBRANCH   1  17
TORSDOF 8
ENDMDL
MODEL 4
REMARK VINA RESULT:      -7.7      4.168      5.384
REMARK  Name = 
REMARK  9 active torsions:
REMARK  status: ('A' for Active; 'I' for Inactive)
REMARK    1  A    between atoms: C_1  and  C_2
REMARK    2  A    between atoms: C_2  and  C_3
REMARK    3  A    between atoms: C_2  and  N_7
REMARK    4  A    between atoms: N_5  and  O_6
REMARK    5  A    between atoms: N_7  and  C_8
REMARK    6  A    between atoms: N_7  and  S_18
REMARK    7  A    between atoms: C_8  and  C_9
REMARK    8  A    between atoms: C_12  and  N_13
REMARK    9  A    between atoms: S_18  and  C_21
REMARK                            x       y       z     vdW  Elec       q    Type
REMARK                         _______ _______ _______ _____ _____    ______ ____
ROOT
ATOM      1  N   UNL     1       3.306   4.131  18.554  0.00  0.00    +0.000 NA
ENDROOT
BRANCH   1   2
ATOM      2  S   UNL     1       2.642   2.724  19.287  0.00  0.00    +0.000 S 
ATOM      3  O   UNL     1       1.660   2.232  18.333  0.00  0.00    +0.000 OA
ATOM      4  O   UNL     1       3.753   1.862  19.647  0.00  0.00    +0.000 OA
BRANCH   2   5
ATOM      5  C   UNL     1       1.768   3.260  20.859  0.00  0.00    +0.000 C 
ATOM      6  F   UNL     1       1.466   2.206  21.670  0.00  0.00    +0.000 F 
ATOM      7  F   UNL     1       2.516   4.123  21.601  0.00  0.00    +0.000 F 
ATOM      8  F   UNL     1       0.588   3.889  20.588  0.00  0.00    +0.000 F 
ENDBRANCH   2   5
ENDBRANCH   1   2
BRANCH   1  10
ATOM      9  C   UNL     1       4.729   4.569  16.469  0.00  0.00    +0.000 C 
ATOM     10  C   UNL     1       4.658   4.053  17.901  0.00  0.00    +0.000 C 
BRANCH  10  11
ATOM     11  C   UNL     1       5.770   4.676  18.754  0.00  0.00    +0.000 C 
ATOM     12  O   UNL     1       5.565   5.407  19.727  0.00  0.00    +0.000 OA
ATOM     13  N   UNL     1       7.054   4.333  18.380  0.00  0.00    +0.000 N 
ATOM     14  H   UNL     1       7.283   3.977  17.456  0.00  0.00    +0.000 HD
BRANCH  13  15
ATOM     15  O   UNL     1       8.088   5.008  19.069  0.00  0.00    +0.000 OA
ATOM     16  H   UNL     1       7.905   5.953  18.866  0.00  0.00    +0.000 HD
ENDBRANCH  13  15
ENDBRANCH  10  11
ENDBRANCH   1  10
BRANCH   1  17
ATOM     17  C   UNL     1       2.285   5.057  17.937  0.00  0.00    +0.000 C 
BRANCH  17  18
ATOM     18  C   UNL     1       2.304   6.467  18.484  0.00  0.00    +0.000 A 
ATOM     19  C   UNL     1       2.116   6.699  19.857  0.00  0.00    +0.000 A 
ATOM     20  C   UNL     1       1.736   7.961  20.316  0.00  0.00    +0.000 A 
ATOM     21  C   UNL     1       1.576   9.001  19.395  0.00  0.00    +0.000 A 
ATOM     22  C   UNL     1       1.934   8.824  18.055  0.00  0.00    +0.000 A 
ATOM     23  C   UNL     1       2.330   7.562  17.611  0.00  0.00    +0.000 A 
BRANCH  21  24
ATOM     24  N   UNL     1       0.937  10.252  19.817  0.00  0.00    +0.000 N 
ATOM     25  O   UNL     1       0.109  10.198  20.738  0.00  0.00    +0.000 OA
ATOM     26  O   UNL     1       1.240  11.288  19.206  0.00  0.00    +0.000 OA
ENDBRANCH  21  24
ENDBRANCH  17  18
ENDBRANCH   1  17
TORSDOF 8
ENDMDL
MODEL 5
REMARK VINA RESULT:      -7.6      4.234      5.428
REMARK  Name = 
REMARK  9 active torsions:
REMARK  status: ('A' for Active; 'I' for Inactive)
REMARK    1  A    between atoms: C_1  and  C_2
REMARK    2  A    between atoms: C_2  and  C_3
REMARK    3  A    between atoms: C_2  and  N_7
REMARK    4  A    between atoms: N_5  and  O_6
REMARK    5  A    between atoms: N_7  and  C_8
REMARK    6  A    between atoms: N_7  and  S_18
REMARK    7  A    between atoms: C_8  and  C_9
REMARK    8  A    between atoms: C_12  and  N_13
REMARK    9  A    between atoms: S_18  and  C_21
REMARK                            x       y       z     vdW  Elec       q    Type
REMARK                         _______ _______ _______ _____ _____    ______ ____
ROOT
ATOM      1  N   UNL     1       3.356   4.247  18.653  0.00  0.00    +0.000 NA
ENDROOT
BRANCH   1   2
ATOM      2  S   UNL     1       2.782   2.841  19.460  0.00  0.00    +0.000 S 
ATOM      3  O   UNL     1       1.926   2.175  18.490  0.00  0.00    +0.000 OA
ATOM      4  O   UNL     1       3.944   2.131  19.965  0.00  0.00    +0.000 OA
BRANCH   2   5
ATOM      5  C   UNL     1       1.746   3.406  20.920  0.00  0.00    +0.000 C 
ATOM      6  F   UNL     1       0.583   4.002  20.530  0.00  0.00    +0.000 F 
ATOM      7  F   UNL     1       1.402   2.376  21.742  0.00  0.00    +0.000 F 
ATOM      8  F   UNL     1       2.411   4.319  21.685  0.00  0.00    +0.000 F 
ENDBRANCH   2   5
ENDBRANCH   1   2
BRANCH   1  10
ATOM      9  C   UNL     1       4.690   4.777  16.531  0.00  0.00    +0.000 C 
ATOM     10  C   UNL     1       4.680   4.200  17.942  0.00  0.00    +0.000 C 
BRANCH  10  11
ATOM     11  C   UNL     1       5.826   4.787  18.773  0.00  0.00    +0.000 C 
ATOM     12  O   UNL     1       5.670   5.610  19.679  0.00  0.00    +0.000 OA
ATOM     13  N   UNL     1       7.081   4.299  18.463  0.00  0.00    +0.000 N 
ATOM     14  H   UNL     1       7.294   3.850  17.577  0.00  0.00    +0.000 HD
BRANCH  13  15
ATOM     15  O   UNL     1       8.158   4.931  19.125  0.00  0.00    +0.000 OA
ATOM     16  H   UNL     1       8.329   5.719  18.562  0.00  0.00    +0.000 HD
ENDBRANCH  13  15
ENDBRANCH  10  11
ENDBRANCH   1  10
BRANCH   1  17
ATOM     17  C   UNL     1       2.272   5.113  18.056  0.00  0.00    +0.000 C 
BRANCH  17  18
ATOM     18  C   UNL     1       2.255   6.538  18.563  0.00  0.00    +0.000 A 
ATOM     19  C   UNL     1       2.101   6.801  19.934  0.00  0.00    +0.000 A 
ATOM     20  C   UNL     1       1.687   8.060  20.371  0.00  0.00    +0.000 A 
ATOM     21  C   UNL     1       1.459   9.068  19.428  0.00  0.00    +0.000 A 
ATOM     22  C   UNL     1       1.782   8.866  18.082  0.00  0.00    +0.000 A 
ATOM     23  C   UNL     1       2.212   7.608  17.660  0.00  0.00    +0.000 A 
BRANCH  21  24
ATOM     24  N   UNL     1       0.786  10.305  19.836  0.00  0.00    +0.000 N 
ATOM     25  O   UNL     1       1.379  11.377  19.646  0.00  0.00    +0.000 OA
ATOM     26  O   UNL     1      -0.326  10.205  20.376  0.00  0.00    +0.000 OA
ENDBRANCH  21  24
ENDBRANCH  17  18
ENDBRANCH   1  17
TORSDOF 8
ENDMDL
MODEL 6
REMARK VINA RESULT:      -7.6      3.460      5.021
REMARK  Name = 
REMARK  9 active torsions:
REMARK  status: ('A' for Active; 'I' for Inactive)
REMARK    1  A    between atoms: C_1  and  C_2
REMARK    2  A    between atoms: C_2  and  C_3
REMARK    3  A    between atoms: C_2  and  N_7
REMARK    4  A    between atoms: N_5  and  O_6
REMARK    5  A    between atoms: N_7  and  C_8
REMARK    6  A    between atoms: N_7  and  S_18
REMARK    7  A    between atoms: C_8  and  C_9
REMARK    8  A    between atoms: C_12  and  N_13
REMARK    9  A    between atoms: S_18  and  C_21
REMARK                            x       y       z     vdW  Elec       q    Type
REMARK                         _______ _______ _______ _____ _____    ______ ____
ROOT
ATOM      1  N   UNL     1       5.364   5.024  18.148  0.00  0.00    +0.000 NA
ENDROOT
BRANCH   1   2
ATOM      2  S   UNL     1       7.004   5.364  18.537  0.00  0.00    +0.000 S 
ATOM      3  O   UNL     1       7.026   5.500  19.985  0.00  0.00    +0.000 OA
ATOM      4  O   UNL     1       7.815   4.326  17.924  0.00  0.00    +0.000 OA
BRANCH   2   5
ATOM      5  C   UNL     1       7.446   7.010  17.751  0.00  0.00    +0.000 C 
ATOM      6  F   UNL     1       7.930   6.866  16.484  0.00  0.00    +0.000 F 
ATOM      7  F   UNL     1       6.377   7.850  17.668  0.00  0.00    +0.000 F 
ATOM      8  F   UNL     1       8.410   7.663  18.461  0.00  0.00    +0.000 F 
ENDBRANCH   2   5
ENDBRANCH   1   2
BRANCH   1  10
ATOM      9  C   UNL     1       3.618   3.434  17.156  0.00  0.00    +0.000 C 
ATOM     10  C   UNL     1       5.051   3.950  17.144  0.00  0.00    +0.000 C 
BRANCH  10  11
ATOM     11  C   UNL     1       5.479   4.321  15.719  0.00  0.00    +0.000 C 
ATOM     12  O   UNL     1       5.224   5.402  15.182  0.00  0.00    +0.000 OA
ATOM     13  N   UNL     1       6.219   3.357  15.063  0.00  0.00    +0.000 N 
ATOM     14  H   UNL     1       6.219   2.379  15.338  0.00  0.00    +0.000 HD
BRANCH  13  15
ATOM     15  O   UNL     1       6.501   3.629  13.704  0.00  0.00    +0.000 OA
ATOM     16  H   UNL     1       6.145   4.538  13.585  0.00  0.00    +0.000 HD
ENDBRANCH  13  15
ENDBRANCH  10  11
ENDBRANCH   1  10
BRANCH   1  17
ATOM     17  C   UNL     1       4.397   5.213  19.293  0.00  0.00    +0.000 C 
BRANCH  17  18
ATOM     18  C   UNL     1       3.320   6.246  19.042  0.00  0.00    +0.000 A 
ATOM     19  C   UNL     1       3.343   7.027  17.874  0.00  0.00    +0.000 A 
ATOM     20  C   UNL     1       2.627   8.222  17.808  0.00  0.00    +0.000 A 
ATOM     21  C   UNL     1       1.857   8.617  18.907  0.00  0.00    +0.000 A 
ATOM     22  C   UNL     1       1.687   7.761  19.999  0.00  0.00    +0.000 A 
ATOM     23  C   UNL     1       2.396   6.559  20.047  0.00  0.00    +0.000 A 
BRANCH  21  24
ATOM     24  N   UNL     1       1.308   9.976  18.957  0.00  0.00    +0.000 N 
ATOM     25  O   UNL     1       0.293  10.165  19.644  0.00  0.00    +0.000 OA
ATOM     26  O   UNL     1       1.873  10.851  18.284  0.00  0.00    +0.000 OA
ENDBRANCH  21  24
ENDBRANCH  17  18
ENDBRANCH   1  17
TORSDOF 8
ENDMDL
MODEL 7
REMARK VINA RESULT:      -7.6      0.789      1.629
REMARK  Name = 
REMARK  9 active torsions:
REMARK  status: ('A' for Active; 'I' for Inactive)
REMARK    1  A    between atoms: C_1  and  C_2
REMARK    2  A    between atoms: C_2  and  C_3
REMARK    3  A    between atoms: C_2  and  N_7
REMARK    4  A    between atoms: N_5  and  O_6
REMARK    5  A    between atoms: N_7  and  C_8
REMARK    6  A    between atoms: N_7  and  S_18
REMARK    7  A    between atoms: C_8  and  C_9
REMARK    8  A    between atoms: C_12  and  N_13
REMARK    9  A    between atoms: S_18  and  C_21
REMARK                            x       y       z     vdW  Elec       q    Type
REMARK                         _______ _______ _______ _____ _____    ______ ____
ROOT
ATOM      1  N   UNL     1       6.206   5.721  16.657  0.00  0.00    +0.000 NA
ENDROOT
BRANCH   1   2
ATOM      2  S   UNL     1       6.354   5.619  14.947  0.00  0.00    +0.000 S 
ATOM      3  O   UNL     1       5.393   6.581  14.429  0.00  0.00    +0.000 OA
ATOM      4  O   UNL     1       7.759   5.799  14.625  0.00  0.00    +0.000 OA
BRANCH   2   5
ATOM      5  C   UNL     1       5.840   3.888  14.433  0.00  0.00    +0.000 C 
ATOM      6  F   UNL     1       5.997   2.981  15.439  0.00  0.00    +0.000 F 
ATOM      7  F   UNL     1       4.535   3.827  14.049  0.00  0.00    +0.000 F 
ATOM      8  F   UNL     1       6.584   3.434  13.384  0.00  0.00    +0.000 F 
ENDBRANCH   2   5
ENDBRANCH   1   2
BRANCH   1  10
ATOM      9  C   UNL     1       7.543   7.619  17.740  0.00  0.00    +0.000 C 
ATOM     10  C   UNL     1       7.400   6.125  17.477  0.00  0.00    +0.000 C 
BRANCH  10  11
ATOM     11  C   UNL     1       7.523   5.333  18.784  0.00  0.00    +0.000 C 
ATOM     12  O   UNL     1       7.023   4.220  18.965  0.00  0.00    +0.000 OA
ATOM     13  N   UNL     1       8.280   5.942  19.766  0.00  0.00    +0.000 N 
ATOM     14  H   UNL     1       8.473   6.939  19.774  0.00  0.00    +0.000 HD
BRANCH  13  15
ATOM     15  O   UNL     1       8.287   5.289  21.020  0.00  0.00    +0.000 OA
ATOM     16  H   UNL     1       8.709   4.425  20.813  0.00  0.00    +0.000 HD
ENDBRANCH  13  15
ENDBRANCH  10  11
ENDBRANCH   1  10
BRANCH   1  17
ATOM     17  C   UNL     1       4.845   6.157  17.143  0.00  0.00    +0.000 C 
BRANCH  17  18
ATOM     18  C   UNL     1       4.107   5.118  17.959  0.00  0.00    +0.000 A 
ATOM     19  C   UNL     1       3.637   3.941  17.352  0.00  0.00    +0.000 A 
ATOM     20  C   UNL     1       2.637   3.182  17.960  0.00  0.00    +0.000 A 
ATOM     21  C   UNL     1       2.130   3.589  19.198  0.00  0.00    +0.000 A 
ATOM     22  C   UNL     1       2.715   4.655  19.889  0.00  0.00    +0.000 A 
ATOM     23  C   UNL     1       3.727   5.397  19.278  0.00  0.00    +0.000 A 
BRANCH  21  24
ATOM     24  N   UNL     1       0.916   2.960  19.728  0.00  0.00    +0.000 N 
ATOM     25  O   UNL     1       0.741   2.981  20.955  0.00  0.00    +0.000 OA
ATOM     26  O   UNL     1       0.150   2.414  18.920  0.00  0.00    +0.000 OA
ENDBRANCH  21  24
ENDBRANCH  17  18
ENDBRANCH   1  17
TORSDOF 8
ENDMDL
MODEL 8
REMARK VINA RESULT:      -7.6      3.718      4.874
REMARK  Name = 
REMARK  9 active torsions:
REMARK  status: ('A' for Active; 'I' for Inactive)
REMARK    1  A    between atoms: C_1  and  C_2
REMARK    2  A    between atoms: C_2  and  C_3
REMARK    3  A    between atoms: C_2  and  N_7
REMARK    4  A    between atoms: N_5  and  O_6
REMARK    5  A    between atoms: N_7  and  C_8
REMARK    6  A    between atoms: N_7  and  S_18
REMARK    7  A    between atoms: C_8  and  C_9
REMARK    8  A    between atoms: C_12  and  N_13
REMARK    9  A    between atoms: S_18  and  C_21
REMARK                            x       y       z     vdW  Elec       q    Type
REMARK                         _______ _______ _______ _____ _____    ______ ____
ROOT
ATOM      1  N   UNL     1       4.015   4.565  18.709  0.00  0.00    +0.000 NA
ENDROOT
BRANCH   1   2
ATOM      2  S   UNL     1       3.743   3.152  19.651  0.00  0.00    +0.000 S 
ATOM      3  O   UNL     1       5.072   2.679  20.009  0.00  0.00    +0.000 OA
ATOM      4  O   UNL     1       2.825   3.515  20.716  0.00  0.00    +0.000 OA
BRANCH   2   5
ATOM      5  C   UNL     1       2.908   1.884  18.547  0.00  0.00    +0.000 C 
ATOM      6  F   UNL     1       1.702   1.483  19.041  0.00  0.00    +0.000 F 
ATOM      7  F   UNL     1       2.680   2.359  17.292  0.00  0.00    +0.000 F 
ATOM      8  F   UNL     1       3.666   0.758  18.414  0.00  0.00    +0.000 F 
ENDBRANCH   2   5
ENDBRANCH   1   2
BRANCH   1  10
ATOM      9  C   UNL     1       5.003   5.083  16.403  0.00  0.00    +0.000 C 
ATOM     10  C   UNL     1       5.242   4.649  17.844  0.00  0.00    +0.000 C 
BRANCH  10  11
ATOM     11  C   UNL     1       6.364   5.480  18.478  0.00  0.00    +0.000 C 
ATOM     12  O   UNL     1       6.794   6.535  18.003  0.00  0.00    +0.000 OA
ATOM     13  N   UNL     1       6.856   4.982  19.669  0.00  0.00    +0.000 N 
ATOM     14  H   UNL     1       6.742   4.013  19.951  0.00  0.00    +0.000 HD
BRANCH  13  15
ATOM     15  O   UNL     1       7.981   5.661  20.191  0.00  0.00    +0.000 OA
ATOM     16  H   UNL     1       7.831   6.588  19.901  0.00  0.00    +0.000 HD
ENDBRANCH  13  15
ENDBRANCH  10  11
ENDBRANCH   1  10
BRANCH   1  17
ATOM     17  C   UNL     1       2.758   5.233  18.205  0.00  0.00    +0.000 C 
BRANCH  17  18
ATOM     18  C   UNL     1       2.562   6.652  18.693  0.00  0.00    +0.000 A 
ATOM     19  C   UNL     1       2.167   6.899  20.019  0.00  0.00    +0.000 A 
ATOM     20  C   UNL     1       1.603   8.125  20.372  0.00  0.00    +0.000 A 
ATOM     21  C   UNL     1       1.466   9.119  19.397  0.00  0.00    +0.000 A 
ATOM     22  C   UNL     1       2.019   8.945  18.125  0.00  0.00    +0.000 A 
ATOM     23  C   UNL     1       2.596   7.720  17.787  0.00  0.00    +0.000 A 
BRANCH  21  24
ATOM     24  N   UNL     1       0.654  10.306  19.680  0.00  0.00    +0.000 N 
ATOM     25  O   UNL     1      -0.230  10.211  20.543  0.00  0.00    +0.000 OA
ATOM     26  O   UNL     1       0.880  11.330  19.016  0.00  0.00    +0.000 OA
ENDBRANCH  21  24
ENDBRANCH  17  18
ENDBRANCH   1  17
TORSDOF 8
ENDMDL
MODEL 9
REMARK VINA RESULT:      -7.5      1.239      1.866
REMARK  Name = 
REMARK  9 active torsions:
REMARK  status: ('A' for Active; 'I' for Inactive)
REMARK    1  A    between atoms: C_1  and  C_2
REMARK    2  A    between atoms: C_2  and  C_3
REMARK    3  A    between atoms: C_2  and  N_7
REMARK    4  A    between atoms: N_5  and  O_6
REMARK    5  A    between atoms: N_7  and  C_8
REMARK    6  A    between atoms: N_7  and  S_18
REMARK    7  A    between atoms: C_8  and  C_9
REMARK    8  A    between atoms: C_12  and  N_13
REMARK    9  A    between atoms: S_18  and  C_21
REMARK                            x       y       z     vdW  Elec       q    Type
REMARK                         _______ _______ _______ _____ _____    ______ ____
ROOT
ATOM      1  N   UNL     1       5.847   5.893  17.219  0.00  0.00    +0.000 NA
ENDROOT
BRANCH   1   2
ATOM      2  S   UNL     1       5.368   5.473  15.622  0.00  0.00    +0.000 S 
ATOM      3  O   UNL     1       4.260   4.545  15.794  0.00  0.00    +0.000 OA
ATOM      4  O   UNL     1       5.129   6.713  14.904  0.00  0.00    +0.000 OA
BRANCH   2   5
ATOM      5  C   UNL     1       6.807   4.581  14.812  0.00  0.00    +0.000 C 
ATOM      6  F   UNL     1       7.513   3.825  15.700  0.00  0.00    +0.000 F 
ATOM      7  F   UNL     1       6.404   3.743  13.817  0.00  0.00    +0.000 F 
ATOM      8  F   UNL     1       7.693   5.457  14.258  0.00  0.00    +0.000 F 
ENDBRANCH   2   5
ENDBRANCH   1   2
BRANCH   1  10
ATOM      9  C   UNL     1       7.589   7.713  17.685  0.00  0.00    +0.000 C 
ATOM     10  C   UNL     1       7.286   6.232  17.491  0.00  0.00    +0.000 C 
BRANCH  10  11
ATOM     11  C   UNL     1       7.889   5.404  18.633  0.00  0.00    +0.000 C 
ATOM     12  O   UNL     1       8.340   4.264  18.495  0.00  0.00    +0.000 OA
ATOM     13  N   UNL     1       7.931   6.043  19.857  0.00  0.00    +0.000 N 
ATOM     14  H   UNL     1       7.344   6.840  20.084  0.00  0.00    +0.000 HD
BRANCH  13  15
ATOM     15  O   UNL     1       8.355   5.244  20.944  0.00  0.00    +0.000 OA
ATOM     16  H   UNL     1       9.041   4.669  20.537  0.00  0.00    +0.000 HD
ENDBRANCH  13  15
ENDBRANCH  10  11
ENDBRANCH   1  10
BRANCH   1  17
ATOM     17  C   UNL     1       4.794   6.625  18.017  0.00  0.00    +0.000 C 
BRANCH  17  18
ATOM     18  C   UNL     1       4.093   5.779  19.057  0.00  0.00    +0.000 A 
ATOM     19  C   UNL     1       4.503   4.455  19.289  0.00  0.00    +0.000 A 
ATOM     20  C   UNL     1       3.650   3.551  19.924  0.00  0.00    +0.000 A 
ATOM     21  C   UNL     1       2.393   3.988  20.356  0.00  0.00    +0.000 A 
ATOM     22  C   UNL     1       2.051   5.342  20.289  0.00  0.00    +0.000 A 
ATOM     23  C   UNL     1       2.920   6.241  19.668  0.00  0.00    +0.000 A 
BRANCH  21  24
ATOM     24  N   UNL     1       1.394   3.007  20.789  0.00  0.00    +0.000 N 
ATOM     25  O   UNL     1       1.467   2.579  21.950  0.00  0.00    +0.000 OA
ATOM     26  O   UNL     1       0.550   2.640  19.958  0.00  0.00    +0.000 OA
ENDBRANCH  21  24
ENDBRANCH  17  18
ENDBRANCH   1  17
TORSDOF 8
ENDMDL
