MODEL 1
REMARK VINA RESULT:      -8.1      0.000      0.000
REMARK  Name = 
REMARK  8 active torsions:
REMARK  status: ('A' for Active; 'I' for Inactive)
REMARK    1  A    between atoms: C_1  and  C_2
REMARK    2  A    between atoms: C_2  and  C_3
REMARK    3  A    between atoms: C_3  and  C_4
REMARK    4  A    between atoms: C_4  and  S_5
REMARK    5  A    between atoms: S_5  and  N_8
REMARK    6  A    between atoms: N_8  and  C_9
REMARK    7  A    between atoms: N_21  and  C_22
REMARK    8  A    between atoms: C_22  and  C_23
REMARK                            x       y       z     vdW  Elec       q    Type
REMARK                         _______ _______ _______ _____ _____    ______ ____
ROOT
ATOM      1  C   UNL     1       4.960   5.333  16.369  0.00  0.00    +0.000 A 
ATOM      2  C   UNL     1       5.039   3.945  16.640  0.00  0.00    +0.000 A 
ATOM      3  C   UNL     1       4.261   3.329  17.647  0.00  0.00    +0.000 A 
ATOM      4  C   UNL     1       3.435   4.168  18.379  0.00  0.00    +0.000 A 
ATOM      5  C   UNL     1       3.390   5.519  18.114  0.00  0.00    +0.000 A 
ATOM      6  C   UNL     1       2.506   6.121  18.991  0.00  0.00    +0.000 A 
ATOM      7  C   UNL     1       2.295   7.496  18.921  0.00  0.00    +0.000 A 
ATOM      8  C   UNL     1       2.993   8.196  17.919  0.00  0.00    +0.000 A 
ATOM      9  C   UNL     1       3.880   7.548  17.038  0.00  0.00    +0.000 A 
ATOM     10  C   UNL     1       4.107   6.159  17.141  0.00  0.00    +0.000 A 
ATOM     11  C   UNL     1       1.930   5.125  19.873  0.00  0.00    +0.000 C 
ATOM     12  O   UNL     1       1.104   5.220  20.771  0.00  0.00    +0.000 OA
ATOM     13  N   UNL     1       2.558   3.930  19.442  0.00  0.00    +0.000 N 
ENDROOT
BRANCH   1  14
ATOM     14  N   UNL     1       5.808   5.907  15.348  0.00  0.00    +0.000 N 
ATOM     15  H   UNL     1       5.276   6.082  14.492  0.00  0.00    +0.000 HD
BRANCH  14  16
ATOM     16  S   UNL     1       7.145   4.935  14.912  0.00  0.00    +0.000 S 
ATOM     17  O   UNL     1       7.690   4.462  16.167  0.00  0.00    +0.000 OA
ATOM     18  O   UNL     1       7.953   5.625  13.934  0.00  0.00    +0.000 OA
BRANCH  16  19
ATOM     19  C   UNL     1       6.322   3.559  14.091  0.00  0.00    +0.000 C 
BRANCH  19  20
ATOM     20  C   UNL     1       5.953   3.936  12.656  0.00  0.00    +0.000 C 
BRANCH  20  22
ATOM     21  C   UNL     1       4.080   3.166  11.156  0.00  0.00    +0.000 C 
ATOM     22  C   UNL     1       5.367   2.764  11.866  0.00  0.00    +0.000 C 
ENDBRANCH  20  22
ENDBRANCH  19  20
ENDBRANCH  16  19
ENDBRANCH  14  16
ENDBRANCH   1  14
BRANCH  13  23
ATOM     23  C   UNL     1       2.250   2.643  20.028  0.00  0.00    +0.000 C 
ATOM     24  C   UNL     1       2.829   2.490  21.426  0.00  0.00    +0.000 C 
ENDBRANCH  13  23
TORSDOF 6
ENDMDL
MODEL 2
REMARK VINA RESULT:      -8.1      2.621      5.804
REMARK  Name = 
REMARK  8 active torsions:
REMARK  status: ('A' for Active; 'I' for Inactive)
REMARK    1  A    between atoms: C_1  and  C_2
REMARK    2  A    between atoms: C_2  and  C_3
REMARK    3  A    between atoms: C_3  and  C_4
REMARK    4  A    between atoms: C_4  and  S_5
REMARK    5  A    between atoms: S_5  and  N_8
REMARK    6  A    between atoms: N_8  and  C_9
REMARK    7  A    between atoms: N_21  and  C_22
REMARK    8  A    between atoms: C_22  and  C_23
REMARK                            x       y       z     vdW  Elec       q    Type
REMARK                         _______ _______ _______ _____ _____    ______ ____
ROOT
ATOM      1  C   UNL     1       3.657   4.620  20.174  0.00  0.00    +0.000 A 
ATOM      2  C   UNL     1       4.634   3.678  19.767  0.00  0.00    +0.000 A 
ATOM      3  C   UNL     1       5.382   3.834  18.578  0.00  0.00    +0.000 A 
ATOM      4  C   UNL     1       5.084   4.950  17.811  0.00  0.00    +0.000 A 
ATOM      5  C   UNL     1       4.114   5.842  18.213  0.00  0.00    +0.000 A 
ATOM      6  C   UNL     1       4.007   6.847  17.269  0.00  0.00    +0.000 A 
ATOM      7  C   UNL     1       3.080   7.870  17.453  0.00  0.00    +0.000 A 
ATOM      8  C   UNL     1       2.315   7.828  18.633  0.00  0.00    +0.000 A 
ATOM      9  C   UNL     1       2.456   6.793  19.578  0.00  0.00    +0.000 A 
ATOM     10  C   UNL     1       3.378   5.746  19.362  0.00  0.00    +0.000 A 
ATOM     11  C   UNL     1       4.953   6.617  16.194  0.00  0.00    +0.000 C 
ATOM     12  O   UNL     1       5.199   7.260  15.182  0.00  0.00    +0.000 OA
ATOM     13  N   UNL     1       5.588   5.415  16.592  0.00  0.00    +0.000 N 
ENDROOT
BRANCH   1  14
ATOM     14  N   UNL     1       2.902   4.384  21.385  0.00  0.00    +0.000 N 
ATOM     15  H   UNL     1       3.499   3.977  22.109  0.00  0.00    +0.000 HD
BRANCH  14  16
ATOM     16  S   UNL     1       1.569   3.332  21.191  0.00  0.00    +0.000 S 
ATOM     17  O   UNL     1       0.547   4.135  20.552  0.00  0.00    +0.000 OA
ATOM     18  O   UNL     1       1.327   2.618  22.422  0.00  0.00    +0.000 OA
BRANCH  16  19
ATOM     19  C   UNL     1       2.218   2.165  19.983  0.00  0.00    +0.000 C 
BRANCH  19  20
ATOM     20  C   UNL     1       1.325   2.127  18.742  0.00  0.00    +0.000 C 
BRANCH  20  22
ATOM     21  C   UNL     1       1.257   4.147  17.237  0.00  0.00    +0.000 C 
ATOM     22  C   UNL     1       1.954   2.824  17.535  0.00  0.00    +0.000 C 
ENDBRANCH  20  22
ENDBRANCH  19  20
ENDBRANCH  16  19
ENDBRANCH  14  16
ENDBRANCH   1  14
BRANCH  13  23
ATOM     23  C   UNL     1       6.656   4.815  15.822  0.00  0.00    +0.000 C 
ATOM     24  C   UNL     1       6.135   3.912  14.715  0.00  0.00    +0.000 C 
ENDBRANCH  13  23
TORSDOF 6
ENDMDL
MODEL 3
REMARK VINA RESULT:      -8.0      1.971      3.320
REMARK  Name = 
REMARK  8 active torsions:
REMARK  status: ('A' for Active; 'I' for Inactive)
REMARK    1  A    between atoms: C_1  and  C_2
REMARK    2  A    between atoms: C_2  and  C_3
REMARK    3  A    between atoms: C_3  and  C_4
REMARK    4  A    between atoms: C_4  and  S_5
REMARK    5  A    between atoms: S_5  and  N_8
REMARK    6  A    between atoms: N_8  and  C_9
REMARK    7  A    between atoms: N_21  and  C_22
REMARK    8  A    between atoms: C_22  and  C_23
REMARK                            x       y       z     vdW  Elec       q    Type
REMARK                         _______ _______ _______ _____ _____    ______ ____
ROOT
ATOM      1  C   UNL     1       4.720   4.574  16.500  0.00  0.00    +0.000 A 
ATOM      2  C   UNL     1       4.606   3.236  16.952  0.00  0.00    +0.000 A 
ATOM      3  C   UNL     1       3.787   2.879  18.047  0.00  0.00    +0.000 A 
ATOM      4  C   UNL     1       3.121   3.919  18.677  0.00  0.00    +0.000 A 
ATOM      5  C   UNL     1       3.263   5.216  18.235  0.00  0.00    +0.000 A 
ATOM      6  C   UNL     1       2.511   6.052  19.040  0.00  0.00    +0.000 A 
ATOM      7  C   UNL     1       2.500   7.422  18.792  0.00  0.00    +0.000 A 
ATOM      8  C   UNL     1       3.253   7.875  17.692  0.00  0.00    +0.000 A 
ATOM      9  C   UNL     1       4.002   6.993  16.888  0.00  0.00    +0.000 A 
ATOM     10  C   UNL     1       4.027   5.611  17.171  0.00  0.00    +0.000 A 
ATOM     11  C   UNL     1       1.830   5.275  20.058  0.00  0.00    +0.000 C 
ATOM     12  O   UNL     1       1.062   5.609  20.951  0.00  0.00    +0.000 OA
ATOM     13  N   UNL     1       2.259   3.955  19.778  0.00  0.00    +0.000 N 
ENDROOT
BRANCH   1  14
ATOM     14  N   UNL     1       5.603   4.878  15.396  0.00  0.00    +0.000 N 
ATOM     15  H   UNL     1       5.612   4.112  14.719  0.00  0.00    +0.000 HD
BRANCH  14  16
ATOM     16  S   UNL     1       7.227   5.161  15.848  0.00  0.00    +0.000 S 
ATOM     17  O   UNL     1       7.926   5.406  14.604  0.00  0.00    +0.000 OA
ATOM     18  O   UNL     1       7.657   4.149  16.784  0.00  0.00    +0.000 OA
BRANCH  16  19
ATOM     19  C   UNL     1       7.076   6.720  16.736  0.00  0.00    +0.000 C 
BRANCH  19  20
ATOM     20  C   UNL     1       7.525   6.555  18.188  0.00  0.00    +0.000 C 
BRANCH  20  22
ATOM     21  C   UNL     1       8.094   8.995  17.920  0.00  0.00    +0.000 C 
ATOM     22  C   UNL     1       8.408   7.707  18.672  0.00  0.00    +0.000 C 
ENDBRANCH  20  22
ENDBRANCH  19  20
ENDBRANCH  16  19
ENDBRANCH  14  16
ENDBRANCH   1  14
BRANCH  13  23
ATOM     23  C   UNL     1       1.790   2.815  20.536  0.00  0.00    +0.000 C 
ATOM     24  C   UNL     1       2.739   2.439  21.663  0.00  0.00    +0.000 C 
ENDBRANCH  13  23
TORSDOF 6
ENDMDL
MODEL 4
REMARK VINA RESULT:      -8.0      1.450      2.965
REMARK  Name = 
REMARK  8 active torsions:
REMARK  status: ('A' for Active; 'I' for Inactive)
REMARK    1  A    between atoms: C_1  and  C_2
REMARK    2  A    between atoms: C_2  and  C_3
REMARK    3  A    between atoms: C_3  and  C_4
REMARK    4  A    between atoms: C_4  and  S_5
REMARK    5  A    between atoms: S_5  and  N_8
REMARK    6  A    between atoms: N_8  and  C_9
REMARK    7  A    between atoms: N_21  and  C_22
REMARK    8  A    between atoms: C_22  and  C_23
REMARK                            x       y       z     vdW  Elec       q    Type
REMARK                         _______ _______ _______ _____ _____    ______ ____
ROOT
ATOM      1  C   UNL     1       5.433   4.680  17.516  0.00  0.00    +0.000 A 
ATOM      2  C   UNL     1       5.499   5.961  18.118  0.00  0.00    +0.000 A 
ATOM      3  C   UNL     1       4.503   6.427  19.006  0.00  0.00    +0.000 A 
ATOM      4  C   UNL     1       3.438   5.569  19.234  0.00  0.00    +0.000 A 
ATOM      5  C   UNL     1       3.382   4.337  18.621  0.00  0.00    +0.000 A 
ATOM      6  C   UNL     1       2.219   3.695  19.005  0.00  0.00    +0.000 A 
ATOM      7  C   UNL     1       1.935   2.426  18.506  0.00  0.00    +0.000 A 
ATOM      8  C   UNL     1       2.889   1.855  17.644  0.00  0.00    +0.000 A 
ATOM      9  C   UNL     1       4.068   2.535  17.280  0.00  0.00    +0.000 A 
ATOM     10  C   UNL     1       4.327   3.833  17.770  0.00  0.00    +0.000 A 
ATOM     11  C   UNL     1       1.471   4.534  19.921  0.00  0.00    +0.000 C 
ATOM     12  O   UNL     1       0.411   4.349  20.506  0.00  0.00    +0.000 OA
ATOM     13  N   UNL     1       2.284   5.690  20.015  0.00  0.00    +0.000 N 
ENDROOT
BRANCH   1  14
ATOM     14  N   UNL     1       6.467   4.276  16.588  0.00  0.00    +0.000 N 
ATOM     15  H   UNL     1       7.394   4.464  16.977  0.00  0.00    +0.000 HD
BRANCH  14  16
ATOM     16  S   UNL     1       6.397   5.059  15.070  0.00  0.00    +0.000 S 
ATOM     17  O   UNL     1       7.778   5.209  14.662  0.00  0.00    +0.000 OA
ATOM     18  O   UNL     1       5.490   6.180  15.139  0.00  0.00    +0.000 OA
BRANCH  16  19
ATOM     19  C   UNL     1       5.636   3.782  14.054  0.00  0.00    +0.000 C 
BRANCH  19  20
ATOM     20  C   UNL     1       6.311   3.715  12.684  0.00  0.00    +0.000 C 
BRANCH  20  22
ATOM     21  C   UNL     1       4.257   3.166  11.331  0.00  0.00    +0.000 C 
ATOM     22  C   UNL     1       5.650   2.704  11.744  0.00  0.00    +0.000 C 
ENDBRANCH  20  22
ENDBRANCH  19  20
ENDBRANCH  16  19
ENDBRANCH  14  16
ENDBRANCH   1  14
BRANCH  13  23
ATOM     23  C   UNL     1       1.941   6.806  20.871  0.00  0.00    +0.000 C 
ATOM     24  C   UNL     1       1.605   8.060  20.081  0.00  0.00    +0.000 C 
ENDBRANCH  13  23
TORSDOF 6
ENDMDL
MODEL 5
REMARK VINA RESULT:      -7.8      1.980      2.945
REMARK  Name = 
REMARK  8 active torsions:
REMARK  status: ('A' for Active; 'I' for Inactive)
REMARK    1  A    between atoms: C_1  and  C_2
REMARK    2  A    between atoms: C_2  and  C_3
REMARK    3  A    between atoms: C_3  and  C_4
REMARK    4  A    between atoms: C_4  and  S_5
REMARK    5  A    between atoms: S_5  and  N_8
REMARK    6  A    between atoms: N_8  and  C_9
REMARK    7  A    between atoms: N_21  and  C_22
REMARK    8  A    between atoms: C_22  and  C_23
REMARK                            x       y       z     vdW  Elec       q    Type
REMARK                         _______ _______ _______ _____ _____    ______ ____
ROOT
ATOM      1  C   UNL     1       4.557   5.165  16.385  0.00  0.00    +0.000 A 
ATOM      2  C   UNL     1       4.517   3.779  16.674  0.00  0.00    +0.000 A 
ATOM      3  C   UNL     1       3.754   3.253  17.741  0.00  0.00    +0.000 A 
ATOM      4  C   UNL     1       3.067   4.178  18.513  0.00  0.00    +0.000 A 
ATOM      5  C   UNL     1       3.136   5.524  18.228  0.00  0.00    +0.000 A 
ATOM      6  C   UNL     1       2.378   6.220  19.152  0.00  0.00    +0.000 A 
ATOM      7  C   UNL     1       2.299   7.608  19.073  0.00  0.00    +0.000 A 
ATOM      8  C   UNL     1       2.991   8.224  18.014  0.00  0.00    +0.000 A 
ATOM      9  C   UNL     1       3.749   7.483  17.087  0.00  0.00    +0.000 A 
ATOM     10  C   UNL     1       3.844   6.079  17.198  0.00  0.00    +0.000 A 
ATOM     11  C   UNL     1       1.769   5.295  20.088  0.00  0.00    +0.000 C 
ATOM     12  O   UNL     1       1.019   5.481  21.038  0.00  0.00    +0.000 OA
ATOM     13  N   UNL     1       2.245   4.039  19.636  0.00  0.00    +0.000 N 
ENDROOT
BRANCH   1  14
ATOM     14  N   UNL     1       5.386   5.642  15.299  0.00  0.00    +0.000 N 
ATOM     15  H   UNL     1       4.870   5.622  14.416  0.00  0.00    +0.000 HD
BRANCH  14  16
ATOM     16  S   UNL     1       6.818   4.742  15.058  0.00  0.00    +0.000 S 
ATOM     17  O   UNL     1       7.666   5.594  14.251  0.00  0.00    +0.000 OA
ATOM     18  O   UNL     1       6.488   3.392  14.665  0.00  0.00    +0.000 OA
BRANCH  16  19
ATOM     19  C   UNL     1       7.484   4.692  16.731  0.00  0.00    +0.000 C 
BRANCH  19  20
ATOM     20  C   UNL     1       7.569   6.102  17.315  0.00  0.00    +0.000 C 
BRANCH  20  22
ATOM     21  C   UNL     1       6.561   5.366  19.505  0.00  0.00    +0.000 C 
ATOM     22  C   UNL     1       7.715   6.106  18.838  0.00  0.00    +0.000 C 
ENDBRANCH  20  22
ENDBRANCH  19  20
ENDBRANCH  16  19
ENDBRANCH  14  16
ENDBRANCH   1  14
BRANCH  13  23
ATOM     23  C   UNL     1       1.853   2.795  20.263  0.00  0.00    +0.000 C 
ATOM     24  C   UNL     1       2.596   2.545  21.566  0.00  0.00    +0.000 C 
ENDBRANCH  13  23
TORSDOF 6
ENDMDL
MODEL 6
REMARK VINA RESULT:      -7.8      2.243      6.272
REMARK  Name = 
REMARK  8 active torsions:
REMARK  status: ('A' for Active; 'I' for Inactive)
REMARK    1  A    between atoms: C_1  and  C_2
REMARK    2  A    between atoms: C_2  and  C_3
REMARK    3  A    between atoms: C_3  and  C_4
REMARK    4  A    between atoms: C_4  and  S_5
REMARK    5  A    between atoms: S_5  and  N_8
REMARK    6  A    between atoms: N_8  and  C_9
REMARK    7  A    between atoms: N_21  and  C_22
REMARK    8  A    between atoms: C_22  and  C_23
REMARK                            x       y       z     vdW  Elec       q    Type
REMARK                         _______ _______ _______ _____ _____    ______ ____
ROOT
ATOM      1  C   UNL     1       4.432   3.639  18.635  0.00  0.00    +0.000 A 
ATOM      2  C   UNL     1       3.911   2.842  17.586  0.00  0.00    +0.000 A 
ATOM      3  C   UNL     1       4.442   2.882  16.276  0.00  0.00    +0.000 A 
ATOM      4  C   UNL     1       5.485   3.770  16.067  0.00  0.00    +0.000 A 
ATOM      5  C   UNL     1       5.962   4.552  17.096  0.00  0.00    +0.000 A 
ATOM      6  C   UNL     1       6.984   5.352  16.619  0.00  0.00    +0.000 A 
ATOM      7  C   UNL     1       7.623   6.241  17.480  0.00  0.00    +0.000 A 
ATOM      8  C   UNL     1       7.195   6.245  18.820  0.00  0.00    +0.000 A 
ATOM      9  C   UNL     1       6.155   5.410  19.274  0.00  0.00    +0.000 A 
ATOM     10  C   UNL     1       5.496   4.537  18.382  0.00  0.00    +0.000 A 
ATOM     11  C   UNL     1       7.203   5.085  15.211  0.00  0.00    +0.000 C 
ATOM     12  O   UNL     1       8.009   5.550  14.415  0.00  0.00    +0.000 OA
ATOM     13  N   UNL     1       6.231   4.093  14.929  0.00  0.00    +0.000 N 
ENDROOT
BRANCH   1  14
ATOM     14  N   UNL     1       3.820   3.577  19.945  0.00  0.00    +0.000 N 
ATOM     15  H   UNL     1       3.761   2.609  20.271  0.00  0.00    +0.000 HD
BRANCH  14  16
ATOM     16  S   UNL     1       2.239   4.222  20.017  0.00  0.00    +0.000 S 
ATOM     17  O   UNL     1       1.809   4.011  21.383  0.00  0.00    +0.000 OA
ATOM     18  O   UNL     1       1.469   3.756  18.887  0.00  0.00    +0.000 OA
BRANCH  16  19
ATOM     19  C   UNL     1       2.568   5.978  19.786  0.00  0.00    +0.000 C 
BRANCH  19  20
ATOM     20  C   UNL     1       2.261   6.394  18.347  0.00  0.00    +0.000 C 
BRANCH  20  22
ATOM     21  C   UNL     1       2.201   8.838  17.732  0.00  0.00    +0.000 C 
ATOM     22  C   UNL     1       3.081   7.603  17.891  0.00  0.00    +0.000 C 
ENDBRANCH  20  22
ENDBRANCH  19  20
ENDBRANCH  16  19
ENDBRANCH  14  16
ENDBRANCH   1  14
BRANCH  13  23
ATOM     23  C   UNL     1       6.106   3.486  13.621  0.00  0.00    +0.000 C 
ATOM     24  C   UNL     1       4.977   4.095  12.805  0.00  0.00    +0.000 C 
ENDBRANCH  13  23
TORSDOF 6
ENDMDL
MODEL 7
REMARK VINA RESULT:      -7.8      2.811      4.814
REMARK  Name = 
REMARK  8 active torsions:
REMARK  status: ('A' for Active; 'I' for Inactive)
REMARK    1  A    between atoms: C_1  and  C_2
REMARK    2  A    between atoms: C_2  and  C_3
REMARK    3  A    between atoms: C_3  and  C_4
REMARK    4  A    between atoms: C_4  and  S_5
REMARK    5  A    between atoms: S_5  and  N_8
REMARK    6  A    between atoms: N_8  and  C_9
REMARK    7  A    between atoms: N_21  and  C_22
REMARK    8  A    between atoms: C_22  and  C_23
REMARK                            x       y       z     vdW  Elec       q    Type
REMARK                         _______ _______ _______ _____ _____    ______ ____
ROOT
ATOM      1  C   UNL     1       4.630   5.612  17.406  0.00  0.00    +0.000 A 
ATOM      2  C   UNL     1       4.432   6.890  16.828  0.00  0.00    +0.000 A 
ATOM      3  C   UNL     1       3.550   7.842  17.388  0.00  0.00    +0.000 A 
ATOM      4  C   UNL     1       2.862   7.443  18.524  0.00  0.00    +0.000 A 
ATOM      5  C   UNL     1       3.052   6.187  19.057  0.00  0.00    +0.000 A 
ATOM      6  C   UNL     1       2.241   6.041  20.167  0.00  0.00    +0.000 A 
ATOM      7  C   UNL     1       2.253   4.843  20.877  0.00  0.00    +0.000 A 
ATOM      8  C   UNL     1       3.134   3.844  20.423  0.00  0.00    +0.000 A 
ATOM      9  C   UNL     1       3.952   4.030  19.292  0.00  0.00    +0.000 A 
ATOM     10  C   UNL     1       3.906   5.239  18.564  0.00  0.00    +0.000 A 
ATOM     11  C   UNL     1       1.483   7.258  20.388  0.00  0.00    +0.000 C 
ATOM     12  O   UNL     1       0.673   7.560  21.255  0.00  0.00    +0.000 OA
ATOM     13  N   UNL     1       1.914   8.088  19.324  0.00  0.00    +0.000 N 
ENDROOT
BRANCH   1  14
ATOM     14  N   UNL     1       5.521   4.671  16.763  0.00  0.00    +0.000 N 
ATOM     15  H   UNL     1       5.491   3.765  17.236  0.00  0.00    +0.000 HD
BRANCH  14  16
ATOM     16  S   UNL     1       7.158   5.160  16.728  0.00  0.00    +0.000 S 
ATOM     17  O   UNL     1       7.357   5.712  15.405  0.00  0.00    +0.000 OA
ATOM     18  O   UNL     1       7.994   4.108  17.256  0.00  0.00    +0.000 OA
BRANCH  16  19
ATOM     19  C   UNL     1       7.142   6.515  17.916  0.00  0.00    +0.000 C 
BRANCH  19  20
ATOM     20  C   UNL     1       8.126   7.607  17.494  0.00  0.00    +0.000 C 
BRANCH  20  22
ATOM     21  C   UNL     1       8.777   9.873  18.386  0.00  0.00    +0.000 C 
ATOM     22  C   UNL     1       7.638   9.014  17.849  0.00  0.00    +0.000 C 
ENDBRANCH  20  22
ENDBRANCH  19  20
ENDBRANCH  16  19
ENDBRANCH  14  16
ENDBRANCH   1  14
BRANCH  13  23
ATOM     23  C   UNL     1       1.439   9.445  19.165  0.00  0.00    +0.000 C 
ATOM     24  C   UNL     1       0.414   9.573  18.049  0.00  0.00    +0.000 C 
ENDBRANCH  13  23
TORSDOF 6
ENDMDL
MODEL 8
REMARK VINA RESULT:      -7.8      1.592      3.390
REMARK  Name = 
REMARK  8 active torsions:
REMARK  status: ('A' for Active; 'I' for Inactive)
REMARK    1  A    between atoms: C_1  and  C_2
REMARK    2  A    between atoms: C_2  and  C_3
REMARK    3  A    between atoms: C_3  and  C_4
REMARK    4  A    between atoms: C_4  and  S_5
REMARK    5  A    between atoms: S_5  and  N_8
REMARK    6  A    between atoms: N_8  and  C_9
REMARK    7  A    between atoms: N_21  and  C_22
REMARK    8  A    between atoms: C_22  and  C_23
REMARK                            x       y       z     vdW  Elec       q    Type
REMARK                         _______ _______ _______ _____ _____    ______ ____
ROOT
ATOM      1  C   UNL     1       4.605   5.469  17.295  0.00  0.00    +0.000 A 
ATOM      2  C   UNL     1       4.418   6.759  16.740  0.00  0.00    +0.000 A 
ATOM      3  C   UNL     1       3.575   7.722  17.341  0.00  0.00    +0.000 A 
ATOM      4  C   UNL     1       2.913   7.321  18.491  0.00  0.00    +0.000 A 
ATOM      5  C   UNL     1       3.091   6.053  19.000  0.00  0.00    +0.000 A 
ATOM      6  C   UNL     1       2.310   5.909  20.133  0.00  0.00    +0.000 A 
ATOM      7  C   UNL     1       2.317   4.701  20.826  0.00  0.00    +0.000 A 
ATOM      8  C   UNL     1       3.162   3.690  20.331  0.00  0.00    +0.000 A 
ATOM      9  C   UNL     1       3.950   3.874  19.178  0.00  0.00    +0.000 A 
ATOM     10  C   UNL     1       3.908   5.094  18.469  0.00  0.00    +0.000 A 
ATOM     11  C   UNL     1       1.587   7.138  20.393  0.00  0.00    +0.000 C 
ATOM     12  O   UNL     1       0.810   7.446  21.289  0.00  0.00    +0.000 OA
ATOM     13  N   UNL     1       2.003   7.974  19.328  0.00  0.00    +0.000 N 
ENDROOT
BRANCH   1  14
ATOM     14  N   UNL     1       5.455   4.518  16.612  0.00  0.00    +0.000 N 
ATOM     15  H   UNL     1       5.574   3.671  17.173  0.00  0.00    +0.000 HD
BRANCH  14  16
ATOM     16  S   UNL     1       7.022   5.101  16.256  0.00  0.00    +0.000 S 
ATOM     17  O   UNL     1       7.924   4.170  16.900  0.00  0.00    +0.000 OA
ATOM     18  O   UNL     1       7.082   6.523  16.501  0.00  0.00    +0.000 OA
BRANCH  16  19
ATOM     19  C   UNL     1       7.098   4.834  14.477  0.00  0.00    +0.000 C 
BRANCH  19  20
ATOM     20  C   UNL     1       6.010   3.853  14.036  0.00  0.00    +0.000 C 
BRANCH  20  22
ATOM     21  C   UNL     1       5.937   2.482  11.923  0.00  0.00    +0.000 C 
ATOM     22  C   UNL     1       5.769   3.872  12.526  0.00  0.00    +0.000 C 
ENDBRANCH  20  22
ENDBRANCH  19  20
ENDBRANCH  16  19
ENDBRANCH  14  16
ENDBRANCH   1  14
BRANCH  13  23
ATOM     23  C   UNL     1       1.554   9.344  19.202  0.00  0.00    +0.000 C 
ATOM     24  C   UNL     1       0.641   9.546  18.003  0.00  0.00    +0.000 C 
ENDBRANCH  13  23
TORSDOF 6
ENDMDL
MODEL 9
REMARK VINA RESULT:      -7.8      2.275      3.462
REMARK  Name = 
REMARK  8 active torsions:
REMARK  status: ('A' for Active; 'I' for Inactive)
REMARK    1  A    between atoms: C_1  and  C_2
REMARK    2  A    between atoms: C_2  and  C_3
REMARK    3  A    between atoms: C_3  and  C_4
REMARK    4  A    between atoms: C_4  and  S_5
REMARK    5  A    between atoms: S_5  and  N_8
REMARK    6  A    between atoms: N_8  and  C_9
REMARK    7  A    between atoms: N_21  and  C_22
REMARK    8  A    between atoms: C_22  and  C_23
REMARK                            x       y       z     vdW  Elec       q    Type
REMARK                         _______ _______ _______ _____ _____    ______ ____
ROOT
ATOM      1  C   UNL     1       4.788   4.724  17.009  0.00  0.00    +0.000 A 
ATOM      2  C   UNL     1       4.844   3.541  17.787  0.00  0.00    +0.000 A 
ATOM      3  C   UNL     1       4.118   3.397  18.991  0.00  0.00    +0.000 A 
ATOM      4  C   UNL     1       3.369   4.494  19.387  0.00  0.00    +0.000 A 
ATOM      5  C   UNL     1       3.346   5.643  18.627  0.00  0.00    +0.000 A 
ATOM      6  C   UNL     1       2.541   6.580  19.250  0.00  0.00    +0.000 A 
ATOM      7  C   UNL     1       2.366   7.834  18.670  0.00  0.00    +0.000 A 
ATOM      8  C   UNL     1       3.015   8.061  17.442  0.00  0.00    +0.000 A 
ATOM      9  C   UNL     1       3.822   7.081  16.832  0.00  0.00    +0.000 A 
ATOM     10  C   UNL     1       4.014   5.825  17.448  0.00  0.00    +0.000 A 
ATOM     11  C   UNL     1       1.997   6.026  20.475  0.00  0.00    +0.000 C 
ATOM     12  O   UNL     1       1.236   6.500  21.308  0.00  0.00    +0.000 OA
ATOM     13  N   UNL     1       2.558   4.726  20.503  0.00  0.00    +0.000 N 
ENDROOT
BRANCH   1  14
ATOM     14  N   UNL     1       5.583   4.820  15.804  0.00  0.00    +0.000 N 
ATOM     15  H   UNL     1       5.581   3.931  15.298  0.00  0.00    +0.000 HD
BRANCH  14  16
ATOM     16  S   UNL     1       7.219   5.238  16.069  0.00  0.00    +0.000 S 
ATOM     17  O   UNL     1       7.728   5.607  14.764  0.00  0.00    +0.000 OA
ATOM     18  O   UNL     1       7.854   4.230  16.885  0.00  0.00    +0.000 OA
BRANCH  16  19
ATOM     19  C   UNL     1       7.041   6.733  17.057  0.00  0.00    +0.000 C 
BRANCH  19  20
ATOM     20  C   UNL     1       7.926   6.659  18.302  0.00  0.00    +0.000 C 
BRANCH  20  22
ATOM     21  C   UNL     1       8.365   5.292  20.374  0.00  0.00    +0.000 C 
ATOM     22  C   UNL     1       7.299   5.835  19.429  0.00  0.00    +0.000 C 
ENDBRANCH  20  22
ENDBRANCH  19  20
ENDBRANCH  16  19
ENDBRANCH  14  16
ENDBRANCH   1  14
BRANCH  13  23
ATOM     23  C   UNL     1       2.253   3.777  21.552  0.00  0.00    +0.000 C 
ATOM     24  C   UNL     1       1.181   2.781  21.139  0.00  0.00    +0.000 C 
ENDBRANCH  13  23
TORSDOF 6
ENDMDL
