MODEL 1
REMARK VINA RESULT:      -8.0      0.000      0.000
REMARK  Name = 
REMARK  6 active torsions:
REMARK  status: ('A' for Active; 'I' for Inactive)
REMARK    1  A    between atoms: C_2  and  C_11
REMARK    2  A    between atoms: N_3  and  C_4
REMARK    3  A    between atoms: C_4  and  C_5
REMARK    4  A    between atoms: C_15  and  C_16
REMARK    5  A    between atoms: N_18  and  C_19
REMARK    6  A    between atoms: C_19  and  C_20
REMARK                            x       y       z     vdW  Elec       q    Type
REMARK                         _______ _______ _______ _____ _____    ______ ____
ROOT
ATOM      1  C   UNL     1       6.316   4.971  18.235  0.00  0.00    +0.000 A 
ATOM      2  N   UNL     1       7.612   4.858  18.746  0.00  0.00    +0.000 NA
ATOM      3  C   UNL     1       8.153   6.041  18.597  0.00  0.00    +0.000 A 
ATOM      4  N   UNL     1       7.305   6.900  17.965  0.00  0.00    +0.000 N 
ATOM      5  C   UNL     1       6.117   6.246  17.713  0.00  0.00    +0.000 A 
ATOM      6  H   UNL     1       7.499   7.867  17.752  0.00  0.00    +0.000 HD
ENDROOT
BRANCH   1   8
ATOM      7  O   UNL     1       4.773   3.433  17.261  0.00  0.00    +0.000 OA
ATOM      8  C   UNL     1       5.400   3.823  18.237  0.00  0.00    +0.000 C 
ATOM      9  N   UNL     1       5.328   3.206  19.469  0.00  0.00    +0.000 N 
ATOM     10  H   UNL     1       5.773   3.687  20.245  0.00  0.00    +0.000 HD
BRANCH   9  11
ATOM     11  C   UNL     1       4.446   2.094  19.705  0.00  0.00    +0.000 C 
BRANCH  11  12
ATOM     12  C   UNL     1       3.001   2.514  19.813  0.00  0.00    +0.000 A 
ATOM     13  C   UNL     1       2.600   3.463  20.764  0.00  0.00    +0.000 A 
ATOM     14  C   UNL     1       1.280   3.918  20.800  0.00  0.00    +0.000 A 
ATOM     15  C   UNL     1       0.346   3.430  19.887  0.00  0.00    +0.000 A 
ATOM     16  C   UNL     1       0.728   2.476  18.947  0.00  0.00    +0.000 A 
ATOM     17  C   UNL     1       2.048   2.019  18.910  0.00  0.00    +0.000 A 
ENDBRANCH  11  12
ENDBRANCH   9  11
ENDBRANCH   1   8
BRANCH   5  18
ATOM     18  C   UNL     1       4.967   6.839  17.071  0.00  0.00    +0.000 C 
ATOM     19  O   UNL     1       4.844   6.979  15.865  0.00  0.00    +0.000 OA
ATOM     20  N   UNL     1       3.971   7.238  17.947  0.00  0.00    +0.000 N 
ATOM     21  H   UNL     1       4.163   7.304  18.934  0.00  0.00    +0.000 HD
BRANCH  20  22
ATOM     22  C   UNL     1       2.763   7.890  17.473  0.00  0.00    +0.000 C 
BRANCH  22  23
ATOM     23  C   UNL     1       1.930   8.386  18.628  0.00  0.00    +0.000 A 
ATOM     24  C   UNL     1       1.108   9.514  18.476  0.00  0.00    +0.000 A 
ATOM     25  C   UNL     1       0.363  10.001  19.553  0.00  0.00    +0.000 A 
ATOM     26  C   UNL     1       0.422   9.359  20.789  0.00  0.00    +0.000 A 
ATOM     27  C   UNL     1       1.208   8.220  20.944  0.00  0.00    +0.000 A 
ATOM     28  C   UNL     1       1.955   7.732  19.868  0.00  0.00    +0.000 A 
ENDBRANCH  22  23
ENDBRANCH  20  22
ENDBRANCH   5  18
TORSDOF 6
ENDMDL
MODEL 2
REMARK VINA RESULT:      -8.0      0.168      5.055
REMARK  Name = 
REMARK  6 active torsions:
REMARK  status: ('A' for Active; 'I' for Inactive)
REMARK    1  A    between atoms: C_2  and  C_11
REMARK    2  A    between atoms: N_3  and  C_4
REMARK    3  A    between atoms: C_4  and  C_5
REMARK    4  A    between atoms: C_15  and  C_16
REMARK    5  A    between atoms: N_18  and  C_19
REMARK    6  A    between atoms: C_19  and  C_20
REMARK                            x       y       z     vdW  Elec       q    Type
REMARK                         _______ _______ _______ _____ _____    ______ ____
ROOT
ATOM      1  C   UNL     1       6.264   6.248  17.713  0.00  0.00    +0.000 A 
ATOM      2  N   UNL     1       7.406   7.000  17.999  0.00  0.00    +0.000 NA
ATOM      3  C   UNL     1       8.209   6.189  18.641  0.00  0.00    +0.000 A 
ATOM      4  N   UNL     1       7.631   4.972  18.841  0.00  0.00    +0.000 N 
ATOM      5  C   UNL     1       6.378   4.974  18.263  0.00  0.00    +0.000 A 
ATOM      6  H   UNL     1       8.063   4.184  19.302  0.00  0.00    +0.000 HD
ENDROOT
BRANCH   1   8
ATOM      7  O   UNL     1       5.098   7.018  15.778  0.00  0.00    +0.000 OA
ATOM      8  C   UNL     1       5.131   6.839  16.988  0.00  0.00    +0.000 C 
ATOM      9  N   UNL     1       4.082   7.164  17.822  0.00  0.00    +0.000 N 
ATOM     10  H   UNL     1       4.260   7.109  18.820  0.00  0.00    +0.000 HD
BRANCH   9  11
ATOM     11  C   UNL     1       2.894   7.807  17.324  0.00  0.00    +0.000 C 
BRANCH  11  12
ATOM     12  C   UNL     1       2.014   8.334  18.431  0.00  0.00    +0.000 A 
ATOM     13  C   UNL     1       2.010   7.725  19.694  0.00  0.00    +0.000 A 
ATOM     14  C   UNL     1       1.265   8.270  20.742  0.00  0.00    +0.000 A 
ATOM     15  C   UNL     1       0.515   9.428  20.540  0.00  0.00    +0.000 A 
ATOM     16  C   UNL     1       0.499  10.034  19.286  0.00  0.00    +0.000 A 
ATOM     17  C   UNL     1       1.243   9.490  18.236  0.00  0.00    +0.000 A 
ENDBRANCH  11  12
ENDBRANCH   9  11
ENDBRANCH   1   8
BRANCH   5  18
ATOM     18  C   UNL     1       5.470   3.851  18.253  0.00  0.00    +0.000 C 
ATOM     19  O   UNL     1       4.862   3.463  17.268  0.00  0.00    +0.000 OA
ATOM     20  N   UNL     1       5.343   3.213  19.475  0.00  0.00    +0.000 N 
ATOM     21  H   UNL     1       5.684   3.655  20.314  0.00  0.00    +0.000 HD
BRANCH  20  22
ATOM     22  C   UNL     1       4.441   2.089  19.652  0.00  0.00    +0.000 C 
BRANCH  22  23
ATOM     23  C   UNL     1       3.008   2.554  19.728  0.00  0.00    +0.000 A 
ATOM     24  C   UNL     1       2.628   3.530  20.662  0.00  0.00    +0.000 A 
ATOM     25  C   UNL     1       1.295   3.937  20.763  0.00  0.00    +0.000 A 
ATOM     26  C   UNL     1       0.331   3.382  19.924  0.00  0.00    +0.000 A 
ATOM     27  C   UNL     1       0.701   2.435  18.971  0.00  0.00    +0.000 A 
ATOM     28  C   UNL     1       2.033   2.026  18.869  0.00  0.00    +0.000 A 
ENDBRANCH  22  23
ENDBRANCH  20  22
ENDBRANCH   5  18
TORSDOF 6
ENDMDL
MODEL 3
REMARK VINA RESULT:      -8.0      3.524      5.274
REMARK  Name = 
REMARK  6 active torsions:
REMARK  status: ('A' for Active; 'I' for Inactive)
REMARK    1  A    between atoms: C_2  and  C_11
REMARK    2  A    between atoms: N_3  and  C_4
REMARK    3  A    between atoms: C_4  and  C_5
REMARK    4  A    between atoms: C_15  and  C_16
REMARK    5  A    between atoms: N_18  and  C_19
REMARK    6  A    between atoms: C_19  and  C_20
REMARK                            x       y       z     vdW  Elec       q    Type
REMARK                         _______ _______ _______ _____ _____    ______ ____
ROOT
ATOM      1  C   UNL     1       5.794   5.817  17.195  0.00  0.00    +0.000 A 
ATOM      2  N   UNL     1       5.450   5.303  15.942  0.00  0.00    +0.000 NA
ATOM      3  C   UNL     1       6.516   5.452  15.196  0.00  0.00    +0.000 A 
ATOM      4  N   UNL     1       7.513   6.086  15.875  0.00  0.00    +0.000 N 
ATOM      5  C   UNL     1       7.083   6.340  17.161  0.00  0.00    +0.000 A 
ATOM      6  H   UNL     1       8.430   6.298  15.510  0.00  0.00    +0.000 HD
ENDROOT
BRANCH   1   8
ATOM      7  O   UNL     1       5.061   5.392  19.426  0.00  0.00    +0.000 OA
ATOM      8  C   UNL     1       4.829   5.817  18.302  0.00  0.00    +0.000 C 
ATOM      9  N   UNL     1       3.616   6.370  17.947  0.00  0.00    +0.000 N 
ATOM     10  H   UNL     1       3.476   6.562  16.960  0.00  0.00    +0.000 HD
BRANCH   9  11
ATOM     11  C   UNL     1       2.510   6.418  18.867  0.00  0.00    +0.000 C 
BRANCH  11  12
ATOM     12  C   UNL     1       1.982   5.046  19.208  0.00  0.00    +0.000 A 
ATOM     13  C   UNL     1       1.762   4.675  20.542  0.00  0.00    +0.000 A 
ATOM     14  C   UNL     1       1.187   3.440  20.850  0.00  0.00    +0.000 A 
ATOM     15  C   UNL     1       0.827   2.561  19.828  0.00  0.00    +0.000 A 
ATOM     16  C   UNL     1       1.055   2.912  18.499  0.00  0.00    +0.000 A 
ATOM     17  C   UNL     1       1.630   4.147  18.190  0.00  0.00    +0.000 A 
ENDBRANCH  11  12
ENDBRANCH   9  11
ENDBRANCH   1   8
BRANCH   5  18
ATOM     18  C   UNL     1       7.873   6.985  18.185  0.00  0.00    +0.000 C 
ATOM     19  O   UNL     1       8.311   6.421  19.176  0.00  0.00    +0.000 OA
ATOM     20  N   UNL     1       8.123   8.325  17.950  0.00  0.00    +0.000 N 
ATOM     21  H   UNL     1       7.598   8.822  17.247  0.00  0.00    +0.000 HD
BRANCH  20  22
ATOM     22  C   UNL     1       8.868   9.134  18.898  0.00  0.00    +0.000 C 
BRANCH  22  23
ATOM     23  C   UNL     1       9.086  10.528  18.364  0.00  0.00    +0.000 A 
ATOM     24  C   UNL     1      10.356  11.122  18.429  0.00  0.00    +0.000 A 
ATOM     25  C   UNL     1      10.555  12.426  17.970  0.00  0.00    +0.000 A 
ATOM     26  C   UNL     1       9.491  13.146  17.430  0.00  0.00    +0.000 A 
ATOM     27  C   UNL     1       8.233  12.556  17.330  0.00  0.00    +0.000 A 
ATOM     28  C   UNL     1       8.031  11.252  17.789  0.00  0.00    +0.000 A 
ENDBRANCH  22  23
ENDBRANCH  20  22
ENDBRANCH   5  18
TORSDOF 6
ENDMDL
MODEL 4
REMARK VINA RESULT:      -8.0      3.529      7.129
REMARK  Name = 
REMARK  6 active torsions:
REMARK  status: ('A' for Active; 'I' for Inactive)
REMARK    1  A    between atoms: C_2  and  C_11
REMARK    2  A    between atoms: N_3  and  C_4
REMARK    3  A    between atoms: C_4  and  C_5
REMARK    4  A    between atoms: C_15  and  C_16
REMARK    5  A    between atoms: N_18  and  C_19
REMARK    6  A    between atoms: C_19  and  C_20
REMARK                            x       y       z     vdW  Elec       q    Type
REMARK                         _______ _______ _______ _____ _____    ______ ____
ROOT
ATOM      1  C   UNL     1       7.018   6.351  17.216  0.00  0.00    +0.000 A 
ATOM      2  N   UNL     1       7.486   6.120  15.920  0.00  0.00    +0.000 NA
ATOM      3  C   UNL     1       6.496   5.543  15.286  0.00  0.00    +0.000 A 
ATOM      4  N   UNL     1       5.433   5.333  16.112  0.00  0.00    +0.000 N 
ATOM      5  C   UNL     1       5.733   5.835  17.361  0.00  0.00    +0.000 A 
ATOM      6  H   UNL     1       4.554   4.915  15.843  0.00  0.00    +0.000 HD
ENDROOT
BRANCH   1   8
ATOM      7  O   UNL     1       8.354   6.424  19.192  0.00  0.00    +0.000 OA
ATOM      8  C   UNL     1       7.870   6.995  18.224  0.00  0.00    +0.000 C 
ATOM      9  N   UNL     1       8.089   8.331  17.956  0.00  0.00    +0.000 N 
ATOM     10  H   UNL     1       7.533   8.742  17.213  0.00  0.00    +0.000 HD
BRANCH   9  11
ATOM     11  C   UNL     1       8.852   9.164  18.848  0.00  0.00    +0.000 C 
BRANCH  11  12
ATOM     12  C   UNL     1       9.116  10.535  18.275  0.00  0.00    +0.000 A 
ATOM     13  C   UNL     1       8.057  11.344  17.839  0.00  0.00    +0.000 A 
ATOM     14  C   UNL     1       8.297  12.647  17.396  0.00  0.00    +0.000 A 
ATOM     15  C   UNL     1       9.595  13.155  17.382  0.00  0.00    +0.000 A 
ATOM     16  C   UNL     1      10.657  12.355  17.798  0.00  0.00    +0.000 A 
ATOM     17  C   UNL     1      10.420  11.052  18.241  0.00  0.00    +0.000 A 
ENDBRANCH  11  12
ENDBRANCH   9  11
ENDBRANCH   1   8
BRANCH   5  18
ATOM     18  C   UNL     1       4.842   5.812  18.497  0.00  0.00    +0.000 C 
ATOM     19  O   UNL     1       5.153   5.420  19.611  0.00  0.00    +0.000 OA
ATOM     20  N   UNL     1       3.573   6.296  18.233  0.00  0.00    +0.000 N 
ATOM     21  H   UNL     1       3.269   6.426  17.281  0.00  0.00    +0.000 HD
BRANCH  20  22
ATOM     22  C   UNL     1       2.539   6.309  19.253  0.00  0.00    +0.000 C 
BRANCH  22  23
ATOM     23  C   UNL     1       1.963   4.929  19.455  0.00  0.00    +0.000 A 
ATOM     24  C   UNL     1       1.633   4.130  18.349  0.00  0.00    +0.000 A 
ATOM     25  C   UNL     1       1.064   2.867  18.529  0.00  0.00    +0.000 A 
ATOM     26  C   UNL     1       0.831   2.385  19.816  0.00  0.00    +0.000 A 
ATOM     27  C   UNL     1       1.183   3.155  20.922  0.00  0.00    +0.000 A 
ATOM     28  C   UNL     1       1.752   4.419  20.744  0.00  0.00    +0.000 A 
ENDBRANCH  22  23
ENDBRANCH  20  22
ENDBRANCH   5  18
TORSDOF 6
ENDMDL
MODEL 5
REMARK VINA RESULT:      -8.0      3.491      5.357
REMARK  Name = 
REMARK  6 active torsions:
REMARK  status: ('A' for Active; 'I' for Inactive)
REMARK    1  A    between atoms: C_2  and  C_11
REMARK    2  A    between atoms: N_3  and  C_4
REMARK    3  A    between atoms: C_4  and  C_5
REMARK    4  A    between atoms: C_15  and  C_16
REMARK    5  A    between atoms: N_18  and  C_19
REMARK    6  A    between atoms: C_19  and  C_20
REMARK                            x       y       z     vdW  Elec       q    Type
REMARK                         _______ _______ _______ _____ _____    ______ ____
ROOT
ATOM      1  C   UNL     1       5.636   6.268  16.640  0.00  0.00    +0.000 A 
ATOM      2  N   UNL     1       5.418   5.670  15.396  0.00  0.00    +0.000 NA
ATOM      3  C   UNL     1       6.609   5.427  14.909  0.00  0.00    +0.000 A 
ATOM      4  N   UNL     1       7.588   5.886  15.738  0.00  0.00    +0.000 N 
ATOM      5  C   UNL     1       7.000   6.437  16.858  0.00  0.00    +0.000 A 
ATOM      6  H   UNL     1       8.581   5.800  15.578  0.00  0.00    +0.000 HD
ENDROOT
BRANCH   1   8
ATOM      7  O   UNL     1       3.859   7.707  17.323  0.00  0.00    +0.000 OA
ATOM      8  C   UNL     1       4.510   6.684  17.486  0.00  0.00    +0.000 C 
ATOM      9  N   UNL     1       4.243   5.779  18.493  0.00  0.00    +0.000 N 
ATOM     10  H   UNL     1       4.924   5.038  18.630  0.00  0.00    +0.000 HD
BRANCH   9  11
ATOM     11  C   UNL     1       3.215   6.020  19.471  0.00  0.00    +0.000 C 
BRANCH  11  12
ATOM     12  C   UNL     1       2.349   4.807  19.710  0.00  0.00    +0.000 A 
ATOM     13  C   UNL     1       1.776   4.113  18.636  0.00  0.00    +0.000 A 
ATOM     14  C   UNL     1       1.052   2.939  18.855  0.00  0.00    +0.000 A 
ATOM     15  C   UNL     1       0.892   2.446  20.150  0.00  0.00    +0.000 A 
ATOM     16  C   UNL     1       1.444   3.135  21.227  0.00  0.00    +0.000 A 
ATOM     17  C   UNL     1       2.168   4.310  21.010  0.00  0.00    +0.000 A 
ENDBRANCH  11  12
ENDBRANCH   9  11
ENDBRANCH   1   8
BRANCH   5  18
ATOM     18  C   UNL     1       7.720   7.011  17.971  0.00  0.00    +0.000 C 
ATOM     19  O   UNL     1       8.036   6.398  18.979  0.00  0.00    +0.000 OA
ATOM     20  N   UNL     1       8.050   8.345  17.807  0.00  0.00    +0.000 N 
ATOM     21  H   UNL     1       7.617   8.887  17.076  0.00  0.00    +0.000 HD
BRANCH  20  22
ATOM     22  C   UNL     1       8.740   9.088  18.846  0.00  0.00    +0.000 C 
BRANCH  22  23
ATOM     23  C   UNL     1       9.108  10.471  18.368  0.00  0.00    +0.000 A 
ATOM     24  C   UNL     1       8.117  11.341  17.885  0.00  0.00    +0.000 A 
ATOM     25  C   UNL     1       8.457  12.608  17.407  0.00  0.00    +0.000 A 
ATOM     26  C   UNL     1       9.787  13.024  17.416  0.00  0.00    +0.000 A 
ATOM     27  C   UNL     1      10.775  12.183  17.923  0.00  0.00    +0.000 A 
ATOM     28  C   UNL     1      10.438  10.914  18.401  0.00  0.00    +0.000 A 
ENDBRANCH  22  23
ENDBRANCH  20  22
ENDBRANCH   5  18
TORSDOF 6
ENDMDL
MODEL 6
REMARK VINA RESULT:      -8.0      2.879      6.564
REMARK  Name = 
REMARK  6 active torsions:
REMARK  status: ('A' for Active; 'I' for Inactive)
REMARK    1  A    between atoms: C_2  and  C_11
REMARK    2  A    between atoms: N_3  and  C_4
REMARK    3  A    between atoms: C_4  and  C_5
REMARK    4  A    between atoms: C_15  and  C_16
REMARK    5  A    between atoms: N_18  and  C_19
REMARK    6  A    between atoms: C_19  and  C_20
REMARK                            x       y       z     vdW  Elec       q    Type
REMARK                         _______ _______ _______ _____ _____    ______ ____
ROOT
ATOM      1  C   UNL     1       3.548   4.097  18.971  0.00  0.00    +0.000 A 
ATOM      2  N   UNL     1       2.984   3.050  19.704  0.00  0.00    +0.000 NA
ATOM      3  C   UNL     1       3.989   2.290  20.061  0.00  0.00    +0.000 A 
ATOM      4  N   UNL     1       5.166   2.750  19.552  0.00  0.00    +0.000 N 
ATOM      5  C   UNL     1       4.921   3.907  18.842  0.00  0.00    +0.000 A 
ATOM      6  H   UNL     1       6.074   2.335  19.704  0.00  0.00    +0.000 HD
ENDROOT
BRANCH   1   8
ATOM      7  O   UNL     1       1.647   4.972  17.823  0.00  0.00    +0.000 OA
ATOM      8  C   UNL     1       2.708   5.160  18.403  0.00  0.00    +0.000 C 
ATOM      9  N   UNL     1       3.237   6.417  18.607  0.00  0.00    +0.000 N 
ATOM     10  H   UNL     1       4.184   6.459  18.971  0.00  0.00    +0.000 HD
BRANCH   9  11
ATOM     11  C   UNL     1       2.601   7.598  18.083  0.00  0.00    +0.000 C 
BRANCH  11  12
ATOM     12  C   UNL     1       1.821   8.350  19.132  0.00  0.00    +0.000 A 
ATOM     13  C   UNL     1       1.117   9.516  18.802  0.00  0.00    +0.000 A 
ATOM     14  C   UNL     1       0.322  10.158  19.755  0.00  0.00    +0.000 A 
ATOM     15  C   UNL     1       0.223   9.643  21.047  0.00  0.00    +0.000 A 
ATOM     16  C   UNL     1       0.931   8.494  21.391  0.00  0.00    +0.000 A 
ATOM     17  C   UNL     1       1.727   7.851  20.441  0.00  0.00    +0.000 A 
ENDBRANCH  11  12
ENDBRANCH   9  11
ENDBRANCH   1   8
BRANCH   5  18
ATOM     18  C   UNL     1       5.929   4.695  18.172  0.00  0.00    +0.000 C 
ATOM     19  O   UNL     1       6.517   5.638  18.677  0.00  0.00    +0.000 OA
ATOM     20  N   UNL     1       6.204   4.284  16.879  0.00  0.00    +0.000 N 
ATOM     21  H   UNL     1       5.583   3.646  16.408  0.00  0.00    +0.000 HD
BRANCH  20  22
ATOM     22  C   UNL     1       7.164   4.990  16.049  0.00  0.00    +0.000 C 
BRANCH  22  23
ATOM     23  C   UNL     1       6.964   4.657  14.591  0.00  0.00    +0.000 A 
ATOM     24  C   UNL     1       5.941   3.781  14.197  0.00  0.00    +0.000 A 
ATOM     25  C   UNL     1       5.775   3.440  12.853  0.00  0.00    +0.000 A 
ATOM     26  C   UNL     1       6.622   3.980  11.887  0.00  0.00    +0.000 A 
ATOM     27  C   UNL     1       7.621   4.876  12.261  0.00  0.00    +0.000 A 
ATOM     28  C   UNL     1       7.789   5.218  13.605  0.00  0.00    +0.000 A 
ENDBRANCH  22  23
ENDBRANCH  20  22
ENDBRANCH   5  18
TORSDOF 6
ENDMDL
MODEL 7
REMARK VINA RESULT:      -7.9      3.428      5.224
REMARK  Name = 
REMARK  6 active torsions:
REMARK  status: ('A' for Active; 'I' for Inactive)
REMARK    1  A    between atoms: C_2  and  C_11
REMARK    2  A    between atoms: N_3  and  C_4
REMARK    3  A    between atoms: C_4  and  C_5
REMARK    4  A    between atoms: C_15  and  C_16
REMARK    5  A    between atoms: N_18  and  C_19
REMARK    6  A    between atoms: C_19  and  C_20
REMARK                            x       y       z     vdW  Elec       q    Type
REMARK                         _______ _______ _______ _____ _____    ______ ____
ROOT
ATOM      1  C   UNL     1       5.572   6.199  16.452  0.00  0.00    +0.000 A 
ATOM      2  N   UNL     1       5.405   5.581  15.211  0.00  0.00    +0.000 NA
ATOM      3  C   UNL     1       6.611   5.266  14.809  0.00  0.00    +0.000 A 
ATOM      4  N   UNL     1       7.556   5.696  15.691  0.00  0.00    +0.000 N 
ATOM      5  C   UNL     1       6.926   6.304  16.757  0.00  0.00    +0.000 A 
ATOM      6  H   UNL     1       8.552   5.556  15.599  0.00  0.00    +0.000 HD
ENDROOT
BRANCH   1   8
ATOM      7  O   UNL     1       4.104   7.870  17.316  0.00  0.00    +0.000 OA
ATOM      8  C   UNL     1       4.416   6.691  17.213  0.00  0.00    +0.000 C 
ATOM      9  N   UNL     1       3.695   5.671  17.797  0.00  0.00    +0.000 N 
ATOM     10  H   UNL     1       4.112   4.746  17.772  0.00  0.00    +0.000 HD
BRANCH   9  11
ATOM     11  C   UNL     1       2.554   5.938  18.635  0.00  0.00    +0.000 C 
BRANCH  11  12
ATOM     12  C   UNL     1       2.155   4.744  19.466  0.00  0.00    +0.000 A 
ATOM     13  C   UNL     1       2.493   4.672  20.825  0.00  0.00    +0.000 A 
ATOM     14  C   UNL     1       2.043   3.609  21.612  0.00  0.00    +0.000 A 
ATOM     15  C   UNL     1       1.253   2.607  21.051  0.00  0.00    +0.000 A 
ATOM     16  C   UNL     1       0.924   2.659  19.699  0.00  0.00    +0.000 A 
ATOM     17  C   UNL     1       1.373   3.720  18.909  0.00  0.00    +0.000 A 
ENDBRANCH  11  12
ENDBRANCH   9  11
ENDBRANCH   1   8
BRANCH   5  18
ATOM     18  C   UNL     1       7.600   6.870  17.903  0.00  0.00    +0.000 C 
ATOM     19  O   UNL     1       7.827   6.265  18.939  0.00  0.00    +0.000 OA
ATOM     20  N   UNL     1       8.000   8.184  17.735  0.00  0.00    +0.000 N 
ATOM     21  H   UNL     1       7.637   8.729  16.969  0.00  0.00    +0.000 HD
BRANCH  20  22
ATOM     22  C   UNL     1       8.657   8.918  18.802  0.00  0.00    +0.000 C 
BRANCH  22  23
ATOM     23  C   UNL     1       8.973  10.329  18.371  0.00  0.00    +0.000 A 
ATOM     24  C   UNL     1       7.981  11.131  17.785  0.00  0.00    +0.000 A 
ATOM     25  C   UNL     1       8.278  12.424  17.350  0.00  0.00    +0.000 A 
ATOM     26  C   UNL     1       9.565  12.935  17.508  0.00  0.00    +0.000 A 
ATOM     27  C   UNL     1      10.550  12.161  18.118  0.00  0.00    +0.000 A 
ATOM     28  C   UNL     1      10.255  10.866  18.553  0.00  0.00    +0.000 A 
ENDBRANCH  22  23
ENDBRANCH  20  22
ENDBRANCH   5  18
TORSDOF 6
ENDMDL
MODEL 8
REMARK VINA RESULT:      -7.9      3.443      7.030
REMARK  Name = 
REMARK  6 active torsions:
REMARK  status: ('A' for Active; 'I' for Inactive)
REMARK    1  A    between atoms: C_2  and  C_11
REMARK    2  A    between atoms: N_3  and  C_4
REMARK    3  A    between atoms: C_4  and  C_5
REMARK    4  A    between atoms: C_15  and  C_16
REMARK    5  A    between atoms: N_18  and  C_19
REMARK    6  A    between atoms: C_19  and  C_20
REMARK                            x       y       z     vdW  Elec       q    Type
REMARK                         _______ _______ _______ _____ _____    ______ ____
ROOT
ATOM      1  C   UNL     1       6.912   6.384  16.778  0.00  0.00    +0.000 A 
ATOM      2  N   UNL     1       7.583   5.816  15.692  0.00  0.00    +0.000 NA
ATOM      3  C   UNL     1       6.647   5.443  14.856  0.00  0.00    +0.000 A 
ATOM      4  N   UNL     1       5.405   5.682  15.361  0.00  0.00    +0.000 N 
ATOM      5  C   UNL     1       5.535   6.281  16.597  0.00  0.00    +0.000 A 
ATOM      6  H   UNL     1       4.532   5.490  14.891  0.00  0.00    +0.000 HD
ENDROOT
BRANCH   1   8
ATOM      7  O   UNL     1       7.955   6.275  18.922  0.00  0.00    +0.000 OA
ATOM      8  C   UNL     1       7.652   6.921  17.928  0.00  0.00    +0.000 C 
ATOM      9  N   UNL     1       7.993   8.247  17.763  0.00  0.00    +0.000 N 
ATOM     10  H   UNL     1       7.576   8.729  16.973  0.00  0.00    +0.000 HD
BRANCH   9  11
ATOM     11  C   UNL     1       8.673   8.985  18.796  0.00  0.00    +0.000 C 
BRANCH  11  12
ATOM     12  C   UNL     1       8.999  10.398  18.378  0.00  0.00    +0.000 A 
ATOM     13  C   UNL     1      10.312  10.884  18.461  0.00  0.00    +0.000 A 
ATOM     14  C   UNL     1      10.627  12.160  17.988  0.00  0.00    +0.000 A 
ATOM     15  C   UNL     1       9.635  12.964  17.428  0.00  0.00    +0.000 A 
ATOM     16  C   UNL     1       8.325  12.498  17.353  0.00  0.00    +0.000 A 
ATOM     17  C   UNL     1       8.007  11.223  17.826  0.00  0.00    +0.000 A 
ENDBRANCH  11  12
ENDBRANCH   9  11
ENDBRANCH   1   8
BRANCH   5  18
ATOM     18  C   UNL     1       4.434   6.701  17.433  0.00  0.00    +0.000 C 
ATOM     19  O   UNL     1       3.778   7.715  17.252  0.00  0.00    +0.000 OA
ATOM     20  N   UNL     1       4.154   5.839  18.479  0.00  0.00    +0.000 N 
ATOM     21  H   UNL     1       4.817   5.125  18.736  0.00  0.00    +0.000 HD
BRANCH  20  22
ATOM     22  C   UNL     1       3.104   6.129  19.439  0.00  0.00    +0.000 C 
BRANCH  22  23
ATOM     23  C   UNL     1       2.353   4.876  19.812  0.00  0.00    +0.000 A 
ATOM     24  C   UNL     1       2.331   4.432  21.144  0.00  0.00    +0.000 A 
ATOM     25  C   UNL     1       1.669   3.252  21.489  0.00  0.00    +0.000 A 
ATOM     26  C   UNL     1       1.012   2.509  20.510  0.00  0.00    +0.000 A 
ATOM     27  C   UNL     1       0.998   2.955  19.191  0.00  0.00    +0.000 A 
ATOM     28  C   UNL     1       1.661   4.135  18.843  0.00  0.00    +0.000 A 
ENDBRANCH  22  23
ENDBRANCH  20  22
ENDBRANCH   5  18
TORSDOF 6
ENDMDL
MODEL 9
REMARK VINA RESULT:      -7.8      1.626      5.063
REMARK  Name = 
REMARK  6 active torsions:
REMARK  status: ('A' for Active; 'I' for Inactive)
REMARK    1  A    between atoms: C_2  and  C_11
REMARK    2  A    between atoms: N_3  and  C_4
REMARK    3  A    between atoms: C_4  and  C_5
REMARK    4  A    between atoms: C_15  and  C_16
REMARK    5  A    between atoms: N_18  and  C_19
REMARK    6  A    between atoms: C_19  and  C_20
REMARK                            x       y       z     vdW  Elec       q    Type
REMARK                         _______ _______ _______ _____ _____    ______ ____
ROOT
ATOM      1  C   UNL     1       5.858   5.682  16.227  0.00  0.00    +0.000 A 
ATOM      2  N   UNL     1       6.307   5.558  14.909  0.00  0.00    +0.000 NA
ATOM      3  C   UNL     1       6.673   4.307  14.779  0.00  0.00    +0.000 A 
ATOM      4  N   UNL     1       6.545   3.627  15.952  0.00  0.00    +0.000 N 
ATOM      5  C   UNL     1       6.029   4.479  16.906  0.00  0.00    +0.000 A 
ATOM      6  H   UNL     1       6.755   2.649  16.090  0.00  0.00    +0.000 HD
ENDROOT
BRANCH   1   8
ATOM      7  O   UNL     1       6.070   7.926  17.012  0.00  0.00    +0.000 OA
ATOM      8  C   UNL     1       5.362   6.966  16.738  0.00  0.00    +0.000 C 
ATOM      9  N   UNL     1       3.988   6.989  16.865  0.00  0.00    +0.000 N 
ATOM     10  H   UNL     1       3.506   6.103  16.748  0.00  0.00    +0.000 HD
BRANCH   9  11
ATOM     11  C   UNL     1       3.299   8.133  17.402  0.00  0.00    +0.000 C 
BRANCH  11  12
ATOM     12  C   UNL     1       2.527   7.806  18.657  0.00  0.00    +0.000 A 
ATOM     13  C   UNL     1       2.638   6.545  19.258  0.00  0.00    +0.000 A 
ATOM     14  C   UNL     1       1.994   6.276  20.468  0.00  0.00    +0.000 A 
ATOM     15  C   UNL     1       1.231   7.265  21.090  0.00  0.00    +0.000 A 
ATOM     16  C   UNL     1       1.100   8.517  20.495  0.00  0.00    +0.000 A 
ATOM     17  C   UNL     1       1.743   8.787  19.284  0.00  0.00    +0.000 A 
ENDBRANCH  11  12
ENDBRANCH   9  11
ENDBRANCH   1   8
BRANCH   5  18
ATOM     18  C   UNL     1       5.735   4.111  18.272  0.00  0.00    +0.000 C 
ATOM     19  O   UNL     1       6.114   4.733  19.252  0.00  0.00    +0.000 OA
ATOM     20  N   UNL     1       4.955   2.974  18.398  0.00  0.00    +0.000 N 
ATOM     21  H   UNL     1       4.819   2.364  17.608  0.00  0.00    +0.000 HD
BRANCH  20  22
ATOM     22  C   UNL     1       4.599   2.441  19.701  0.00  0.00    +0.000 C 
BRANCH  22  23
ATOM     23  C   UNL     1       3.133   2.652  19.988  0.00  0.00    +0.000 A 
ATOM     24  C   UNL     1       2.668   2.694  21.312  0.00  0.00    +0.000 A 
ATOM     25  C   UNL     1       1.307   2.852  21.583  0.00  0.00    +0.000 A 
ATOM     26  C   UNL     1       0.398   2.981  20.535  0.00  0.00    +0.000 A 
ATOM     27  C   UNL     1       0.850   2.974  19.217  0.00  0.00    +0.000 A 
ATOM     28  C   UNL     1       2.211   2.816  18.944  0.00  0.00    +0.000 A 
ENDBRANCH  22  23
ENDBRANCH  20  22
ENDBRANCH   5  18
TORSDOF 6
ENDMDL
