MODEL 1
REMARK VINA RESULT:      -7.1      0.000      0.000
REMARK  Name = 
REMARK  6 active torsions:
REMARK  status: ('A' for Active; 'I' for Inactive)
REMARK    1  A    between atoms: C_1  and  C_2
REMARK    2  A    between atoms: C_7  and  C_8
REMARK    3  A    between atoms: C_8  and  N_9
REMARK    4  A    between atoms: N_12  and  C_13
REMARK    5  A    between atoms: C_13  and  C_14
REMARK    6  A    between atoms: C_19  and  C_20
REMARK                            x       y       z     vdW  Elec       q    Type
REMARK                         _______ _______ _______ _____ _____    ______ ____
ROOT
ATOM      1  N   UNL     1      -0.151   9.998  19.553  0.00  0.00    +0.000 NA
ATOM      2  C   UNL     1       0.450   9.909  18.215  0.00  0.00    +0.000 C 
ATOM      3  C   UNL     1       1.946   9.483  18.114  0.00  0.00    +0.000 C 
ATOM      4  N   UNL     1       2.389   8.294  18.897  0.00  0.00    +0.000 NA
ATOM      5  C   UNL     1       1.788   8.380  20.240  0.00  0.00    +0.000 C 
ATOM      6  C   UNL     1       0.297   8.832  20.354  0.00  0.00    +0.000 C 
ENDROOT
BRANCH   1   7
ATOM      7  C   UNL     1       0.008  11.289  20.270  0.00  0.00    +0.000 C 
BRANCH   7  14
ATOM      8  C   UNL     1      -0.838  10.706  23.153  0.00  0.00    +0.000 C 
ATOM      9  C   UNL     1      -1.612  11.636  22.270  0.00  0.00    +0.000 A 
ATOM     10  C   UNL     1      -2.760  12.245  22.832  0.00  0.00    +0.000 A 
ATOM     11  C   UNL     1      -3.595  13.054  22.073  0.00  0.00    +0.000 A 
ATOM     12  C   UNL     1      -3.284  13.278  20.742  0.00  0.00    +0.000 A 
ATOM     13  C   UNL     1      -2.115  12.730  20.174  0.00  0.00    +0.000 A 
ATOM     14  C   UNL     1      -1.228  11.938  20.928  0.00  0.00    +0.000 A 
ENDBRANCH   7  14
ENDBRANCH   1   7
BRANCH   4  15
ATOM     15  C   UNL     1       2.118   7.048  18.150  0.00  0.00    +0.000 C 
BRANCH  15  16
ATOM     16  C   UNL     1       3.291   6.149  17.700  0.00  0.00    +0.000 A 
ATOM     17  C   UNL     1       4.489   6.693  17.197  0.00  0.00    +0.000 A 
ATOM     18  C   UNL     1       5.538   5.865  16.754  0.00  0.00    +0.000 A 
ATOM     19  C   UNL     1       5.422   4.481  16.811  0.00  0.00    +0.000 A 
ATOM     20  C   UNL     1       4.225   3.918  17.234  0.00  0.00    +0.000 A 
ATOM     21  C   UNL     1       3.134   4.735  17.620  0.00  0.00    +0.000 A 
BRANCH  21  22
ATOM     22  C   UNL     1       1.828   4.014  17.893  0.00  0.00    +0.000 C 
ATOM     23  F   UNL     1       1.862   2.676  17.638  0.00  0.00    +0.000 F 
ATOM     24  F   UNL     1       1.445   4.109  19.199  0.00  0.00    +0.000 F 
ATOM     25  F   UNL     1       0.797   4.517  17.165  0.00  0.00    +0.000 F 
ENDBRANCH  21  22
ENDBRANCH  15  16
ENDBRANCH   4  15
TORSDOF 5
ENDMDL
MODEL 2
REMARK VINA RESULT:      -7.1      2.875      8.697
REMARK  Name = 
REMARK  6 active torsions:
REMARK  status: ('A' for Active; 'I' for Inactive)
REMARK    1  A    between atoms: C_1  and  C_2
REMARK    2  A    between atoms: C_7  and  C_8
REMARK    3  A    between atoms: C_8  and  N_9
REMARK    4  A    between atoms: N_12  and  C_13
REMARK    5  A    between atoms: C_13  and  C_14
REMARK    6  A    between atoms: C_19  and  C_20
REMARK                            x       y       z     vdW  Elec       q    Type
REMARK                         _______ _______ _______ _____ _____    ______ ____
ROOT
ATOM      1  N   UNL     1       2.581   4.568  18.514  0.00  0.00    +0.000 NA
ATOM      2  C   UNL     1       1.693   4.524  19.684  0.00  0.00    +0.000 C 
ATOM      3  C   UNL     1       1.888   5.605  20.789  0.00  0.00    +0.000 C 
ATOM      4  N   UNL     1       2.012   7.028  20.361  0.00  0.00    +0.000 NA
ATOM      5  C   UNL     1       2.902   7.077  19.187  0.00  0.00    +0.000 C 
ATOM      6  C   UNL     1       2.733   5.981  18.086  0.00  0.00    +0.000 C 
ENDROOT
BRANCH   1   7
ATOM      7  C   UNL     1       3.879   3.856  18.635  0.00  0.00    +0.000 C 
BRANCH   7  14
ATOM      8  C   UNL     1       6.466   5.359  19.281  0.00  0.00    +0.000 C 
ATOM      9  C   UNL     1       6.170   4.840  17.908  0.00  0.00    +0.000 A 
ATOM     10  C   UNL     1       7.149   5.070  16.911  0.00  0.00    +0.000 A 
ATOM     11  C   UNL     1       6.935   4.707  15.588  0.00  0.00    +0.000 A 
ATOM     12  C   UNL     1       5.742   4.093  15.246  0.00  0.00    +0.000 A 
ATOM     13  C   UNL     1       4.775   3.801  16.229  0.00  0.00    +0.000 A 
ATOM     14  C   UNL     1       4.979   4.120  17.585  0.00  0.00    +0.000 A 
ENDBRANCH   7  14
ENDBRANCH   1   7
BRANCH   4  15
ATOM     15  C   UNL     1       0.677   7.637  20.182  0.00  0.00    +0.000 C 
BRANCH  15  16
ATOM     16  C   UNL     1       0.286   8.889  20.997  0.00  0.00    +0.000 A 
ATOM     17  C   UNL     1      -0.209   8.791  22.312  0.00  0.00    +0.000 A 
ATOM     18  C   UNL     1      -0.599   9.935  23.033  0.00  0.00    +0.000 A 
ATOM     19  C   UNL     1      -0.494  11.201  22.466  0.00  0.00    +0.000 A 
ATOM     20  C   UNL     1      -0.078  11.320  21.147  0.00  0.00    +0.000 A 
ATOM     21  C   UNL     1       0.255  10.175  20.383  0.00  0.00    +0.000 A 
BRANCH  21  22
ATOM     22  C   UNL     1       0.524  10.414  18.910  0.00  0.00    +0.000 C 
ATOM     23  F   UNL     1      -0.313   9.745  18.070  0.00  0.00    +0.000 F 
ATOM     24  F   UNL     1       0.387  11.727  18.564  0.00  0.00    +0.000 F 
ATOM     25  F   UNL     1       1.787  10.066  18.551  0.00  0.00    +0.000 F 
ENDBRANCH  21  22
ENDBRANCH  15  16
ENDBRANCH   4  15
TORSDOF 5
ENDMDL
MODEL 3
REMARK VINA RESULT:      -7.0      1.295      1.997
REMARK  Name = 
REMARK  6 active torsions:
REMARK  status: ('A' for Active; 'I' for Inactive)
REMARK    1  A    between atoms: C_1  and  C_2
REMARK    2  A    between atoms: C_7  and  C_8
REMARK    3  A    between atoms: C_8  and  N_9
REMARK    4  A    between atoms: N_12  and  C_13
REMARK    5  A    between atoms: C_13  and  C_14
REMARK    6  A    between atoms: C_19  and  C_20
REMARK                            x       y       z     vdW  Elec       q    Type
REMARK                         _______ _______ _______ _____ _____    ______ ____
ROOT
ATOM      1  N   UNL     1       1.268   9.377  20.037  0.00  0.00    +0.000 NA
ATOM      2  C   UNL     1       1.740   8.113  20.620  0.00  0.00    +0.000 C 
ATOM      3  C   UNL     1       1.735   6.845  19.714  0.00  0.00    +0.000 C 
ATOM      4  N   UNL     1       2.310   6.963  18.344  0.00  0.00    +0.000 NA
ATOM      5  C   UNL     1       1.839   8.229  17.756  0.00  0.00    +0.000 C 
ATOM      6  C   UNL     1       1.814   9.501  18.664  0.00  0.00    +0.000 C 
ENDROOT
BRANCH   1   7
ATOM      7  C   UNL     1      -0.193   9.636  20.105  0.00  0.00    +0.000 C 
BRANCH   7  14
ATOM      8  C   UNL     1      -0.413   9.754  23.156  0.00  0.00    +0.000 C 
ATOM      9  C   UNL     1      -0.809  10.907  22.286  0.00  0.00    +0.000 A 
ATOM     10  C   UNL     1      -1.288  12.068  22.940  0.00  0.00    +0.000 A 
ATOM     11  C   UNL     1      -1.762  13.158  22.223  0.00  0.00    +0.000 A 
ATOM     12  C   UNL     1      -1.748  13.109  20.839  0.00  0.00    +0.000 A 
ATOM     13  C   UNL     1      -1.223  11.988  20.164  0.00  0.00    +0.000 A 
ATOM     14  C   UNL     1      -0.699  10.884  20.862  0.00  0.00    +0.000 A 
ENDBRANCH   7  14
ENDBRANCH   1   7
BRANCH   4  15
ATOM     15  C   UNL     1       3.777   6.776  18.377  0.00  0.00    +0.000 C 
BRANCH  15  16
ATOM     16  C   UNL     1       4.467   5.913  17.298  0.00  0.00    +0.000 A 
ATOM     17  C   UNL     1       5.004   6.483  16.126  0.00  0.00    +0.000 A 
ATOM     18  C   UNL     1       5.597   5.684  15.131  0.00  0.00    +0.000 A 
ATOM     19  C   UNL     1       5.678   4.304  15.283  0.00  0.00    +0.000 A 
ATOM     20  C   UNL     1       5.093   3.710  16.393  0.00  0.00    +0.000 A 
ATOM     21  C   UNL     1       4.432   4.490  17.373  0.00  0.00    +0.000 A 
BRANCH  21  22
ATOM     22  C   UNL     1       3.682   3.719  18.442  0.00  0.00    +0.000 C 
ATOM     23  F   UNL     1       2.328   3.839  18.374  0.00  0.00    +0.000 F 
ATOM     24  F   UNL     1       3.917   2.377  18.374  0.00  0.00    +0.000 F 
ATOM     25  F   UNL     1       4.038   4.096  19.697  0.00  0.00    +0.000 F 
ENDBRANCH  21  22
ENDBRANCH  15  16
ENDBRANCH   4  15
TORSDOF 5
ENDMDL
MODEL 4
REMARK VINA RESULT:      -6.8      2.722      4.190
REMARK  Name = 
REMARK  6 active torsions:
REMARK  status: ('A' for Active; 'I' for Inactive)
REMARK    1  A    between atoms: C_1  and  C_2
REMARK    2  A    between atoms: C_7  and  C_8
REMARK    3  A    between atoms: C_8  and  N_9
REMARK    4  A    between atoms: N_12  and  C_13
REMARK    5  A    between atoms: C_13  and  C_14
REMARK    6  A    between atoms: C_19  and  C_20
REMARK                            x       y       z     vdW  Elec       q    Type
REMARK                         _______ _______ _______ _____ _____    ______ ____
ROOT
ATOM      1  N   UNL     1       1.737   7.082  20.643  0.00  0.00    +0.000 NA
ATOM      2  C   UNL     1       2.041   5.658  20.848  0.00  0.00    +0.000 C 
ATOM      3  C   UNL     1       2.067   4.730  19.596  0.00  0.00    +0.000 C 
ATOM      4  N   UNL     1       2.823   5.194  18.398  0.00  0.00    +0.000 NA
ATOM      5  C   UNL     1       2.521   6.621  18.189  0.00  0.00    +0.000 C 
ATOM      6  C   UNL     1       2.466   7.555  19.441  0.00  0.00    +0.000 C 
ENDROOT
BRANCH   1   7
ATOM      7  C   UNL     1       0.301   7.462  20.638  0.00  0.00    +0.000 C 
BRANCH   7  14
ATOM      8  C   UNL     1       0.001  10.031  19.001  0.00  0.00    +0.000 C 
ATOM      9  C   UNL     1      -0.235   9.998  20.479  0.00  0.00    +0.000 A 
ATOM     10  C   UNL     1      -0.613  11.216  21.095  0.00  0.00    +0.000 A 
ATOM     11  C   UNL     1      -0.771  11.313  22.471  0.00  0.00    +0.000 A 
ATOM     12  C   UNL     1      -0.569  10.187  23.251  0.00  0.00    +0.000 A 
ATOM     13  C   UNL     1      -0.248   8.949  22.658  0.00  0.00    +0.000 A 
ATOM     14  C   UNL     1      -0.120   8.809  21.263  0.00  0.00    +0.000 A 
ENDBRANCH   7  14
ENDBRANCH   1   7
BRANCH   4  15
ATOM     15  C   UNL     1       4.256   4.851  18.521  0.00  0.00    +0.000 C 
BRANCH  15  16
ATOM     16  C   UNL     1       5.149   4.810  17.262  0.00  0.00    +0.000 A 
ATOM     17  C   UNL     1       4.717   4.198  16.069  0.00  0.00    +0.000 A 
ATOM     18  C   UNL     1       5.552   4.131  14.938  0.00  0.00    +0.000 A 
ATOM     19  C   UNL     1       6.830   4.679  14.965  0.00  0.00    +0.000 A 
ATOM     20  C   UNL     1       7.307   5.223  16.150  0.00  0.00    +0.000 A 
ATOM     21  C   UNL     1       6.507   5.240  17.318  0.00  0.00    +0.000 A 
BRANCH  21  22
ATOM     22  C   UNL     1       7.195   5.696  18.590  0.00  0.00    +0.000 C 
ATOM     23  F   UNL     1       7.652   6.978  18.551  0.00  0.00    +0.000 F 
ATOM     24  F   UNL     1       6.366   5.655  19.672  0.00  0.00    +0.000 F 
ATOM     25  F   UNL     1       8.262   4.918  18.909  0.00  0.00    +0.000 F 
ENDBRANCH  21  22
ENDBRANCH  15  16
ENDBRANCH   4  15
TORSDOF 5
ENDMDL
MODEL 5
REMARK VINA RESULT:      -6.8      1.853      2.611
REMARK  Name = 
REMARK  6 active torsions:
REMARK  status: ('A' for Active; 'I' for Inactive)
REMARK    1  A    between atoms: C_1  and  C_2
REMARK    2  A    between atoms: C_7  and  C_8
REMARK    3  A    between atoms: C_8  and  N_9
REMARK    4  A    between atoms: N_12  and  C_13
REMARK    5  A    between atoms: C_13  and  C_14
REMARK    6  A    between atoms: C_19  and  C_20
REMARK                            x       y       z     vdW  Elec       q    Type
REMARK                         _______ _______ _______ _____ _____    ______ ____
ROOT
ATOM      1  N   UNL     1       0.632   9.340  19.737  0.00  0.00    +0.000 NA
ATOM      2  C   UNL     1       1.169   9.396  18.370  0.00  0.00    +0.000 C 
ATOM      3  C   UNL     1       2.542   8.711  18.096  0.00  0.00    +0.000 C 
ATOM      4  N   UNL     1       2.751   7.330  18.616  0.00  0.00    +0.000 NA
ATOM      5  C   UNL     1       2.214   7.269  19.987  0.00  0.00    +0.000 C 
ATOM      6  C   UNL     1       0.850   7.976  20.278  0.00  0.00    +0.000 C 
ENDROOT
BRANCH   1   7
ATOM      7  C   UNL     1       1.072  10.409  20.669  0.00  0.00    +0.000 C 
BRANCH   7  14
ATOM      8  C   UNL     1      -0.258   9.561  23.293  0.00  0.00    +0.000 C 
ATOM      9  C   UNL     1      -0.614  10.839  22.598  0.00  0.00    +0.000 A 
ATOM     10  C   UNL     1      -1.597  11.650  23.214  0.00  0.00    +0.000 A 
ATOM     11  C   UNL     1      -2.061  12.811  22.610  0.00  0.00    +0.000 A 
ATOM     12  C   UNL     1      -1.536  13.185  21.384  0.00  0.00    +0.000 A 
ATOM     13  C   UNL     1      -0.515  12.426  20.776  0.00  0.00    +0.000 A 
ATOM     14  C   UNL     1       0.004  11.266  21.383  0.00  0.00    +0.000 A 
ENDBRANCH   7  14
ENDBRANCH   1   7
BRANCH   4  15
ATOM     15  C   UNL     1       2.210   6.331  17.669  0.00  0.00    +0.000 C 
BRANCH  15  16
ATOM     16  C   UNL     1       2.431   4.824  17.931  0.00  0.00    +0.000 A 
ATOM     17  C   UNL     1       1.465   4.038  18.589  0.00  0.00    +0.000 A 
ATOM     18  C   UNL     1       1.691   2.675  18.856  0.00  0.00    +0.000 A 
ATOM     19  C   UNL     1       2.877   2.062  18.467  0.00  0.00    +0.000 A 
ATOM     20  C   UNL     1       3.876   2.831  17.883  0.00  0.00    +0.000 A 
ATOM     21  C   UNL     1       3.693   4.218  17.665  0.00  0.00    +0.000 A 
BRANCH  21  22
ATOM     22  C   UNL     1       4.912   4.981  17.185  0.00  0.00    +0.000 C 
ATOM     23  F   UNL     1       5.937   4.192  16.760  0.00  0.00    +0.000 F 
ATOM     24  F   UNL     1       4.632   5.790  16.123  0.00  0.00    +0.000 F 
ATOM     25  F   UNL     1       5.426   5.793  18.145  0.00  0.00    +0.000 F 
ENDBRANCH  21  22
ENDBRANCH  15  16
ENDBRANCH   4  15
TORSDOF 5
ENDMDL
MODEL 6
REMARK VINA RESULT:      -6.8      0.497      1.573
REMARK  Name = 
REMARK  6 active torsions:
REMARK  status: ('A' for Active; 'I' for Inactive)
REMARK    1  A    between atoms: C_1  and  C_2
REMARK    2  A    between atoms: C_7  and  C_8
REMARK    3  A    between atoms: C_8  and  N_9
REMARK    4  A    between atoms: N_12  and  C_13
REMARK    5  A    between atoms: C_13  and  C_14
REMARK    6  A    between atoms: C_19  and  C_20
REMARK                            x       y       z     vdW  Elec       q    Type
REMARK                         _______ _______ _______ _____ _____    ______ ____
ROOT
ATOM      1  N   UNL     1      -0.176   9.794  20.112  0.00  0.00    +0.000 NA
ATOM      2  C   UNL     1       0.364   9.928  18.752  0.00  0.00    +0.000 C 
ATOM      3  C   UNL     1       1.863   9.568  18.522  0.00  0.00    +0.000 C 
ATOM      4  N   UNL     1       2.370   8.289  19.095  0.00  0.00    +0.000 NA
ATOM      5  C   UNL     1       1.831   8.151  20.460  0.00  0.00    +0.000 C 
ATOM      6  C   UNL     1       0.336   8.535  20.706  0.00  0.00    +0.000 C 
ENDROOT
BRANCH   1   7
ATOM      7  C   UNL     1      -0.013  10.966  21.010  0.00  0.00    +0.000 C 
BRANCH   7  14
ATOM      8  C   UNL     1      -1.657  13.027  19.454  0.00  0.00    +0.000 C 
ATOM      9  C   UNL     1      -2.011  12.618  20.850  0.00  0.00    +0.000 A 
ATOM     10  C   UNL     1      -3.154  13.226  21.425  0.00  0.00    +0.000 A 
ATOM     11  C   UNL     1      -3.518  12.982  22.742  0.00  0.00    +0.000 A 
ATOM     12  C   UNL     1      -2.752  12.112  23.500  0.00  0.00    +0.000 A 
ATOM     13  C   UNL     1      -1.643  11.450  22.935  0.00  0.00    +0.000 A 
ATOM     14  C   UNL     1      -1.272  11.646  21.591  0.00  0.00    +0.000 A 
ENDBRANCH   7  14
ENDBRANCH   1   7
BRANCH   4  15
ATOM     15  C   UNL     1       2.094   7.162  18.178  0.00  0.00    +0.000 C 
BRANCH  15  16
ATOM     16  C   UNL     1       3.253   6.269  17.685  0.00  0.00    +0.000 A 
ATOM     17  C   UNL     1       4.431   6.818  17.142  0.00  0.00    +0.000 A 
ATOM     18  C   UNL     1       5.466   5.995  16.660  0.00  0.00    +0.000 A 
ATOM     19  C   UNL     1       5.356   4.610  16.716  0.00  0.00    +0.000 A 
ATOM     20  C   UNL     1       4.177   4.042  17.178  0.00  0.00    +0.000 A 
ATOM     21  C   UNL     1       3.097   4.854  17.606  0.00  0.00    +0.000 A 
BRANCH  21  22
ATOM     22  C   UNL     1       1.804   4.128  17.921  0.00  0.00    +0.000 C 
ATOM     23  F   UNL     1       0.729   4.561  17.207  0.00  0.00    +0.000 F 
ATOM     24  F   UNL     1       1.882   2.792  17.657  0.00  0.00    +0.000 F 
ATOM     25  F   UNL     1       1.460   4.228  19.231  0.00  0.00    +0.000 F 
ENDBRANCH  21  22
ENDBRANCH  15  16
ENDBRANCH   4  15
TORSDOF 5
ENDMDL
MODEL 7
REMARK VINA RESULT:      -6.8      2.885      8.557
REMARK  Name = 
REMARK  6 active torsions:
REMARK  status: ('A' for Active; 'I' for Inactive)
REMARK    1  A    between atoms: C_1  and  C_2
REMARK    2  A    between atoms: C_7  and  C_8
REMARK    3  A    between atoms: C_8  and  N_9
REMARK    4  A    between atoms: N_12  and  C_13
REMARK    5  A    between atoms: C_13  and  C_14
REMARK    6  A    between atoms: C_19  and  C_20
REMARK                            x       y       z     vdW  Elec       q    Type
REMARK                         _______ _______ _______ _____ _____    ______ ____
ROOT
ATOM      1  N   UNL     1       2.493   4.469  18.491  0.00  0.00    +0.000 NA
ATOM      2  C   UNL     1       1.683   4.480  19.717  0.00  0.00    +0.000 C 
ATOM      3  C   UNL     1       1.943   5.613  20.754  0.00  0.00    +0.000 C 
ATOM      4  N   UNL     1       2.035   7.014  20.252  0.00  0.00    +0.000 NA
ATOM      5  C   UNL     1       2.848   7.008  19.022  0.00  0.00    +0.000 C 
ATOM      6  C   UNL     1       2.612   5.860  17.987  0.00  0.00    +0.000 C 
ENDROOT
BRANCH   1   7
ATOM      7  C   UNL     1       3.798   3.765  18.562  0.00  0.00    +0.000 C 
BRANCH   7  14
ATOM      8  C   UNL     1       4.989   4.091  15.761  0.00  0.00    +0.000 C 
ATOM      9  C   UNL     1       5.639   4.681  16.974  0.00  0.00    +0.000 A 
ATOM     10  C   UNL     1       6.836   5.408  16.770  0.00  0.00    +0.000 A 
ATOM     11  C   UNL     1       7.563   5.921  17.836  0.00  0.00    +0.000 A 
ATOM     12  C   UNL     1       7.093   5.726  19.124  0.00  0.00    +0.000 A 
ATOM     13  C   UNL     1       5.875   5.055  19.351  0.00  0.00    +0.000 A 
ATOM     14  C   UNL     1       5.094   4.559  18.289  0.00  0.00    +0.000 A 
ENDBRANCH   7  14
ENDBRANCH   1   7
BRANCH   4  15
ATOM     15  C   UNL     1       0.689   7.613  20.129  0.00  0.00    +0.000 C 
BRANCH  15  16
ATOM     16  C   UNL     1       0.320   8.855  20.970  0.00  0.00    +0.000 A 
ATOM     17  C   UNL     1      -0.143   8.740  22.296  0.00  0.00    +0.000 A 
ATOM     18  C   UNL     1      -0.513   9.875  23.041  0.00  0.00    +0.000 A 
ATOM     19  C   UNL     1      -0.422  11.148  22.489  0.00  0.00    +0.000 A 
ATOM     20  C   UNL     1      -0.039  11.284  21.161  0.00  0.00    +0.000 A 
ATOM     21  C   UNL     1       0.273  10.148  20.374  0.00  0.00    +0.000 A 
BRANCH  21  22
ATOM     22  C   UNL     1       0.506  10.407  18.898  0.00  0.00    +0.000 C 
ATOM     23  F   UNL     1      -0.372   9.772  18.072  0.00  0.00    +0.000 F 
ATOM     24  F   UNL     1       0.391  11.728  18.578  0.00  0.00    +0.000 F 
ATOM     25  F   UNL     1       1.749  10.034  18.496  0.00  0.00    +0.000 F 
ENDBRANCH  21  22
ENDBRANCH  15  16
ENDBRANCH   4  15
TORSDOF 5
ENDMDL
MODEL 8
REMARK VINA RESULT:      -6.8      1.393      2.635
REMARK  Name = 
REMARK  6 active torsions:
REMARK  status: ('A' for Active; 'I' for Inactive)
REMARK    1  A    between atoms: C_1  and  C_2
REMARK    2  A    between atoms: C_7  and  C_8
REMARK    3  A    between atoms: C_8  and  N_9
REMARK    4  A    between atoms: N_12  and  C_13
REMARK    5  A    between atoms: C_13  and  C_14
REMARK    6  A    between atoms: C_19  and  C_20
REMARK                            x       y       z     vdW  Elec       q    Type
REMARK                         _______ _______ _______ _____ _____    ______ ____
ROOT
ATOM      1  N   UNL     1       1.560   9.074  19.635  0.00  0.00    +0.000 NA
ATOM      2  C   UNL     1       1.925   7.831  20.327  0.00  0.00    +0.000 C 
ATOM      3  C   UNL     1       1.862   6.500  19.518  0.00  0.00    +0.000 C 
ATOM      4  N   UNL     1       2.486   6.473  18.165  0.00  0.00    +0.000 NA
ATOM      5  C   UNL     1       2.122   7.719  17.467  0.00  0.00    +0.000 C 
ATOM      6  C   UNL     1       2.156   9.056  18.277  0.00  0.00    +0.000 C 
ENDROOT
BRANCH   1   7
ATOM      7  C   UNL     1       0.119   9.434  19.630  0.00  0.00    +0.000 C 
BRANCH   7  14
ATOM      8  C   UNL     1      -0.751  12.357  19.358  0.00  0.00    +0.000 C 
ATOM      9  C   UNL     1      -0.835  11.620  20.659  0.00  0.00    +0.000 A 
ATOM     10  C   UNL     1      -1.344  12.337  21.769  0.00  0.00    +0.000 A 
ATOM     11  C   UNL     1      -1.384  11.775  23.038  0.00  0.00    +0.000 A 
ATOM     12  C   UNL     1      -0.927  10.479  23.212  0.00  0.00    +0.000 A 
ATOM     13  C   UNL     1      -0.468   9.724  22.114  0.00  0.00    +0.000 A 
ATOM     14  C   UNL     1      -0.453  10.252  20.808  0.00  0.00    +0.000 A 
ENDBRANCH   7  14
ENDBRANCH   1   7
BRANCH   4  15
ATOM     15  C   UNL     1       3.934   6.193  18.265  0.00  0.00    +0.000 C 
BRANCH  15  16
ATOM     16  C   UNL     1       4.661   5.476  17.106  0.00  0.00    +0.000 A 
ATOM     17  C   UNL     1       5.291   6.195  16.071  0.00  0.00    +0.000 A 
ATOM     18  C   UNL     1       5.918   5.533  14.999  0.00  0.00    +0.000 A 
ATOM     19  C   UNL     1       5.942   4.144  14.937  0.00  0.00    +0.000 A 
ATOM     20  C   UNL     1       5.266   3.413  15.905  0.00  0.00    +0.000 A 
ATOM     21  C   UNL     1       4.572   4.062  16.956  0.00  0.00    +0.000 A 
BRANCH  21  22
ATOM     22  C   UNL     1       3.730   3.169  17.846  0.00  0.00    +0.000 C 
ATOM     23  F   UNL     1       3.924   3.364  19.180  0.00  0.00    +0.000 F 
ATOM     24  F   UNL     1       2.393   3.362  17.657  0.00  0.00    +0.000 F 
ATOM     25  F   UNL     1       3.952   1.849  17.615  0.00  0.00    +0.000 F 
ENDBRANCH  21  22
ENDBRANCH  15  16
ENDBRANCH   4  15
TORSDOF 5
ENDMDL
MODEL 9
REMARK VINA RESULT:      -6.7      3.001      8.590
REMARK  Name = 
REMARK  6 active torsions:
REMARK  status: ('A' for Active; 'I' for Inactive)
REMARK    1  A    between atoms: C_1  and  C_2
REMARK    2  A    between atoms: C_7  and  C_8
REMARK    3  A    between atoms: C_8  and  N_9
REMARK    4  A    between atoms: N_12  and  C_13
REMARK    5  A    between atoms: C_13  and  C_14
REMARK    6  A    between atoms: C_19  and  C_20
REMARK                            x       y       z     vdW  Elec       q    Type
REMARK                         _______ _______ _______ _____ _____    ______ ____
ROOT
ATOM      1  N   UNL     1       2.593   4.833  18.601  0.00  0.00    +0.000 NA
ATOM      2  C   UNL     1       1.772   5.104  19.789  0.00  0.00    +0.000 C 
ATOM      3  C   UNL     1       2.069   6.401  20.601  0.00  0.00    +0.000 C 
ATOM      4  N   UNL     1       2.224   7.678  19.848  0.00  0.00    +0.000 NA
ATOM      5  C   UNL     1       3.048   7.410  18.655  0.00  0.00    +0.000 C 
ATOM      6  C   UNL     1       2.775   6.099  17.849  0.00  0.00    +0.000 C 
ENDROOT
BRANCH   1   7
ATOM      7  C   UNL     1       3.867   4.104  18.825  0.00  0.00    +0.000 C 
BRANCH   7  14
ATOM      8  C   UNL     1       6.558   5.464  19.355  0.00  0.00    +0.000 C 
ATOM      9  C   UNL     1       6.223   4.855  18.028  0.00  0.00    +0.000 A 
ATOM     10  C   UNL     1       7.214   4.930  17.020  0.00  0.00    +0.000 A 
ATOM     11  C   UNL     1       6.972   4.474  15.731  0.00  0.00    +0.000 A 
ATOM     12  C   UNL     1       5.737   3.921  15.436  0.00  0.00    +0.000 A 
ATOM     13  C   UNL     1       4.753   3.783  16.436  0.00  0.00    +0.000 A 
ATOM     14  C   UNL     1       4.982   4.199  17.761  0.00  0.00    +0.000 A 
ENDBRANCH   7  14
ENDBRANCH   1   7
BRANCH   4  15
ATOM     15  C   UNL     1       0.905   8.295  19.593  0.00  0.00    +0.000 C 
BRANCH  15  16
ATOM     16  C   UNL     1       0.698   9.803  19.855  0.00  0.00    +0.000 A 
ATOM     17  C   UNL     1       1.069  10.777  18.908  0.00  0.00    +0.000 A 
ATOM     18  C   UNL     1       0.911  12.151  19.172  0.00  0.00    +0.000 A 
ATOM     19  C   UNL     1       0.372  12.585  20.378  0.00  0.00    +0.000 A 
ATOM     20  C   UNL     1       0.065  11.649  21.357  0.00  0.00    +0.000 A 
ATOM     21  C   UNL     1       0.279  10.267  21.137  0.00  0.00    +0.000 A 
BRANCH  21  22
ATOM     22  C   UNL     1       0.074   9.363  22.336  0.00  0.00    +0.000 C 
ATOM     23  F   UNL     1       1.214   8.783  22.803  0.00  0.00    +0.000 F 
ATOM     24  F   UNL     1      -0.440  10.032  23.408  0.00  0.00    +0.000 F 
ATOM     25  F   UNL     1      -0.794   8.350  22.079  0.00  0.00    +0.000 F 
ENDBRANCH  21  22
ENDBRANCH  15  16
ENDBRANCH   4  15
TORSDOF 5
ENDMDL
