MODEL 1
REMARK VINA RESULT:      -8.1      0.000      0.000
REMARK  Name = 
REMARK  5 active torsions:
REMARK  status: ('A' for Active; 'I' for Inactive)
REMARK    1  A    between atoms: C_2  and  C_3
REMARK    2  A    between atoms: C_3  and  N_4
REMARK    3  A    between atoms: N_18  and  C_19
REMARK    4  A    between atoms: C_22  and  C_23
REMARK    5  A    between atoms: C_23  and  O_25
REMARK                            x       y       z     vdW  Elec       q    Type
REMARK                         _______ _______ _______ _____ _____    ______ ____
ROOT
ATOM      1  C   UNL     1       7.182   6.917  17.012  0.00  0.00    +0.000 C 
ENDROOT
BRANCH   1   2
ATOM      2  N   UNL     1       6.147   6.247  17.777  0.00  0.00    +0.000 N 
ATOM      3  C   UNL     1       4.876   6.731  17.786  0.00  0.00    +0.000 C 
ATOM      4  O   UNL     1       4.471   7.693  17.141  0.00  0.00    +0.000 OA
ATOM      5  C   UNL     1       4.050   5.884  18.704  0.00  0.00    +0.000 C 
ATOM      6  C   UNL     1       2.871   5.198  18.002  0.00  0.00    +0.000 C 
ATOM      7  C   UNL     1       3.593   4.057  17.251  0.00  0.00    +0.000 C 
ATOM      8  C   UNL     1       4.195   3.471  18.534  0.00  0.00    +0.000 C 
ATOM      9  C   UNL     1       2.907   3.206  19.358  0.00  0.00    +0.000 C 
ATOM     10 BR   UNL     1       2.027   1.554  18.737  0.00  0.00    +0.000 Br
ATOM     11  C   UNL     1       2.015   4.408  19.014  0.00  0.00    +0.000 C 
ATOM     12 BR   UNL     1       1.559   5.406  20.626  0.00  0.00    +0.000 Br
ATOM     13  C   UNL     1       4.955   4.706  19.103  0.00  0.00    +0.000 C 
ATOM     14  C   UNL     1       6.275   5.047  18.423  0.00  0.00    +0.000 C 
ATOM     15  O   UNL     1       7.246   4.305  18.417  0.00  0.00    +0.000 OA
ENDBRANCH   1   2
BRANCH   1  17
ATOM     16  O   UNL     1       8.568   7.375  18.919  0.00  0.00    +0.000 OA
ATOM     17  C   UNL     1       7.961   7.842  17.956  0.00  0.00    +0.000 C 
ATOM     18  N   UNL     1       7.825   9.199  17.684  0.00  0.00    +0.000 N 
ATOM     19  H   UNL     1       7.018   9.484  17.131  0.00  0.00    +0.000 HD
BRANCH  18  20
ATOM     20  C   UNL     1       8.605  10.233  18.257  0.00  0.00    +0.000 A 
ATOM     21  C   UNL     1       8.705  11.507  17.680  0.00  0.00    +0.000 A 
ATOM     22  C   UNL     1       9.446  12.523  18.293  0.00  0.00    +0.000 A 
ATOM     23  C   UNL     1      10.120  12.271  19.489  0.00  0.00    +0.000 A 
ATOM     24  C   UNL     1      10.008  11.010  20.089  0.00  0.00    +0.000 A 
ATOM     25  C   UNL     1       9.250   9.998  19.478  0.00  0.00    +0.000 A 
BRANCH  23  26
ATOM     26  C   UNL     1      10.901  13.322  20.181  0.00  0.00    +0.000 C 
ATOM     27  O   UNL     1      10.486  13.901  21.171  0.00  0.00    +0.000 OA
BRANCH  26  28
ATOM     28  O   UNL     1      12.113  13.564  19.641  0.00  0.00    +0.000 OA
ATOM     29  H   UNL     1      12.865  13.175  20.124  0.00  0.00    +0.000 HD
ENDBRANCH  26  28
ENDBRANCH  23  26
ENDBRANCH  18  20
ENDBRANCH   1  17
TORSDOF 5
ENDMDL
MODEL 2
REMARK VINA RESULT:      -7.8      7.230     10.742
REMARK  Name = 
REMARK  5 active torsions:
REMARK  status: ('A' for Active; 'I' for Inactive)
REMARK    1  A    between atoms: C_2  and  C_3
REMARK    2  A    between atoms: C_3  and  N_4
REMARK    3  A    between atoms: N_18  and  C_19
REMARK    4  A    between atoms: C_22  and  C_23
REMARK    5  A    between atoms: C_23  and  O_25
REMARK                            x       y       z     vdW  Elec       q    Type
REMARK                         _______ _______ _______ _____ _____    ______ ____
ROOT
ATOM      1  C   UNL     1       1.483   9.743  21.609  0.00  0.00    +0.000 C 
ENDROOT
BRANCH   1   2
ATOM      2  N   UNL     1       0.351  10.638  21.462  0.00  0.00    +0.000 N 
ATOM      3  C   UNL     1      -0.493  10.859  22.505  0.00  0.00    +0.000 C 
ATOM      4  O   UNL     1      -0.367  10.403  23.637  0.00  0.00    +0.000 OA
ATOM      5  C   UNL     1      -1.593  11.764  22.045  0.00  0.00    +0.000 C 
ATOM      6  C   UNL     1      -1.659  13.085  22.823  0.00  0.00    +0.000 C 
ATOM      7  C   UNL     1      -0.474  13.857  22.203  0.00  0.00    +0.000 C 
ATOM      8  C   UNL     1      -1.034  13.754  20.779  0.00  0.00    +0.000 C 
ATOM      9  C   UNL     1      -2.421  14.422  20.968  0.00  0.00    +0.000 C 
ATOM     10 BR   UNL     1      -2.235  16.384  21.004  0.00  0.00    +0.000 Br
ATOM     11  C   UNL     1      -2.859  13.935  22.358  0.00  0.00    +0.000 C 
ATOM     12 BR   UNL     1      -4.540  12.952  22.241  0.00  0.00    +0.000 Br
ATOM     13  C   UNL     1      -1.194  12.211  20.629  0.00  0.00    +0.000 C 
ATOM     14  C   UNL     1       0.090  11.431  20.376  0.00  0.00    +0.000 C 
ATOM     15  O   UNL     1       0.786  11.574  19.382  0.00  0.00    +0.000 OA
ENDBRANCH   1   2
BRANCH   1  17
ATOM     16  O   UNL     1      -0.123   7.998  21.230  0.00  0.00    +0.000 OA
ATOM     17  C   UNL     1       1.056   8.341  21.153  0.00  0.00    +0.000 C 
ATOM     18  N   UNL     1       2.103   7.511  20.768  0.00  0.00    +0.000 N 
ATOM     19  H   UNL     1       3.035   7.751  21.103  0.00  0.00    +0.000 HD
BRANCH  18  20
ATOM     20  C   UNL     1       1.963   6.267  20.105  0.00  0.00    +0.000 A 
ATOM     21  C   UNL     1       2.309   6.089  18.758  0.00  0.00    +0.000 A 
ATOM     22  C   UNL     1       2.203   4.837  18.143  0.00  0.00    +0.000 A 
ATOM     23  C   UNL     1       1.725   3.743  18.865  0.00  0.00    +0.000 A 
ATOM     24  C   UNL     1       1.400   3.900  20.219  0.00  0.00    +0.000 A 
ATOM     25  C   UNL     1       1.523   5.156  20.836  0.00  0.00    +0.000 A 
BRANCH  23  26
ATOM     26  C   UNL     1       1.614   2.396  18.259  0.00  0.00    +0.000 C 
ATOM     27  O   UNL     1       2.490   1.921  17.556  0.00  0.00    +0.000 OA
BRANCH  26  28
ATOM     28  O   UNL     1       0.481   1.735  18.569  0.00  0.00    +0.000 OA
ATOM     29  H   UNL     1       0.384   1.501  19.511  0.00  0.00    +0.000 HD
ENDBRANCH  26  28
ENDBRANCH  23  26
ENDBRANCH  18  20
ENDBRANCH   1  17
TORSDOF 5
ENDMDL
MODEL 3
REMARK VINA RESULT:      -7.7      0.819      2.401
REMARK  Name = 
REMARK  5 active torsions:
REMARK  status: ('A' for Active; 'I' for Inactive)
REMARK    1  A    between atoms: C_2  and  C_3
REMARK    2  A    between atoms: C_3  and  N_4
REMARK    3  A    between atoms: N_18  and  C_19
REMARK    4  A    between atoms: C_22  and  C_23
REMARK    5  A    between atoms: C_23  and  O_25
REMARK                            x       y       z     vdW  Elec       q    Type
REMARK                         _______ _______ _______ _____ _____    ______ ____
ROOT
ATOM      1  C   UNL     1       7.493   6.699  16.456  0.00  0.00    +0.000 C 
ENDROOT
BRANCH   1   2
ATOM      2  N   UNL     1       6.359   5.889  16.856  0.00  0.00    +0.000 N 
ATOM      3  C   UNL     1       6.549   4.720  17.525  0.00  0.00    +0.000 C 
ATOM      4  O   UNL     1       7.631   4.276  17.896  0.00  0.00    +0.000 OA
ATOM      5  C   UNL     1       5.216   4.074  17.745  0.00  0.00    +0.000 C 
ATOM      6  C   UNL     1       4.875   3.874  19.227  0.00  0.00    +0.000 C 
ATOM      7  C   UNL     1       4.487   5.311  19.641  0.00  0.00    +0.000 C 
ATOM      8  C   UNL     1       3.380   5.413  18.585  0.00  0.00    +0.000 C 
ATOM      9  C   UNL     1       2.500   4.196  18.975  0.00  0.00    +0.000 C 
ATOM     10 BR   UNL     1       1.377   4.636  20.534  0.00  0.00    +0.000 Br
ATOM     11  C   UNL     1       3.531   3.134  19.385  0.00  0.00    +0.000 C 
ATOM     12 BR   UNL     1       3.358   1.544  18.268  0.00  0.00    +0.000 Br
ATOM     13  C   UNL     1       4.176   5.108  17.281  0.00  0.00    +0.000 C 
ATOM     14  C   UNL     1       5.040   6.244  16.749  0.00  0.00    +0.000 C 
ATOM     15  O   UNL     1       4.593   7.313  16.364  0.00  0.00    +0.000 OA
ENDBRANCH   1   2
BRANCH   1  17
ATOM     16  O   UNL     1       8.033   7.126  18.757  0.00  0.00    +0.000 OA
ATOM     17  C   UNL     1       7.884   7.603  17.632  0.00  0.00    +0.000 C 
ATOM     18  N   UNL     1       7.942   8.959  17.330  0.00  0.00    +0.000 N 
ATOM     19  H   UNL     1       7.437   9.273  16.502  0.00  0.00    +0.000 HD
BRANCH  18  20
ATOM     20  C   UNL     1       8.486   9.964  18.166  0.00  0.00    +0.000 A 
ATOM     21  C   UNL     1       9.071   9.675  19.407  0.00  0.00    +0.000 A 
ATOM     22  C   UNL     1       9.643  10.683  20.191  0.00  0.00    +0.000 A 
ATOM     23  C   UNL     1       9.618  12.008  19.751  0.00  0.00    +0.000 A 
ATOM     24  C   UNL     1       9.060  12.307  18.501  0.00  0.00    +0.000 A 
ATOM     25  C   UNL     1       8.501  11.289  17.711  0.00  0.00    +0.000 A 
BRANCH  23  26
ATOM     26  C   UNL     1      10.227  13.103  20.540  0.00  0.00    +0.000 C 
ATOM     27  O   UNL     1       9.677  13.593  21.512  0.00  0.00    +0.000 OA
BRANCH  26  28
ATOM     28  O   UNL     1      11.444  13.492  20.110  0.00  0.00    +0.000 OA
ATOM     29  H   UNL     1      11.437  14.146  19.386  0.00  0.00    +0.000 HD
ENDBRANCH  26  28
ENDBRANCH  23  26
ENDBRANCH  18  20
ENDBRANCH   1  17
TORSDOF 5
ENDMDL
MODEL 4
REMARK VINA RESULT:      -7.6      5.830      8.308
REMARK  Name = 
REMARK  5 active torsions:
REMARK  status: ('A' for Active; 'I' for Inactive)
REMARK    1  A    between atoms: C_2  and  C_3
REMARK    2  A    between atoms: C_3  and  N_4
REMARK    3  A    between atoms: N_18  and  C_19
REMARK    4  A    between atoms: C_22  and  C_23
REMARK    5  A    between atoms: C_23  and  O_25
REMARK                            x       y       z     vdW  Elec       q    Type
REMARK                         _______ _______ _______ _____ _____    ______ ____
ROOT
ATOM      1  C   UNL     1       2.048   7.215  20.265  0.00  0.00    +0.000 C 
ENDROOT
BRANCH   1   2
ATOM      2  N   UNL     1       1.317   8.380  19.807  0.00  0.00    +0.000 N 
ATOM      3  C   UNL     1       0.261   8.856  20.521  0.00  0.00    +0.000 C 
ATOM      4  O   UNL     1      -0.130   8.418  21.598  0.00  0.00    +0.000 OA
ATOM      5  C   UNL     1      -0.334  10.013  19.779  0.00  0.00    +0.000 C 
ATOM      6  C   UNL     1      -0.304  11.324  20.574  0.00  0.00    +0.000 C 
ATOM      7  C   UNL     1       1.182  11.724  20.436  0.00  0.00    +0.000 C 
ATOM      8  C   UNL     1       1.131  11.733  18.904  0.00  0.00    +0.000 C 
ATOM      9  C   UNL     1      -0.006  12.761  18.661  0.00  0.00    +0.000 C 
ATOM     10 BR   UNL     1       0.675  14.598  18.884  0.00  0.00    +0.000 Br
ATOM     11  C   UNL     1      -1.002  12.456  19.791  0.00  0.00    +0.000 C 
ATOM     12 BR   UNL     1      -2.741  11.966  19.057  0.00  0.00    +0.000 Br
ATOM     13  C   UNL     1       0.625  10.289  18.609  0.00  0.00    +0.000 C 
ATOM     14  C   UNL     1       1.660   9.180  18.750  0.00  0.00    +0.000 C 
ATOM     15  O   UNL     1       2.663   9.097  18.056  0.00  0.00    +0.000 OA
ENDBRANCH   1   2
BRANCH   1  17
ATOM     16  O   UNL     1       1.714   5.873  18.301  0.00  0.00    +0.000 OA
ATOM     17  C   UNL     1       2.528   6.429  19.038  0.00  0.00    +0.000 C 
ATOM     18  N   UNL     1       3.909   6.326  18.917  0.00  0.00    +0.000 N 
ATOM     19  H   UNL     1       4.463   6.479  19.759  0.00  0.00    +0.000 HD
BRANCH  18  20
ATOM     20  C   UNL     1       4.600   5.853  17.775  0.00  0.00    +0.000 A 
ATOM     21  C   UNL     1       4.987   4.513  17.631  0.00  0.00    +0.000 A 
ATOM     22  C   UNL     1       5.627   4.065  16.470  0.00  0.00    +0.000 A 
ATOM     23  C   UNL     1       5.912   4.962  15.440  0.00  0.00    +0.000 A 
ATOM     24  C   UNL     1       5.508   6.299  15.559  0.00  0.00    +0.000 A 
ATOM     25  C   UNL     1       4.851   6.739  16.720  0.00  0.00    +0.000 A 
BRANCH  23  26
ATOM     26  C   UNL     1       6.572   4.527  14.187  0.00  0.00    +0.000 C 
ATOM     27  O   UNL     1       7.356   5.237  13.580  0.00  0.00    +0.000 OA
BRANCH  26  28
ATOM     28  O   UNL     1       6.254   3.277  13.793  0.00  0.00    +0.000 OA
ATOM     29  H   UNL     1       6.819   2.911  13.087  0.00  0.00    +0.000 HD
ENDBRANCH  26  28
ENDBRANCH  23  26
ENDBRANCH  18  20
ENDBRANCH   1  17
TORSDOF 5
ENDMDL
MODEL 5
REMARK VINA RESULT:      -7.5      0.877      2.322
REMARK  Name = 
REMARK  5 active torsions:
REMARK  status: ('A' for Active; 'I' for Inactive)
REMARK    1  A    between atoms: C_2  and  C_3
REMARK    2  A    between atoms: C_3  and  N_4
REMARK    3  A    between atoms: N_18  and  C_19
REMARK    4  A    between atoms: C_22  and  C_23
REMARK    5  A    between atoms: C_23  and  O_25
REMARK                            x       y       z     vdW  Elec       q    Type
REMARK                         _______ _______ _______ _____ _____    ______ ____
ROOT
ATOM      1  C   UNL     1       7.491   6.697  16.445  0.00  0.00    +0.000 C 
ENDROOT
BRANCH   1   2
ATOM      2  N   UNL     1       6.357   5.891  16.854  0.00  0.00    +0.000 N 
ATOM      3  C   UNL     1       6.549   4.721  17.522  0.00  0.00    +0.000 C 
ATOM      4  O   UNL     1       7.632   4.274  17.886  0.00  0.00    +0.000 OA
ATOM      5  C   UNL     1       5.216   4.079  17.751  0.00  0.00    +0.000 C 
ATOM      6  C   UNL     1       4.885   3.881  19.236  0.00  0.00    +0.000 C 
ATOM      7  C   UNL     1       4.503   5.319  19.652  0.00  0.00    +0.000 C 
ATOM      8  C   UNL     1       3.389   5.424  18.604  0.00  0.00    +0.000 C 
ATOM      9  C   UNL     1       2.508   4.209  19.001  0.00  0.00    +0.000 C 
ATOM     10 BR   UNL     1       1.398   4.654  20.568  0.00  0.00    +0.000 Br
ATOM     11  C   UNL     1       3.540   3.144  19.404  0.00  0.00    +0.000 C 
ATOM     12 BR   UNL     1       3.354   1.554  18.289  0.00  0.00    +0.000 Br
ATOM     13  C   UNL     1       4.175   5.115  17.295  0.00  0.00    +0.000 C 
ATOM     14  C   UNL     1       5.039   6.248  16.755  0.00  0.00    +0.000 C 
ATOM     15  O   UNL     1       4.591   7.319  16.373  0.00  0.00    +0.000 OA
ENDBRANCH   1   2
BRANCH   1  17
ATOM     16  O   UNL     1       7.988   7.166  18.747  0.00  0.00    +0.000 OA
ATOM     17  C   UNL     1       7.876   7.620  17.609  0.00  0.00    +0.000 C 
ATOM     18  N   UNL     1       7.972   8.966  17.276  0.00  0.00    +0.000 N 
ATOM     19  H   UNL     1       7.493   9.272  16.430  0.00  0.00    +0.000 HD
BRANCH  18  20
ATOM     20  C   UNL     1       8.521   9.978  18.102  0.00  0.00    +0.000 A 
ATOM     21  C   UNL     1       8.467  11.337  17.762  0.00  0.00    +0.000 A 
ATOM     22  C   UNL     1       8.976  12.319  18.619  0.00  0.00    +0.000 A 
ATOM     23  C   UNL     1       9.571  11.950  19.827  0.00  0.00    +0.000 A 
ATOM     24  C   UNL     1       9.609  10.597  20.190  0.00  0.00    +0.000 A 
ATOM     25  C   UNL     1       9.081   9.618  19.333  0.00  0.00    +0.000 A 
BRANCH  23  26
ATOM     26  C   UNL     1      10.107  12.956  20.771  0.00  0.00    +0.000 C 
ATOM     27  O   UNL     1      11.077  13.647  20.510  0.00  0.00    +0.000 OA
BRANCH  26  28
ATOM     28  O   UNL     1       9.420  13.060  21.927  0.00  0.00    +0.000 OA
ATOM     29  H   UNL     1       9.283  13.972  22.245  0.00  0.00    +0.000 HD
ENDBRANCH  26  28
ENDBRANCH  23  26
ENDBRANCH  18  20
ENDBRANCH   1  17
TORSDOF 5
ENDMDL
MODEL 6
REMARK VINA RESULT:      -7.4      8.843     11.286
REMARK  Name = 
REMARK  5 active torsions:
REMARK  status: ('A' for Active; 'I' for Inactive)
REMARK    1  A    between atoms: C_2  and  C_3
REMARK    2  A    between atoms: C_3  and  N_4
REMARK    3  A    between atoms: N_18  and  C_19
REMARK    4  A    between atoms: C_22  and  C_23
REMARK    5  A    between atoms: C_23  and  O_25
REMARK                            x       y       z     vdW  Elec       q    Type
REMARK                         _______ _______ _______ _____ _____    ______ ____
ROOT
ATOM      1  C   UNL     1      -1.841  12.262  18.554  0.00  0.00    +0.000 C 
ENDROOT
BRANCH   1   2
ATOM      2  N   UNL     1      -2.737  12.403  19.685  0.00  0.00    +0.000 N 
ATOM      3  C   UNL     1      -2.251  12.734  20.912  0.00  0.00    +0.000 C 
ATOM      4  O   UNL     1      -1.081  12.994  21.172  0.00  0.00    +0.000 OA
ATOM      5  C   UNL     1      -3.387  12.742  21.888  0.00  0.00    +0.000 C 
ATOM      6  C   UNL     1      -3.606  14.107  22.553  0.00  0.00    +0.000 C 
ATOM      7  C   UNL     1      -4.299  14.886  21.413  0.00  0.00    +0.000 C 
ATOM      8  C   UNL     1      -5.445  13.875  21.295  0.00  0.00    +0.000 C 
ATOM      9  C   UNL     1      -6.001  13.901  22.744  0.00  0.00    +0.000 C 
ATOM     10 BR   UNL     1      -7.125  15.498  23.016  0.00  0.00    +0.000 Br
ATOM     11  C   UNL     1      -4.733  14.030  23.604  0.00  0.00    +0.000 C 
ATOM     12 BR   UNL     1      -4.582  12.520  24.829  0.00  0.00    +0.000 Br
ATOM     13  C   UNL     1      -4.658  12.554  21.043  0.00  0.00    +0.000 C 
ATOM     14  C   UNL     1      -4.105  12.368  19.636  0.00  0.00    +0.000 C 
ATOM     15  O   UNL     1      -4.806  12.278  18.638  0.00  0.00    +0.000 OA
ENDBRANCH   1   2
BRANCH   1  17
ATOM     16  O   UNL     1      -1.894   9.889  18.185  0.00  0.00    +0.000 OA
ATOM     17  C   UNL     1      -1.239  10.851  18.585  0.00  0.00    +0.000 C 
ATOM     18  N   UNL     1       0.015  10.766  19.181  0.00  0.00    +0.000 N 
ATOM     19  H   UNL     1       0.284  11.524  19.807  0.00  0.00    +0.000 HD
BRANCH  18  20
ATOM     20  C   UNL     1       0.870   9.638  19.137  0.00  0.00    +0.000 A 
ATOM     21  C   UNL     1       1.093   8.820  20.253  0.00  0.00    +0.000 A 
ATOM     22  C   UNL     1       1.907   7.685  20.168  0.00  0.00    +0.000 A 
ATOM     23  C   UNL     1       2.531   7.363  18.961  0.00  0.00    +0.000 A 
ATOM     24  C   UNL     1       2.296   8.158  17.831  0.00  0.00    +0.000 A 
ATOM     25  C   UNL     1       1.466   9.287  17.919  0.00  0.00    +0.000 A 
BRANCH  23  26
ATOM     26  C   UNL     1       3.386   6.162  18.822  0.00  0.00    +0.000 C 
ATOM     27  O   UNL     1       3.794   5.771  17.741  0.00  0.00    +0.000 OA
BRANCH  26  28
ATOM     28  O   UNL     1       3.694   5.557  19.987  0.00  0.00    +0.000 OA
ATOM     29  H   UNL     1       4.119   6.132  20.651  0.00  0.00    +0.000 HD
ENDBRANCH  26  28
ENDBRANCH  23  26
ENDBRANCH  18  20
ENDBRANCH   1  17
TORSDOF 5
ENDMDL
MODEL 7
REMARK VINA RESULT:      -7.3      7.352     10.736
REMARK  Name = 
REMARK  5 active torsions:
REMARK  status: ('A' for Active; 'I' for Inactive)
REMARK    1  A    between atoms: C_2  and  C_3
REMARK    2  A    between atoms: C_3  and  N_4
REMARK    3  A    between atoms: N_18  and  C_19
REMARK    4  A    between atoms: C_22  and  C_23
REMARK    5  A    between atoms: C_23  and  O_25
REMARK                            x       y       z     vdW  Elec       q    Type
REMARK                         _______ _______ _______ _____ _____    ______ ____
ROOT
ATOM      1  C   UNL     1       1.411   9.996  21.650  0.00  0.00    +0.000 C 
ENDROOT
BRANCH   1   2
ATOM      2  N   UNL     1       0.275  10.894  21.560  0.00  0.00    +0.000 N 
ATOM      3  C   UNL     1      -0.688  10.884  22.521  0.00  0.00    +0.000 C 
ATOM      4  O   UNL     1      -0.675  10.203  23.540  0.00  0.00    +0.000 OA
ATOM      5  C   UNL     1      -1.758  11.857  22.132  0.00  0.00    +0.000 C 
ATOM      6  C   UNL     1      -1.954  12.985  23.154  0.00  0.00    +0.000 C 
ATOM      7  C   UNL     1      -0.732  13.879  22.850  0.00  0.00    +0.000 C 
ATOM      8  C   UNL     1      -1.124  14.072  21.380  0.00  0.00    +0.000 C 
ATOM      9  C   UNL     1      -2.544  14.675  21.539  0.00  0.00    +0.000 C 
ATOM     10 BR   UNL     1      -2.427  16.587  22.002  0.00  0.00    +0.000 Br
ATOM     11  C   UNL     1      -3.121  13.904  22.737  0.00  0.00    +0.000 C 
ATOM     12 BR   UNL     1      -4.744  12.953  22.223  0.00  0.00    +0.000 Br
ATOM     13  C   UNL     1      -1.216  12.594  20.896  0.00  0.00    +0.000 C 
ATOM     14  C   UNL     1       0.113  11.894  20.639  0.00  0.00    +0.000 C 
ATOM     15  O   UNL     1       0.912  12.248  19.784  0.00  0.00    +0.000 OA
ENDBRANCH   1   2
BRANCH   1  17
ATOM     16  O   UNL     1       0.313   8.848  19.849  0.00  0.00    +0.000 OA
ATOM     17  C   UNL     1       1.140   8.778  20.758  0.00  0.00    +0.000 C 
ATOM     18  N   UNL     1       1.811   7.620  21.135  0.00  0.00    +0.000 N 
ATOM     19  H   UNL     1       2.149   7.570  22.095  0.00  0.00    +0.000 HD
BRANCH  18  20
ATOM     20  C   UNL     1       1.906   6.437  20.361  0.00  0.00    +0.000 A 
ATOM     21  C   UNL     1       1.280   5.240  20.736  0.00  0.00    +0.000 A 
ATOM     22  C   UNL     1       1.353   4.101  19.928  0.00  0.00    +0.000 A 
ATOM     23  C   UNL     1       2.077   4.137  18.735  0.00  0.00    +0.000 A 
ATOM     24  C   UNL     1       2.686   5.334  18.335  0.00  0.00    +0.000 A 
ATOM     25  C   UNL     1       2.596   6.479  19.142  0.00  0.00    +0.000 A 
BRANCH  23  26
ATOM     26  C   UNL     1       2.166   2.960  17.841  0.00  0.00    +0.000 C 
ATOM     27  O   UNL     1       2.372   3.061  16.643  0.00  0.00    +0.000 OA
BRANCH  26  28
ATOM     28  O   UNL     1       2.027   1.772  18.465  0.00  0.00    +0.000 OA
ATOM     29  H   UNL     1       2.792   1.497  19.003  0.00  0.00    +0.000 HD
ENDBRANCH  26  28
ENDBRANCH  23  26
ENDBRANCH  18  20
ENDBRANCH   1  17
TORSDOF 5
ENDMDL
MODEL 8
REMARK VINA RESULT:      -7.3      6.722      9.263
REMARK  Name = 
REMARK  5 active torsions:
REMARK  status: ('A' for Active; 'I' for Inactive)
REMARK    1  A    between atoms: C_2  and  C_3
REMARK    2  A    between atoms: C_3  and  N_4
REMARK    3  A    between atoms: N_18  and  C_19
REMARK    4  A    between atoms: C_22  and  C_23
REMARK    5  A    between atoms: C_23  and  O_25
REMARK                            x       y       z     vdW  Elec       q    Type
REMARK                         _______ _______ _______ _____ _____    ______ ____
ROOT
ATOM      1  C   UNL     1      -0.046  10.157  18.153  0.00  0.00    +0.000 C 
ENDROOT
BRANCH   1   2
ATOM      2  N   UNL     1      -0.203  11.006  19.319  0.00  0.00    +0.000 N 
ATOM      3  C   UNL     1      -0.352  12.351  19.176  0.00  0.00    +0.000 C 
ATOM      4  O   UNL     1      -0.428  12.953  18.110  0.00  0.00    +0.000 OA
ATOM      5  C   UNL     1      -0.423  12.969  20.538  0.00  0.00    +0.000 C 
ATOM      6  C   UNL     1      -1.740  13.713  20.798  0.00  0.00    +0.000 C 
ATOM      7  C   UNL     1      -2.705  12.534  21.049  0.00  0.00    +0.000 C 
ATOM      8  C   UNL     1      -1.871  11.979  22.210  0.00  0.00    +0.000 C 
ATOM      9  C   UNL     1      -1.840  13.210  23.154  0.00  0.00    +0.000 C 
ATOM     10 BR   UNL     1      -3.541  13.359  24.139  0.00  0.00    +0.000 Br
ATOM     11  C   UNL     1      -1.718  14.395  22.183  0.00  0.00    +0.000 C 
ATOM     12 BR   UNL     1      -0.097  15.415  22.547  0.00  0.00    +0.000 Br
ATOM     13  C   UNL     1      -0.486  11.790  21.523  0.00  0.00    +0.000 C 
ATOM     14  C   UNL     1      -0.356  10.578  20.610  0.00  0.00    +0.000 C 
ATOM     15  O   UNL     1      -0.452   9.423  20.999  0.00  0.00    +0.000 OA
ENDBRANCH   1   2
BRANCH   1  17
ATOM     16  O   UNL     1       2.354  10.259  18.149  0.00  0.00    +0.000 OA
ATOM     17  C   UNL     1       1.358   9.538  18.189  0.00  0.00    +0.000 C 
ATOM     18  N   UNL     1       1.381   8.148  18.161  0.00  0.00    +0.000 N 
ATOM     19  H   UNL     1       0.549   7.675  17.811  0.00  0.00    +0.000 HD
BRANCH  18  20
ATOM     20  C   UNL     1       2.519   7.341  18.407  0.00  0.00    +0.000 A 
ATOM     21  C   UNL     1       2.616   6.497  19.522  0.00  0.00    +0.000 A 
ATOM     22  C   UNL     1       3.733   5.676  19.713  0.00  0.00    +0.000 A 
ATOM     23  C   UNL     1       4.786   5.705  18.797  0.00  0.00    +0.000 A 
ATOM     24  C   UNL     1       4.690   6.525  17.665  0.00  0.00    +0.000 A 
ATOM     25  C   UNL     1       3.560   7.335  17.469  0.00  0.00    +0.000 A 
BRANCH  23  26
ATOM     26  C   UNL     1       5.978   4.841  18.952  0.00  0.00    +0.000 C 
ATOM     27  O   UNL     1       6.875   5.097  19.738  0.00  0.00    +0.000 OA
BRANCH  26  28
ATOM     28  O   UNL     1       5.975   3.740  18.173  0.00  0.00    +0.000 OA
ATOM     29  H   UNL     1       5.152   3.218  18.199  0.00  0.00    +0.000 HD
ENDBRANCH  26  28
ENDBRANCH  23  26
ENDBRANCH  18  20
ENDBRANCH   1  17
TORSDOF 5
ENDMDL
MODEL 9
REMARK VINA RESULT:      -7.2      6.110      9.532
REMARK  Name = 
REMARK  5 active torsions:
REMARK  status: ('A' for Active; 'I' for Inactive)
REMARK    1  A    between atoms: C_2  and  C_3
REMARK    2  A    between atoms: C_3  and  N_4
REMARK    3  A    between atoms: N_18  and  C_19
REMARK    4  A    between atoms: C_22  and  C_23
REMARK    5  A    between atoms: C_23  and  O_25
REMARK                            x       y       z     vdW  Elec       q    Type
REMARK                         _______ _______ _______ _____ _____    ______ ____
ROOT
ATOM      1  C   UNL     1       1.276   9.369  17.866  0.00  0.00    +0.000 C 
ENDROOT
BRANCH   1   2
ATOM      2  N   UNL     1       1.112  10.501  18.757  0.00  0.00    +0.000 N 
ATOM      3  C   UNL     1       1.927  11.586  18.651  0.00  0.00    +0.000 C 
ATOM      4  O   UNL     1       2.798  11.745  17.803  0.00  0.00    +0.000 OA
ATOM      5  C   UNL     1       1.571  12.557  19.733  0.00  0.00    +0.000 C 
ATOM      6  C   UNL     1       1.112  13.920  19.198  0.00  0.00    +0.000 C 
ATOM      7  C   UNL     1      -0.322  13.589  18.729  0.00  0.00    +0.000 C 
ATOM      8  C   UNL     1      -0.760  13.099  20.114  0.00  0.00    +0.000 C 
ATOM      9  C   UNL     1      -0.463  14.358  20.971  0.00  0.00    +0.000 C 
ATOM     10 BR   UNL     1      -1.890  15.698  20.735  0.00  0.00    +0.000 Br
ATOM     11  C   UNL     1       0.838  14.900  20.359  0.00  0.00    +0.000 C 
ATOM     12 BR   UNL     1       2.252  14.964  21.701  0.00  0.00    +0.000 Br
ATOM     13  C   UNL     1       0.301  11.993  20.393  0.00  0.00    +0.000 C 
ATOM     14  C   UNL     1       0.096  10.674  19.659  0.00  0.00    +0.000 C 
ATOM     15  O   UNL     1      -0.874   9.949  19.826  0.00  0.00    +0.000 OA
ENDBRANCH   1   2
BRANCH   1  17
ATOM     16  O   UNL     1       1.956   8.245  19.877  0.00  0.00    +0.000 OA
ATOM     17  C   UNL     1       1.944   8.230  18.647  0.00  0.00    +0.000 C 
ATOM     18  N   UNL     1       2.595   7.287  17.857  0.00  0.00    +0.000 N 
ATOM     19  H   UNL     1       2.851   7.569  16.912  0.00  0.00    +0.000 HD
BRANCH  18  20
ATOM     20  C   UNL     1       3.090   6.040  18.309  0.00  0.00    +0.000 A 
ATOM     21  C   UNL     1       4.453   5.813  18.546  0.00  0.00    +0.000 A 
ATOM     22  C   UNL     1       4.908   4.585  19.037  0.00  0.00    +0.000 A 
ATOM     23  C   UNL     1       4.002   3.550  19.277  0.00  0.00    +0.000 A 
ATOM     24  C   UNL     1       2.634   3.772  19.069  0.00  0.00    +0.000 A 
ATOM     25  C   UNL     1       2.181   5.012  18.591  0.00  0.00    +0.000 A 
BRANCH  23  26
ATOM     26  C   UNL     1       4.438   2.240  19.812  0.00  0.00    +0.000 C 
ATOM     27  O   UNL     1       4.767   2.086  20.977  0.00  0.00    +0.000 OA
BRANCH  26  28
ATOM     28  O   UNL     1       4.416   1.234  18.914  0.00  0.00    +0.000 OA
ATOM     29  H   UNL     1       5.274   0.794  18.767  0.00  0.00    +0.000 HD
ENDBRANCH  26  28
ENDBRANCH  23  26
ENDBRANCH  18  20
ENDBRANCH   1  17
TORSDOF 5
ENDMDL
