MODEL 1
REMARK VINA RESULT:      -9.4      0.000      0.000
REMARK  Name = 
REMARK  8 active torsions:
REMARK  status: ('A' for Active; 'I' for Inactive)
REMARK    1  A    between atoms: C_1  and  C_2
REMARK    2  A    between atoms: C_2  and  O_3
REMARK    3  A    between atoms: O_3  and  C_4
REMARK    4  A    between atoms: N_6  and  C_7
REMARK    5  A    between atoms: C_10  and  S_11
REMARK    6  A    between atoms: S_11  and  N_14
REMARK    7  A    between atoms: C_15  and  C_16
REMARK    8  A    between atoms: C_16  and  O_17
REMARK                            x       y       z     vdW  Elec       q    Type
REMARK                         _______ _______ _______ _____ _____    ______ ____
ROOT
ATOM      1  N   UNL     1       4.213   5.801  18.630  0.00  0.00    +0.000 N 
ATOM      2  C   UNL     1       4.730   4.756  19.423  0.00  0.00    +0.000 A 
ATOM      3  C   UNL     1       6.031   5.268  19.489  0.00  0.00    +0.000 A 
ATOM      4  C   UNL     1       6.313   5.346  18.086  0.00  0.00    +0.000 A 
ATOM      5  C   UNL     1       7.459   4.894  17.394  0.00  0.00    +0.000 A 
ATOM      6  C   UNL     1       7.252   4.255  16.178  0.00  0.00    +0.000 A 
ATOM      7  C   UNL     1       5.983   4.267  15.597  0.00  0.00    +0.000 A 
ATOM      8  C   UNL     1       4.879   4.991  16.151  0.00  0.00    +0.000 A 
ATOM      9  C   UNL     1       5.029   5.509  17.465  0.00  0.00    +0.000 A 
ENDROOT
BRANCH   2  10
ATOM     10  C   UNL     1       4.151   3.316  19.209  0.00  0.00    +0.000 C 
ATOM     11  C   UNL     1       3.157   2.969  20.299  0.00  0.00    +0.000 C 
ATOM     12  C   UNL     1       1.916   2.554  20.062  0.00  0.00    +0.000 C 
ATOM     13  C   UNL     1       1.397   2.332  18.689  0.00  0.00    +0.000 C 
ATOM     14  O   UNL     1       0.253   1.954  18.487  0.00  0.00    +0.000 OA
ATOM     15  C   UNL     1       2.344   2.528  17.579  0.00  0.00    +0.000 C 
ATOM     16  C   UNL     1       3.589   2.950  17.840  0.00  0.00    +0.000 C 
BRANCH  10  17
ATOM     17  O   UNL     1       5.216   2.383  19.357  0.00  0.00    +0.000 OA
ATOM     18  H   UNL     1       5.284   1.872  18.542  0.00  0.00    +0.000 HD
ENDBRANCH  10  17
ENDBRANCH   2  10
BRANCH   1  19
ATOM     19  S   UNL     1       2.562   6.221  19.054  0.00  0.00    +0.000 S 
ATOM     20  O   UNL     1       2.434   5.739  20.415  0.00  0.00    +0.000 OA
ATOM     21  O   UNL     1       1.755   5.660  17.982  0.00  0.00    +0.000 OA
BRANCH  19  25
ATOM     22  C   UNL     1       0.329  10.326  19.293  0.00  0.00    +0.000 A 
ATOM     23  C   UNL     1       0.616   9.584  20.442  0.00  0.00    +0.000 A 
ATOM     24  C   UNL     1       1.457   8.433  20.407  0.00  0.00    +0.000 A 
ATOM     25  C   UNL     1       2.076   7.990  19.215  0.00  0.00    +0.000 A 
ATOM     26  C   UNL     1       1.757   8.719  18.057  0.00  0.00    +0.000 A 
ATOM     27  C   UNL     1       0.909   9.868  18.098  0.00  0.00    +0.000 A 
BRANCH  22  30
ATOM     28  C   UNL     1      -0.374  12.670  19.880  0.00  0.00    +0.000 C 
ATOM     29  O   UNL     1       0.628  13.051  20.465  0.00  0.00    +0.000 OA
ATOM     30  N   UNL     1      -0.557  11.446  19.267  0.00  0.00    +0.000 N 
ATOM     31  H   UNL     1      -1.423  11.363  18.754  0.00  0.00    +0.000 HD
BRANCH  28  32
ATOM     32  O   UNL     1      -1.496  13.448  19.747  0.00  0.00    +0.000 OA
BRANCH  32  34
ATOM     33  C   UNL     1      -2.672  12.847  21.792  0.00  0.00    +0.000 C 
ATOM     34  C   UNL     1      -2.722  12.879  20.272  0.00  0.00    +0.000 C 
ENDBRANCH  32  34
ENDBRANCH  28  32
ENDBRANCH  22  30
ENDBRANCH  19  25
ENDBRANCH   1  19
TORSDOF 7
ENDMDL
MODEL 2
REMARK VINA RESULT:      -8.7      1.384      2.033
REMARK  Name = 
REMARK  8 active torsions:
REMARK  status: ('A' for Active; 'I' for Inactive)
REMARK    1  A    between atoms: C_1  and  C_2
REMARK    2  A    between atoms: C_2  and  O_3
REMARK    3  A    between atoms: O_3  and  C_4
REMARK    4  A    between atoms: N_6  and  C_7
REMARK    5  A    between atoms: C_10  and  S_11
REMARK    6  A    between atoms: S_11  and  N_14
REMARK    7  A    between atoms: C_15  and  C_16
REMARK    8  A    between atoms: C_16  and  O_17
REMARK                            x       y       z     vdW  Elec       q    Type
REMARK                         _______ _______ _______ _____ _____    ______ ____
ROOT
ATOM      1  N   UNL     1       4.053   5.956  18.467  0.00  0.00    +0.000 N 
ATOM      2  C   UNL     1       4.606   4.983  19.324  0.00  0.00    +0.000 A 
ATOM      3  C   UNL     1       5.882   5.557  19.374  0.00  0.00    +0.000 A 
ATOM      4  C   UNL     1       6.179   5.568  17.972  0.00  0.00    +0.000 A 
ATOM      5  C   UNL     1       7.352   5.131  17.320  0.00  0.00    +0.000 A 
ATOM      6  C   UNL     1       7.191   4.416  16.141  0.00  0.00    +0.000 A 
ATOM      7  C   UNL     1       5.931   4.335  15.546  0.00  0.00    +0.000 A 
ATOM      8  C   UNL     1       4.788   5.038  16.045  0.00  0.00    +0.000 A 
ATOM      9  C   UNL     1       4.897   5.637  17.330  0.00  0.00    +0.000 A 
ENDROOT
BRANCH   2  10
ATOM     10  C   UNL     1       4.096   3.509  19.187  0.00  0.00    +0.000 C 
ATOM     11  C   UNL     1       3.109   3.176  20.288  0.00  0.00    +0.000 C 
ATOM     12  C   UNL     1       1.890   2.692  20.066  0.00  0.00    +0.000 C 
ATOM     13  C   UNL     1       1.396   2.370  18.704  0.00  0.00    +0.000 C 
ATOM     14  O   UNL     1       0.272   1.929  18.515  0.00  0.00    +0.000 OA
ATOM     15  C   UNL     1       2.343   2.548  17.591  0.00  0.00    +0.000 C 
ATOM     16  C   UNL     1       3.565   3.041  17.836  0.00  0.00    +0.000 C 
BRANCH  10  17
ATOM     17  O   UNL     1       5.201   2.635  19.394  0.00  0.00    +0.000 OA
ATOM     18  H   UNL     1       4.859   1.771  19.649  0.00  0.00    +0.000 HD
ENDBRANCH  10  17
ENDBRANCH   2  10
BRANCH   1  19
ATOM     19  S   UNL     1       2.379   6.323  18.849  0.00  0.00    +0.000 S 
ATOM     20  O   UNL     1       2.322   6.160  20.287  0.00  0.00    +0.000 OA
ATOM     21  O   UNL     1       1.606   5.464  17.966  0.00  0.00    +0.000 OA
BRANCH  19  25
ATOM     22  C   UNL     1       1.623  10.941  18.851  0.00  0.00    +0.000 A 
ATOM     23  C   UNL     1       2.298  10.313  17.801  0.00  0.00    +0.000 A 
ATOM     24  C   UNL     1       2.369   8.893  17.692  0.00  0.00    +0.000 A 
ATOM     25  C   UNL     1       1.738   8.034  18.620  0.00  0.00    +0.000 A 
ATOM     26  C   UNL     1       1.090   8.670  19.693  0.00  0.00    +0.000 A 
ATOM     27  C   UNL     1       1.027  10.094  19.800  0.00  0.00    +0.000 A 
BRANCH  22  30
ATOM     28  C   UNL     1       0.549  13.211  18.702  0.00  0.00    +0.000 C 
ATOM     29  O   UNL     1      -0.555  12.896  18.283  0.00  0.00    +0.000 OA
ATOM     30  N   UNL     1       1.579  12.356  19.037  0.00  0.00    +0.000 N 
ATOM     31  H   UNL     1       2.378  12.812  19.458  0.00  0.00    +0.000 HD
BRANCH  28  32
ATOM     32  O   UNL     1       0.919  14.517  18.906  0.00  0.00    +0.000 OA
BRANCH  32  34
ATOM     33  C   UNL     1       2.426  16.358  18.394  0.00  0.00    +0.000 C 
ATOM     34  C   UNL     1       2.279  14.851  18.533  0.00  0.00    +0.000 C 
ENDBRANCH  32  34
ENDBRANCH  28  32
ENDBRANCH  22  30
ENDBRANCH  19  25
ENDBRANCH   1  19
TORSDOF 7
ENDMDL
MODEL 3
REMARK VINA RESULT:      -8.5      1.404      1.692
REMARK  Name = 
REMARK  8 active torsions:
REMARK  status: ('A' for Active; 'I' for Inactive)
REMARK    1  A    between atoms: C_1  and  C_2
REMARK    2  A    between atoms: C_2  and  O_3
REMARK    3  A    between atoms: O_3  and  C_4
REMARK    4  A    between atoms: N_6  and  C_7
REMARK    5  A    between atoms: C_10  and  S_11
REMARK    6  A    between atoms: S_11  and  N_14
REMARK    7  A    between atoms: C_15  and  C_16
REMARK    8  A    between atoms: C_16  and  O_17
REMARK                            x       y       z     vdW  Elec       q    Type
REMARK                         _______ _______ _______ _____ _____    ______ ____
ROOT
ATOM      1  N   UNL     1       4.067   5.984  18.496  0.00  0.00    +0.000 N 
ATOM      2  C   UNL     1       4.614   5.005  19.351  0.00  0.00    +0.000 A 
ATOM      3  C   UNL     1       5.886   5.584  19.422  0.00  0.00    +0.000 A 
ATOM      4  C   UNL     1       6.200   5.609  18.024  0.00  0.00    +0.000 A 
ATOM      5  C   UNL     1       7.383   5.184  17.382  0.00  0.00    +0.000 A 
ATOM      6  C   UNL     1       7.239   4.479  16.193  0.00  0.00    +0.000 A 
ATOM      7  C   UNL     1       5.987   4.400  15.582  0.00  0.00    +0.000 A 
ATOM      8  C   UNL     1       4.835   5.092  16.075  0.00  0.00    +0.000 A 
ATOM      9  C   UNL     1       4.926   5.679  17.366  0.00  0.00    +0.000 A 
ENDROOT
BRANCH   2  10
ATOM     10  C   UNL     1       4.112   3.529  19.193  0.00  0.00    +0.000 C 
ATOM     11  C   UNL     1       3.128   3.176  20.290  0.00  0.00    +0.000 C 
ATOM     12  C   UNL     1       1.911   2.688  20.062  0.00  0.00    +0.000 C 
ATOM     13  C   UNL     1       1.417   2.383  18.696  0.00  0.00    +0.000 C 
ATOM     14  O   UNL     1       0.296   1.938  18.502  0.00  0.00    +0.000 OA
ATOM     15  C   UNL     1       2.362   2.582  17.585  0.00  0.00    +0.000 C 
ATOM     16  C   UNL     1       3.581   3.078  17.836  0.00  0.00    +0.000 C 
BRANCH  10  17
ATOM     17  O   UNL     1       5.222   2.659  19.386  0.00  0.00    +0.000 OA
ATOM     18  H   UNL     1       4.953   1.768  19.137  0.00  0.00    +0.000 HD
ENDBRANCH  10  17
ENDBRANCH   2  10
BRANCH   1  19
ATOM     19  S   UNL     1       2.386   6.340  18.861  0.00  0.00    +0.000 S 
ATOM     20  O   UNL     1       2.312   6.160  20.297  0.00  0.00    +0.000 OA
ATOM     21  O   UNL     1       1.629   5.489  17.959  0.00  0.00    +0.000 OA
BRANCH  19  25
ATOM     22  C   UNL     1       1.618  10.955  18.900  0.00  0.00    +0.000 A 
ATOM     23  C   UNL     1       2.300  10.338  17.848  0.00  0.00    +0.000 A 
ATOM     24  C   UNL     1       2.375   8.920  17.726  0.00  0.00    +0.000 A 
ATOM     25  C   UNL     1       1.742   8.051  18.644  0.00  0.00    +0.000 A 
ATOM     26  C   UNL     1       1.087   8.676  19.719  0.00  0.00    +0.000 A 
ATOM     27  C   UNL     1       1.019  10.098  19.838  0.00  0.00    +0.000 A 
BRANCH  22  30
ATOM     28  C   UNL     1       1.894  13.063  20.247  0.00  0.00    +0.000 C 
ATOM     29  O   UNL     1       2.383  12.601  21.266  0.00  0.00    +0.000 OA
ATOM     30  N   UNL     1       1.569  12.368  19.099  0.00  0.00    +0.000 N 
ATOM     31  H   UNL     1       1.265  12.953  18.332  0.00  0.00    +0.000 HD
BRANCH  28  32
ATOM     32  O   UNL     1       1.594  14.395  20.107  0.00  0.00    +0.000 OA
BRANCH  32  34
ATOM     33  C   UNL     1      -0.388  15.454  19.173  0.00  0.00    +0.000 C 
ATOM     34  C   UNL     1       0.933  14.765  18.871  0.00  0.00    +0.000 C 
ENDBRANCH  32  34
ENDBRANCH  28  32
ENDBRANCH  22  30
ENDBRANCH  19  25
ENDBRANCH   1  19
TORSDOF 7
ENDMDL
MODEL 4
REMARK VINA RESULT:      -8.5      1.348      1.513
REMARK  Name = 
REMARK  8 active torsions:
REMARK  status: ('A' for Active; 'I' for Inactive)
REMARK    1  A    between atoms: C_1  and  C_2
REMARK    2  A    between atoms: C_2  and  O_3
REMARK    3  A    between atoms: O_3  and  C_4
REMARK    4  A    between atoms: N_6  and  C_7
REMARK    5  A    between atoms: C_10  and  S_11
REMARK    6  A    between atoms: S_11  and  N_14
REMARK    7  A    between atoms: C_15  and  C_16
REMARK    8  A    between atoms: C_16  and  O_17
REMARK                            x       y       z     vdW  Elec       q    Type
REMARK                         _______ _______ _______ _____ _____    ______ ____
ROOT
ATOM      1  N   UNL     1       4.179   5.816  18.755  0.00  0.00    +0.000 N 
ATOM      2  C   UNL     1       4.786   4.790  19.509  0.00  0.00    +0.000 A 
ATOM      3  C   UNL     1       6.067   5.354  19.496  0.00  0.00    +0.000 A 
ATOM      4  C   UNL     1       6.258   5.447  18.079  0.00  0.00    +0.000 A 
ATOM      5  C   UNL     1       7.375   5.043  17.315  0.00  0.00    +0.000 A 
ATOM      6  C   UNL     1       7.119   4.400  16.111  0.00  0.00    +0.000 A 
ATOM      7  C   UNL     1       5.817   4.362  15.609  0.00  0.00    +0.000 A 
ATOM      8  C   UNL     1       4.721   5.040  16.235  0.00  0.00    +0.000 A 
ATOM      9  C   UNL     1       4.932   5.560  17.540  0.00  0.00    +0.000 A 
ENDROOT
BRANCH   2  10
ATOM     10  C   UNL     1       4.253   3.329  19.324  0.00  0.00    +0.000 C 
ATOM     11  C   UNL     1       3.294   2.961  20.438  0.00  0.00    +0.000 C 
ATOM     12  C   UNL     1       2.063   2.502  20.232  0.00  0.00    +0.000 C 
ATOM     13  C   UNL     1       1.525   2.244  18.872  0.00  0.00    +0.000 C 
ATOM     14  O   UNL     1       0.390   1.825  18.698  0.00  0.00    +0.000 OA
ATOM     15  C   UNL     1       2.441   2.459  17.741  0.00  0.00    +0.000 C 
ATOM     16  C   UNL     1       3.676   2.927  17.970  0.00  0.00    +0.000 C 
BRANCH  10  17
ATOM     17  O   UNL     1       5.352   2.434  19.460  0.00  0.00    +0.000 OA
ATOM     18  H   UNL     1       5.732   2.288  18.587  0.00  0.00    +0.000 HD
ENDBRANCH  10  17
ENDBRANCH   2  10
BRANCH   1  19
ATOM     19  S   UNL     1       2.542   6.168  19.283  0.00  0.00    +0.000 S 
ATOM     20  O   UNL     1       2.592   5.922  20.710  0.00  0.00    +0.000 OA
ATOM     21  O   UNL     1       1.697   5.365  18.414  0.00  0.00    +0.000 OA
BRANCH  19  25
ATOM     22  C   UNL     1      -0.042  10.053  18.947  0.00  0.00    +0.000 A 
ATOM     23  C   UNL     1       0.280   9.497  20.188  0.00  0.00    +0.000 A 
ATOM     24  C   UNL     1       1.218   8.432  20.316  0.00  0.00    +0.000 A 
ATOM     25  C   UNL     1       1.901   7.892  19.202  0.00  0.00    +0.000 A 
ATOM     26  C   UNL     1       1.548   8.432  17.953  0.00  0.00    +0.000 A 
ATOM     27  C   UNL     1       0.603   9.496  17.831  0.00  0.00    +0.000 A 
BRANCH  22  30
ATOM     28  C   UNL     1      -2.349  10.911  18.423  0.00  0.00    +0.000 C 
ATOM     29  O   UNL     1      -2.951   9.853  18.322  0.00  0.00    +0.000 OA
ATOM     30  N   UNL     1      -1.021  11.077  18.763  0.00  0.00    +0.000 N 
ATOM     31  H   UNL     1      -0.741  12.040  18.887  0.00  0.00    +0.000 HD
BRANCH  28  32
ATOM     32  O   UNL     1      -2.946  12.127  18.203  0.00  0.00    +0.000 OA
BRANCH  32  34
ATOM     33  C   UNL     1      -5.328  12.424  18.607  0.00  0.00    +0.000 C 
ATOM     34  C   UNL     1      -4.256  12.082  17.584  0.00  0.00    +0.000 C 
ENDBRANCH  32  34
ENDBRANCH  28  32
ENDBRANCH  22  30
ENDBRANCH  19  25
ENDBRANCH   1  19
TORSDOF 7
ENDMDL
MODEL 5
REMARK VINA RESULT:      -8.3      1.114      1.212
REMARK  Name = 
REMARK  8 active torsions:
REMARK  status: ('A' for Active; 'I' for Inactive)
REMARK    1  A    between atoms: C_1  and  C_2
REMARK    2  A    between atoms: C_2  and  O_3
REMARK    3  A    between atoms: O_3  and  C_4
REMARK    4  A    between atoms: N_6  and  C_7
REMARK    5  A    between atoms: C_10  and  S_11
REMARK    6  A    between atoms: S_11  and  N_14
REMARK    7  A    between atoms: C_15  and  C_16
REMARK    8  A    between atoms: C_16  and  O_17
REMARK                            x       y       z     vdW  Elec       q    Type
REMARK                         _______ _______ _______ _____ _____    ______ ____
ROOT
ATOM      1  N   UNL     1       4.087   6.230  18.681  0.00  0.00    +0.000 N 
ATOM      2  C   UNL     1       4.580   5.018  19.206  0.00  0.00    +0.000 A 
ATOM      3  C   UNL     1       5.872   5.496  19.454  0.00  0.00    +0.000 A 
ATOM      4  C   UNL     1       6.212   5.925  18.130  0.00  0.00    +0.000 A 
ATOM      5  C   UNL     1       7.389   5.663  17.397  0.00  0.00    +0.000 A 
ATOM      6  C   UNL     1       7.240   5.352  16.051  0.00  0.00    +0.000 A 
ATOM      7  C   UNL     1       5.997   5.510  15.437  0.00  0.00    +0.000 A 
ATOM      8  C   UNL     1       4.863   6.071  16.108  0.00  0.00    +0.000 A 
ATOM      9  C   UNL     1       4.953   6.241  17.516  0.00  0.00    +0.000 A 
ENDROOT
BRANCH   2  10
ATOM     10  C   UNL     1       4.026   3.680  18.612  0.00  0.00    +0.000 C 
ATOM     11  C   UNL     1       3.461   2.798  19.707  0.00  0.00    +0.000 C 
ATOM     12  C   UNL     1       2.229   2.295  19.690  0.00  0.00    +0.000 C 
ATOM     13  C   UNL     1       1.299   2.503  18.552  0.00  0.00    +0.000 C 
ATOM     14  O   UNL     1       0.169   2.039  18.551  0.00  0.00    +0.000 OA
ATOM     15  C   UNL     1       1.819   3.246  17.392  0.00  0.00    +0.000 C 
ATOM     16  C   UNL     1       3.062   3.747  17.432  0.00  0.00    +0.000 C 
BRANCH  10  17
ATOM     17  O   UNL     1       5.119   2.950  18.065  0.00  0.00    +0.000 OA
ATOM     18  H   UNL     1       5.377   2.273  18.700  0.00  0.00    +0.000 HD
ENDBRANCH  10  17
ENDBRANCH   2  10
BRANCH   1  19
ATOM     19  S   UNL     1       2.414   6.530  19.127  0.00  0.00    +0.000 S 
ATOM     20  O   UNL     1       2.181   5.584  20.199  0.00  0.00    +0.000 OA
ATOM     21  O   UNL     1       1.681   6.440  17.875  0.00  0.00    +0.000 OA
BRANCH  19  25
ATOM     22  C   UNL     1       0.215  10.199  21.022  0.00  0.00    +0.000 A 
ATOM     23  C   UNL     1       0.751   9.180  21.815  0.00  0.00    +0.000 A 
ATOM     24  C   UNL     1       1.585   8.160  21.271  0.00  0.00    +0.000 A 
ATOM     25  C   UNL     1       1.944   8.132  19.904  0.00  0.00    +0.000 A 
ATOM     26  C   UNL     1       1.374   9.138  19.105  0.00  0.00    +0.000 A 
ATOM     27  C   UNL     1       0.535  10.154  19.656  0.00  0.00    +0.000 A 
BRANCH  22  30
ATOM     28  C   UNL     1      -0.358  12.498  21.868  0.00  0.00    +0.000 C 
ATOM     29  O   UNL     1       0.724  13.050  21.731  0.00  0.00    +0.000 OA
ATOM     30  N   UNL     1      -0.675  11.203  21.510  0.00  0.00    +0.000 N 
ATOM     31  H   UNL     1      -1.653  10.971  21.617  0.00  0.00    +0.000 HD
BRANCH  28  32
ATOM     32  O   UNL     1      -1.446  13.128  22.418  0.00  0.00    +0.000 OA
BRANCH  32  34
ATOM     33  C   UNL     1      -3.128  13.823  20.802  0.00  0.00    +0.000 C 
ATOM     34  C   UNL     1      -1.961  14.260  21.673  0.00  0.00    +0.000 C 
ENDBRANCH  32  34
ENDBRANCH  28  32
ENDBRANCH  22  30
ENDBRANCH  19  25
ENDBRANCH   1  19
TORSDOF 7
ENDMDL
MODEL 6
REMARK VINA RESULT:      -7.9      2.215      4.341
REMARK  Name = 
REMARK  8 active torsions:
REMARK  status: ('A' for Active; 'I' for Inactive)
REMARK    1  A    between atoms: C_1  and  C_2
REMARK    2  A    between atoms: C_2  and  O_3
REMARK    3  A    between atoms: O_3  and  C_4
REMARK    4  A    between atoms: N_6  and  C_7
REMARK    5  A    between atoms: C_10  and  S_11
REMARK    6  A    between atoms: S_11  and  N_14
REMARK    7  A    between atoms: C_15  and  C_16
REMARK    8  A    between atoms: C_16  and  O_17
REMARK                            x       y       z     vdW  Elec       q    Type
REMARK                         _______ _______ _______ _____ _____    ______ ____
ROOT
ATOM      1  N   UNL     1       1.693   5.925  19.098  0.00  0.00    +0.000 N 
ATOM      2  C   UNL     1       2.354   5.457  17.944  0.00  0.00    +0.000 A 
ATOM      3  C   UNL     1       1.357   4.545  17.579  0.00  0.00    +0.000 A 
ATOM      4  C   UNL     1       1.316   3.764  18.780  0.00  0.00    +0.000 A 
ATOM      5  C   UNL     1       1.335   2.359  18.915  0.00  0.00    +0.000 A 
ATOM      6  C   UNL     1       2.124   1.832  19.930  0.00  0.00    +0.000 A 
ATOM      7  C   UNL     1       2.684   2.682  20.884  0.00  0.00    +0.000 A 
ATOM      8  C   UNL     1       2.415   4.088  20.928  0.00  0.00    +0.000 A 
ATOM      9  C   UNL     1       1.749   4.663  19.813  0.00  0.00    +0.000 A 
ENDROOT
BRANCH   2  10
ATOM     10  C   UNL     1       3.918   5.385  17.971  0.00  0.00    +0.000 C 
ATOM     11  C   UNL     1       4.402   4.027  17.504  0.00  0.00    +0.000 C 
ATOM     12  C   UNL     1       5.285   3.854  16.524  0.00  0.00    +0.000 C 
ATOM     13  C   UNL     1       5.934   4.991  15.825  0.00  0.00    +0.000 C 
ATOM     14  O   UNL     1       6.740   4.817  14.924  0.00  0.00    +0.000 OA
ATOM     15  C   UNL     1       5.609   6.344  16.307  0.00  0.00    +0.000 C 
ATOM     16  C   UNL     1       4.714   6.496  17.293  0.00  0.00    +0.000 C 
BRANCH  10  17
ATOM     17  O   UNL     1       4.344   5.493  19.325  0.00  0.00    +0.000 OA
ATOM     18  H   UNL     1       4.554   6.417  19.503  0.00  0.00    +0.000 HD
ENDBRANCH  10  17
ENDBRANCH   2  10
BRANCH   1  19
ATOM     19  S   UNL     1       1.934   7.644  19.367  0.00  0.00    +0.000 S 
ATOM     20  O   UNL     1       1.952   8.192  18.026  0.00  0.00    +0.000 OA
ATOM     21  O   UNL     1       3.107   7.719  20.222  0.00  0.00    +0.000 OA
BRANCH  19  25
ATOM     22  C   UNL     1      -0.572  10.634  21.949  0.00  0.00    +0.000 A 
ATOM     23  C   UNL     1      -0.181  10.948  20.644  0.00  0.00    +0.000 A 
ATOM     24  C   UNL     1       0.414   9.981  19.782  0.00  0.00    +0.000 A 
ATOM     25  C   UNL     1       0.617   8.640  20.182  0.00  0.00    +0.000 A 
ATOM     26  C   UNL     1       0.253   8.339  21.505  0.00  0.00    +0.000 A 
ATOM     27  C   UNL     1      -0.337   9.314  22.366  0.00  0.00    +0.000 A 
BRANCH  22  30
ATOM     28  C   UNL     1      -2.195  12.418  22.669  0.00  0.00    +0.000 C 
ATOM     29  O   UNL     1      -2.950  12.418  21.709  0.00  0.00    +0.000 OA
ATOM     30  N   UNL     1      -1.113  11.584  22.868  0.00  0.00    +0.000 N 
ATOM     31  H   UNL     1      -0.675  11.680  23.775  0.00  0.00    +0.000 HD
BRANCH  28  32
ATOM     32  O   UNL     1      -2.336  13.286  23.723  0.00  0.00    +0.000 OA
BRANCH  32  34
ATOM     33  C   UNL     1      -4.362  12.465  24.793  0.00  0.00    +0.000 C 
ATOM     34  C   UNL     1      -3.699  13.631  24.076  0.00  0.00    +0.000 C 
ENDBRANCH  32  34
ENDBRANCH  28  32
ENDBRANCH  22  30
ENDBRANCH  19  25
ENDBRANCH   1  19
TORSDOF 7
ENDMDL
MODEL 7
REMARK VINA RESULT:      -7.8      2.582      9.381
REMARK  Name = 
REMARK  8 active torsions:
REMARK  status: ('A' for Active; 'I' for Inactive)
REMARK    1  A    between atoms: C_1  and  C_2
REMARK    2  A    between atoms: C_2  and  O_3
REMARK    3  A    between atoms: O_3  and  C_4
REMARK    4  A    between atoms: N_6  and  C_7
REMARK    5  A    between atoms: C_10  and  S_11
REMARK    6  A    between atoms: S_11  and  N_14
REMARK    7  A    between atoms: C_15  and  C_16
REMARK    8  A    between atoms: C_16  and  O_17
REMARK                            x       y       z     vdW  Elec       q    Type
REMARK                         _______ _______ _______ _____ _____    ______ ____
ROOT
ATOM      1  N   UNL     1      -1.337  10.703  19.635  0.00  0.00    +0.000 N 
ATOM      2  C   UNL     1      -1.440  12.101  19.488  0.00  0.00    +0.000 A 
ATOM      3  C   UNL     1      -2.839  12.136  19.522  0.00  0.00    +0.000 A 
ATOM      4  C   UNL     1      -3.114  11.251  18.429  0.00  0.00    +0.000 A 
ATOM      5  C   UNL     1      -4.003  11.439  17.349  0.00  0.00    +0.000 A 
ATOM      6  C   UNL     1      -3.561  11.050  16.091  0.00  0.00    +0.000 A 
ATOM      7  C   UNL     1      -2.379  10.318  15.968  0.00  0.00    +0.000 A 
ATOM      8  C   UNL     1      -1.627   9.858  17.096  0.00  0.00    +0.000 A 
ATOM      9  C   UNL     1      -1.973  10.381  18.371  0.00  0.00    +0.000 A 
ENDROOT
BRANCH   2  10
ATOM     10  C   UNL     1      -0.369  12.828  18.607  0.00  0.00    +0.000 C 
ATOM     11  C   UNL     1      -0.065  14.207  19.159  0.00  0.00    +0.000 C 
ATOM     12  C   UNL     1       1.161  14.633  19.451  0.00  0.00    +0.000 C 
ATOM     13  C   UNL     1       2.371  13.809  19.204  0.00  0.00    +0.000 C 
ATOM     14  O   UNL     1       3.491  14.211  19.481  0.00  0.00    +0.000 OA
ATOM     15  C   UNL     1       2.168  12.504  18.554  0.00  0.00    +0.000 C 
ATOM     16  C   UNL     1       0.924  12.093  18.272  0.00  0.00    +0.000 C 
BRANCH  10  17
ATOM     17  O   UNL     1      -0.930  13.052  17.318  0.00  0.00    +0.000 OA
ATOM     18  H   UNL     1      -0.900  12.223  16.828  0.00  0.00    +0.000 HD
ENDBRANCH  10  17
ENDBRANCH   2  10
BRANCH   1  19
ATOM     19  S   UNL     1       0.038  10.225  20.619  0.00  0.00    +0.000 S 
ATOM     20  O   UNL     1      -0.557   9.385  21.638  0.00  0.00    +0.000 OA
ATOM     21  O   UNL     1       0.691  11.477  20.966  0.00  0.00    +0.000 OA
BRANCH  19  25
ATOM     22  C   UNL     1       2.488   6.826  18.537  0.00  0.00    +0.000 A 
ATOM     23  C   UNL     1       2.114   7.982  17.848  0.00  0.00    +0.000 A 
ATOM     24  C   UNL     1       1.538   9.104  18.512  0.00  0.00    +0.000 A 
ATOM     25  C   UNL     1       1.337   9.128  19.911  0.00  0.00    +0.000 A 
ATOM     26  C   UNL     1       1.683   7.950  20.595  0.00  0.00    +0.000 A 
ATOM     27  C   UNL     1       2.255   6.827  19.922  0.00  0.00    +0.000 A 
BRANCH  22  30
ATOM     28  C   UNL     1       2.324   4.496  17.601  0.00  0.00    +0.000 C 
ATOM     29  O   UNL     1       1.124   4.304  17.720  0.00  0.00    +0.000 OA
ATOM     30  N   UNL     1       3.009   5.655  17.907  0.00  0.00    +0.000 N 
ATOM     31  H   UNL     1       3.985   5.643  17.644  0.00  0.00    +0.000 HD
BRANCH  28  32
ATOM     32  O   UNL     1       3.184   3.539  17.124  0.00  0.00    +0.000 OA
BRANCH  32  34
ATOM     33  C   UNL     1       3.694   2.445  19.237  0.00  0.00    +0.000 C 
ATOM     34  C   UNL     1       3.164   2.269  17.823  0.00  0.00    +0.000 C 
ENDBRANCH  32  34
ENDBRANCH  28  32
ENDBRANCH  22  30
ENDBRANCH  19  25
ENDBRANCH   1  19
TORSDOF 7
ENDMDL
MODEL 8
REMARK VINA RESULT:      -7.8      2.185      4.389
REMARK  Name = 
REMARK  8 active torsions:
REMARK  status: ('A' for Active; 'I' for Inactive)
REMARK    1  A    between atoms: C_1  and  C_2
REMARK    2  A    between atoms: C_2  and  O_3
REMARK    3  A    between atoms: O_3  and  C_4
REMARK    4  A    between atoms: N_6  and  C_7
REMARK    5  A    between atoms: C_10  and  S_11
REMARK    6  A    between atoms: S_11  and  N_14
REMARK    7  A    between atoms: C_15  and  C_16
REMARK    8  A    between atoms: C_16  and  O_17
REMARK                            x       y       z     vdW  Elec       q    Type
REMARK                         _______ _______ _______ _____ _____    ______ ____
ROOT
ATOM      1  N   UNL     1       2.180   5.692  18.670  0.00  0.00    +0.000 N 
ATOM      2  C   UNL     1       2.704   4.833  17.682  0.00  0.00    +0.000 A 
ATOM      3  C   UNL     1       1.507   4.146  17.452  0.00  0.00    +0.000 A 
ATOM      4  C   UNL     1       1.255   3.681  18.784  0.00  0.00    +0.000 A 
ATOM      5  C   UNL     1       0.907   2.380  19.208  0.00  0.00    +0.000 A 
ATOM      6  C   UNL     1       1.523   1.904  20.358  0.00  0.00    +0.000 A 
ATOM      7  C   UNL     1       2.280   2.770  21.148  0.00  0.00    +0.000 A 
ATOM      8  C   UNL     1       2.385   4.173  20.883  0.00  0.00    +0.000 A 
ATOM      9  C   UNL     1       1.899   4.642  19.633  0.00  0.00    +0.000 A 
ENDROOT
BRANCH   2  10
ATOM     10  C   UNL     1       4.195   4.376  17.822  0.00  0.00    +0.000 C 
ATOM     11  C   UNL     1       5.023   4.876  16.656  0.00  0.00    +0.000 C 
ATOM     12  C   UNL     1       6.143   5.582  16.793  0.00  0.00    +0.000 C 
ATOM     13  C   UNL     1       6.728   5.899  18.120  0.00  0.00    +0.000 C 
ATOM     14  O   UNL     1       7.755   6.551  18.230  0.00  0.00    +0.000 OA
ATOM     15  C   UNL     1       6.048   5.341  19.300  0.00  0.00    +0.000 C 
ATOM     16  C   UNL     1       4.919   4.636  19.139  0.00  0.00    +0.000 C 
BRANCH  10  17
ATOM     17  O   UNL     1       4.235   2.956  17.733  0.00  0.00    +0.000 OA
ATOM     18  H   UNL     1       3.353   2.643  17.503  0.00  0.00    +0.000 HD
ENDBRANCH  10  17
ENDBRANCH   2  10
BRANCH   1  19
ATOM     19  S   UNL     1       2.858   7.310  18.591  0.00  0.00    +0.000 S 
ATOM     20  O   UNL     1       3.270   7.431  17.207  0.00  0.00    +0.000 OA
ATOM     21  O   UNL     1       3.832   7.351  19.670  0.00  0.00    +0.000 OA
BRANCH  19  25
ATOM     22  C   UNL     1      -0.710  10.313  18.964  0.00  0.00    +0.000 A 
ATOM     23  C   UNL     1      -0.154   9.699  20.089  0.00  0.00    +0.000 A 
ATOM     24  C   UNL     1       1.048   8.935  20.014  0.00  0.00    +0.000 A 
ATOM     25  C   UNL     1       1.765   8.776  18.807  0.00  0.00    +0.000 A 
ATOM     26  C   UNL     1       1.183   9.367  17.672  0.00  0.00    +0.000 A 
ATOM     27  C   UNL     1      -0.024  10.127  17.753  0.00  0.00    +0.000 A 
BRANCH  22  30
ATOM     28  C   UNL     1      -3.072  10.772  18.228  0.00  0.00    +0.000 C 
ATOM     29  O   UNL     1      -3.256   9.811  17.496  0.00  0.00    +0.000 OA
ATOM     30  N   UNL     1      -1.943  11.034  18.977  0.00  0.00    +0.000 N 
ATOM     31  H   UNL     1      -2.029  11.831  19.593  0.00  0.00    +0.000 HD
BRANCH  28  32
ATOM     32  O   UNL     1      -4.011  11.756  18.409  0.00  0.00    +0.000 OA
BRANCH  32  34
ATOM     33  C   UNL     1      -6.364  11.160  18.233  0.00  0.00    +0.000 C 
ATOM     34  C   UNL     1      -5.147  11.715  17.509  0.00  0.00    +0.000 C 
ENDBRANCH  32  34
ENDBRANCH  28  32
ENDBRANCH  22  30
ENDBRANCH  19  25
ENDBRANCH   1  19
TORSDOF 7
ENDMDL
MODEL 9
REMARK VINA RESULT:      -7.7      2.474      9.436
REMARK  Name = 
REMARK  8 active torsions:
REMARK  status: ('A' for Active; 'I' for Inactive)
REMARK    1  A    between atoms: C_1  and  C_2
REMARK    2  A    between atoms: C_2  and  O_3
REMARK    3  A    between atoms: O_3  and  C_4
REMARK    4  A    between atoms: N_6  and  C_7
REMARK    5  A    between atoms: C_10  and  S_11
REMARK    6  A    between atoms: S_11  and  N_14
REMARK    7  A    between atoms: C_15  and  C_16
REMARK    8  A    between atoms: C_16  and  O_17
REMARK                            x       y       z     vdW  Elec       q    Type
REMARK                         _______ _______ _______ _____ _____    ______ ____
ROOT
ATOM      1  N   UNL     1      -1.347  10.758  19.665  0.00  0.00    +0.000 N 
ATOM      2  C   UNL     1      -1.440  12.156  19.508  0.00  0.00    +0.000 A 
ATOM      3  C   UNL     1      -2.838  12.204  19.556  0.00  0.00    +0.000 A 
ATOM      4  C   UNL     1      -3.131  11.313  18.473  0.00  0.00    +0.000 A 
ATOM      5  C   UNL     1      -4.030  11.501  17.400  0.00  0.00    +0.000 A 
ATOM      6  C   UNL     1      -3.604  11.098  16.141  0.00  0.00    +0.000 A 
ATOM      7  C   UNL     1      -2.430  10.354  16.011  0.00  0.00    +0.000 A 
ATOM      8  C   UNL     1      -1.671   9.896  17.135  0.00  0.00    +0.000 A 
ATOM      9  C   UNL     1      -1.999  10.432  18.410  0.00  0.00    +0.000 A 
ENDROOT
BRANCH   2  10
ATOM     10  C   UNL     1      -0.370  12.866  18.610  0.00  0.00    +0.000 C 
ATOM     11  C   UNL     1      -0.055  14.249  19.143  0.00  0.00    +0.000 C 
ATOM     12  C   UNL     1       1.175  14.672  19.421  0.00  0.00    +0.000 C 
ATOM     13  C   UNL     1       2.379  13.838  19.176  0.00  0.00    +0.000 C 
ATOM     14  O   UNL     1       3.503  14.238  19.440  0.00  0.00    +0.000 OA
ATOM     15  C   UNL     1       2.164  12.526  18.543  0.00  0.00    +0.000 C 
ATOM     16  C   UNL     1       0.916  12.119  18.275  0.00  0.00    +0.000 C 
BRANCH  10  17
ATOM     17  O   UNL     1      -0.940  13.077  17.323  0.00  0.00    +0.000 OA
ATOM     18  H   UNL     1      -0.363  13.673  16.832  0.00  0.00    +0.000 HD
ENDBRANCH  10  17
ENDBRANCH   2  10
BRANCH   1  19
ATOM     19  S   UNL     1       0.033  10.275  20.638  0.00  0.00    +0.000 S 
ATOM     20  O   UNL     1      -0.556   9.426  21.654  0.00  0.00    +0.000 OA
ATOM     21  O   UNL     1       0.685  11.525  20.992  0.00  0.00    +0.000 OA
BRANCH  19  25
ATOM     22  C   UNL     1       2.478   6.894  18.522  0.00  0.00    +0.000 A 
ATOM     23  C   UNL     1       2.098   8.054  17.842  0.00  0.00    +0.000 A 
ATOM     24  C   UNL     1       1.523   9.170  18.517  0.00  0.00    +0.000 A 
ATOM     25  C   UNL     1       1.330   9.185  19.917  0.00  0.00    +0.000 A 
ATOM     26  C   UNL     1       1.682   8.004  20.592  0.00  0.00    +0.000 A 
ATOM     27  C   UNL     1       2.253   6.886  19.909  0.00  0.00    +0.000 A 
BRANCH  22  30
ATOM     28  C   UNL     1       4.263   5.192  18.021  0.00  0.00    +0.000 C 
ATOM     29  O   UNL     1       5.130   5.559  18.800  0.00  0.00    +0.000 OA
ATOM     30  N   UNL     1       2.998   5.728  17.882  0.00  0.00    +0.000 N 
ATOM     31  H   UNL     1       2.398   5.218  17.249  0.00  0.00    +0.000 HD
BRANCH  28  32
ATOM     32  O   UNL     1       4.444   4.149  17.148  0.00  0.00    +0.000 OA
BRANCH  32  34
ATOM     33  C   UNL     1       5.535   5.268  15.282  0.00  0.00    +0.000 C 
ATOM     34  C   UNL     1       5.656   4.196  16.354  0.00  0.00    +0.000 C 
ENDBRANCH  32  34
ENDBRANCH  28  32
ENDBRANCH  22  30
ENDBRANCH  19  25
ENDBRANCH   1  19
TORSDOF 7
ENDMDL
