MODEL 1
REMARK VINA RESULT:      -6.8      0.000      0.000
REMARK  Name = 
REMARK  3 active torsions:
REMARK  status: ('A' for Active; 'I' for Inactive)
REMARK    1  A    between atoms: C_1  and  N_2
REMARK    2  A    between atoms: N_2  and  C_3
REMARK    3  A    between atoms: N_2  and  C_4
REMARK                            x       y       z     vdW  Elec       q    Type
REMARK                         _______ _______ _______ _____ _____    ______ ____
ROOT
ATOM      1  C   UNL     1       0.347  10.910  19.179  0.00  0.00    +0.000 C 
ATOM      2  C   UNL     1       0.702   9.704  19.641  0.00  0.00    +0.000 C 
ATOM      3  C   UNL     1       0.007   9.028  20.793  0.00  0.00    +0.000 C 
ATOM      4  C   UNL     1       1.179   8.352  21.483  0.00  0.00    +0.000 C 
ATOM      5  N   UNL     1       1.958   7.856  20.347  0.00  0.00    +0.000 N 
ATOM      6  C   UNL     1       1.770   8.706  19.258  0.00  0.00    +0.000 A 
ATOM      7  N   UNL     1       2.278   8.536  18.076  0.00  0.00    +0.000 NA
ATOM      8  C   UNL     1       3.006   7.360  17.920  0.00  0.00    +0.000 A 
ATOM      9  O   UNL     1       3.912   7.230  17.105  0.00  0.00    +0.000 OA
ATOM     10  C   UNL     1       2.575   6.195  18.749  0.00  0.00    +0.000 A 
ATOM     11  C   UNL     1       2.607   4.883  18.308  0.00  0.00    +0.000 A 
ATOM     12  F   UNL     1       3.136   4.558  17.113  0.00  0.00    +0.000 F 
ATOM     13  C   UNL     1       2.018   3.870  19.058  0.00  0.00    +0.000 A 
ATOM     14  C   UNL     1       1.429   4.166  20.283  0.00  0.00    +0.000 A 
ATOM     15  C   UNL     1       1.454   5.475  20.766  0.00  0.00    +0.000 A 
ATOM     16  C   UNL     1       2.007   6.507  19.998  0.00  0.00    +0.000 A 
ENDROOT
BRANCH   1  18
ATOM     17  C   UNL     1      -1.950  11.849  19.085  0.00  0.00    +0.000 C 
ATOM     18  N   UNL     1      -0.889  11.039  18.482  0.00  0.00    +0.000 N 
ATOM     19  C   UNL     1      -1.328  10.048  17.497  0.00  0.00    +0.000 C 
ENDBRANCH   1  18
TORSDOF 1
ENDMDL
MODEL 2
REMARK VINA RESULT:      -6.7      3.737      6.020
REMARK  Name = 
REMARK  3 active torsions:
REMARK  status: ('A' for Active; 'I' for Inactive)
REMARK    1  A    between atoms: C_1  and  N_2
REMARK    2  A    between atoms: N_2  and  C_3
REMARK    3  A    between atoms: N_2  and  C_4
REMARK                            x       y       z     vdW  Elec       q    Type
REMARK                         _______ _______ _______ _____ _____    ______ ____
ROOT
ATOM      1  C   UNL     1       6.664   7.045  17.189  0.00  0.00    +0.000 C 
ATOM      2  C   UNL     1       5.794   6.026  17.221  0.00  0.00    +0.000 C 
ATOM      3  C   UNL     1       6.140   4.634  16.767  0.00  0.00    +0.000 C 
ATOM      4  C   UNL     1       4.835   4.207  16.118  0.00  0.00    +0.000 C 
ATOM      5  N   UNL     1       3.842   4.742  17.049  0.00  0.00    +0.000 N 
ATOM      6  C   UNL     1       4.351   5.893  17.651  0.00  0.00    +0.000 A 
ATOM      7  N   UNL     1       3.749   6.593  18.562  0.00  0.00    +0.000 NA
ATOM      8  C   UNL     1       2.529   6.073  18.985  0.00  0.00    +0.000 A 
ATOM      9  O   UNL     1       1.626   6.760  19.446  0.00  0.00    +0.000 OA
ATOM     10  C   UNL     1       2.386   4.588  18.934  0.00  0.00    +0.000 A 
ATOM     11  C   UNL     1       1.686   3.849  19.874  0.00  0.00    +0.000 A 
ATOM     12  F   UNL     1       0.989   4.449  20.858  0.00  0.00    +0.000 F 
ATOM     13  C   UNL     1       1.749   2.460  19.873  0.00  0.00    +0.000 A 
ATOM     14  C   UNL     1       2.486   1.799  18.894  0.00  0.00    +0.000 A 
ATOM     15  C   UNL     1       3.138   2.534  17.903  0.00  0.00    +0.000 A 
ATOM     16  C   UNL     1       3.114   3.934  17.923  0.00  0.00    +0.000 A 
ENDROOT
BRANCH   1  18
ATOM     17  C   UNL     1       7.835   5.958  19.090  0.00  0.00    +0.000 C 
ATOM     18  N   UNL     1       7.756   7.039  18.105  0.00  0.00    +0.000 N 
ATOM     19  C   UNL     1       8.488   8.261  18.443  0.00  0.00    +0.000 C 
ENDBRANCH   1  18
TORSDOF 1
ENDMDL
MODEL 3
REMARK VINA RESULT:      -6.6      3.281      5.054
REMARK  Name = 
REMARK  3 active torsions:
REMARK  status: ('A' for Active; 'I' for Inactive)
REMARK    1  A    between atoms: C_1  and  N_2
REMARK    2  A    between atoms: N_2  and  C_3
REMARK    3  A    between atoms: N_2  and  C_4
REMARK                            x       y       z     vdW  Elec       q    Type
REMARK                         _______ _______ _______ _____ _____    ______ ____
ROOT
ATOM      1  C   UNL     1       1.807   6.063  20.519  0.00  0.00    +0.000 C 
ATOM      2  C   UNL     1       2.437   5.419  19.528  0.00  0.00    +0.000 C 
ATOM      3  C   UNL     1       1.748   4.980  18.264  0.00  0.00    +0.000 C 
ATOM      4  C   UNL     1       2.440   3.653  18.003  0.00  0.00    +0.000 C 
ATOM      5  N   UNL     1       3.831   3.963  18.333  0.00  0.00    +0.000 N 
ATOM      6  C   UNL     1       3.858   4.949  19.320  0.00  0.00    +0.000 A 
ATOM      7  N   UNL     1       4.930   5.489  19.812  0.00  0.00    +0.000 NA
ATOM      8  C   UNL     1       6.118   5.063  19.226  0.00  0.00    +0.000 A 
ATOM      9  O   UNL     1       7.197   5.068  19.805  0.00  0.00    +0.000 OA
ATOM     10  C   UNL     1       6.045   4.665  17.788  0.00  0.00    +0.000 A 
ATOM     11  C   UNL     1       7.055   4.905  16.871  0.00  0.00    +0.000 A 
ATOM     12  F   UNL     1       8.235   5.433  17.250  0.00  0.00    +0.000 F 
ATOM     13  C   UNL     1       6.848   4.678  15.514  0.00  0.00    +0.000 A 
ATOM     14  C   UNL     1       5.631   4.165  15.075  0.00  0.00    +0.000 A 
ATOM     15  C   UNL     1       4.634   3.857  16.000  0.00  0.00    +0.000 A 
ATOM     16  C   UNL     1       4.820   4.121  17.362  0.00  0.00    +0.000 A 
ENDROOT
BRANCH   1  18
ATOM     17  C   UNL     1       2.005   8.163  19.208  0.00  0.00    +0.000 C 
ATOM     18  N   UNL     1       1.390   7.409  20.303  0.00  0.00    +0.000 N 
ATOM     19  C   UNL     1       0.788   8.213  21.369  0.00  0.00    +0.000 C 
ENDBRANCH   1  18
TORSDOF 1
ENDMDL
MODEL 4
REMARK VINA RESULT:      -6.5      4.415      6.537
REMARK  Name = 
REMARK  3 active torsions:
REMARK  status: ('A' for Active; 'I' for Inactive)
REMARK    1  A    between atoms: C_1  and  N_2
REMARK    2  A    between atoms: N_2  and  C_3
REMARK    3  A    between atoms: N_2  and  C_4
REMARK                            x       y       z     vdW  Elec       q    Type
REMARK                         _______ _______ _______ _____ _____    ______ ____
ROOT
ATOM      1  C   UNL     1       6.868   4.244  16.047  0.00  0.00    +0.000 C 
ATOM      2  C   UNL     1       6.098   4.530  17.105  0.00  0.00    +0.000 C 
ATOM      3  C   UNL     1       6.023   5.902  17.720  0.00  0.00    +0.000 C 
ATOM      4  C   UNL     1       5.907   5.554  19.194  0.00  0.00    +0.000 C 
ATOM      5  N   UNL     1       4.991   4.413  19.167  0.00  0.00    +0.000 N 
ATOM      6  C   UNL     1       5.157   3.721  17.968  0.00  0.00    +0.000 A 
ATOM      7  N   UNL     1       4.471   2.684  17.598  0.00  0.00    +0.000 NA
ATOM      8  C   UNL     1       3.456   2.314  18.476  0.00  0.00    +0.000 A 
ATOM      9  O   UNL     1       3.028   1.171  18.571  0.00  0.00    +0.000 OA
ATOM     10  C   UNL     1       2.826   3.415  19.265  0.00  0.00    +0.000 A 
ATOM     11  C   UNL     1       1.480   3.456  19.590  0.00  0.00    +0.000 A 
ATOM     12  F   UNL     1       0.656   2.433  19.293  0.00  0.00    +0.000 F 
ATOM     13  C   UNL     1       0.925   4.596  20.162  0.00  0.00    +0.000 A 
ATOM     14  C   UNL     1       1.733   5.691  20.453  0.00  0.00    +0.000 A 
ATOM     15  C   UNL     1       3.103   5.630  20.193  0.00  0.00    +0.000 A 
ATOM     16  C   UNL     1       3.662   4.503  19.578  0.00  0.00    +0.000 A 
ENDROOT
BRANCH   1  18
ATOM     17  C   UNL     1       5.204   4.398  14.210  0.00  0.00    +0.000 C 
ATOM     18  N   UNL     1       6.503   4.771  14.774  0.00  0.00    +0.000 N 
ATOM     19  C   UNL     1       7.505   5.230  13.811  0.00  0.00    +0.000 C 
ENDBRANCH   1  18
TORSDOF 1
ENDMDL
MODEL 5
REMARK VINA RESULT:      -6.3      3.963      6.124
REMARK  Name = 
REMARK  3 active torsions:
REMARK  status: ('A' for Active; 'I' for Inactive)
REMARK    1  A    between atoms: C_1  and  N_2
REMARK    2  A    between atoms: N_2  and  C_3
REMARK    3  A    between atoms: N_2  and  C_4
REMARK                            x       y       z     vdW  Elec       q    Type
REMARK                         _______ _______ _______ _____ _____    ______ ____
ROOT
ATOM      1  C   UNL     1       6.764   7.092  16.973  0.00  0.00    +0.000 C 
ATOM      2  C   UNL     1       6.034   5.969  17.005  0.00  0.00    +0.000 C 
ATOM      3  C   UNL     1       6.636   4.594  16.884  0.00  0.00    +0.000 C 
ATOM      4  C   UNL     1       5.572   3.883  16.067  0.00  0.00    +0.000 C 
ATOM      5  N   UNL     1       4.337   4.390  16.665  0.00  0.00    +0.000 N 
ATOM      6  C   UNL     1       4.558   5.680  17.146  0.00  0.00    +0.000 A 
ATOM      7  N   UNL     1       3.687   6.407  17.776  0.00  0.00    +0.000 NA
ATOM      8  C   UNL     1       2.472   5.774  18.024  0.00  0.00    +0.000 A 
ATOM      9  O   UNL     1       1.413   6.374  18.161  0.00  0.00    +0.000 OA
ATOM     10  C   UNL     1       2.519   4.293  18.208  0.00  0.00    +0.000 A 
ATOM     11  C   UNL     1       1.714   3.602  19.099  0.00  0.00    +0.000 A 
ATOM     12  F   UNL     1       0.746   4.226  19.797  0.00  0.00    +0.000 F 
ATOM     13  C   UNL     1       1.938   2.253  19.355  0.00  0.00    +0.000 A 
ATOM     14  C   UNL     1       2.951   1.577  18.681  0.00  0.00    +0.000 A 
ATOM     15  C   UNL     1       3.721   2.249  17.732  0.00  0.00    +0.000 A 
ATOM     16  C   UNL     1       3.529   3.617  17.499  0.00  0.00    +0.000 A 
ENDROOT
BRANCH   1  18
ATOM     17  C   UNL     1       8.367   8.642  18.065  0.00  0.00    +0.000 C 
ATOM     18  N   UNL     1       7.611   7.388  18.080  0.00  0.00    +0.000 N 
ATOM     19  C   UNL     1       8.142   6.337  18.950  0.00  0.00    +0.000 C 
ENDBRANCH   1  18
TORSDOF 1
ENDMDL
MODEL 6
REMARK VINA RESULT:      -6.3      2.804      5.935
REMARK  Name = 
REMARK  3 active torsions:
REMARK  status: ('A' for Active; 'I' for Inactive)
REMARK    1  A    between atoms: C_1  and  N_2
REMARK    2  A    between atoms: N_2  and  C_3
REMARK    3  A    between atoms: N_2  and  C_4
REMARK                            x       y       z     vdW  Elec       q    Type
REMARK                         _______ _______ _______ _____ _____    ______ ____
ROOT
ATOM      1  C   UNL     1       2.961   4.566  19.826  0.00  0.00    +0.000 C 
ATOM      2  C   UNL     1       2.581   5.765  19.366  0.00  0.00    +0.000 C 
ATOM      3  C   UNL     1       2.392   6.062  17.902  0.00  0.00    +0.000 C 
ATOM      4  C   UNL     1       2.907   7.489  17.827  0.00  0.00    +0.000 C 
ATOM      5  N   UNL     1       2.360   8.076  19.050  0.00  0.00    +0.000 N 
ATOM      6  C   UNL     1       2.248   7.084  20.024  0.00  0.00    +0.000 A 
ATOM      7  N   UNL     1       1.757   7.251  21.213  0.00  0.00    +0.000 NA
ATOM      8  C   UNL     1       1.254   8.525  21.462  0.00  0.00    +0.000 A 
ATOM      9  O   UNL     1       1.189   9.019  22.581  0.00  0.00    +0.000 OA
ATOM     10  C   UNL     1       0.699   9.262  20.287  0.00  0.00    +0.000 A 
ATOM     11  C   UNL     1      -0.404  10.097  20.354  0.00  0.00    +0.000 A 
ATOM     12  F   UNL     1      -0.995  10.384  21.530  0.00  0.00    +0.000 F 
ATOM     13  C   UNL     1      -0.981  10.603  19.194  0.00  0.00    +0.000 A 
ATOM     14  C   UNL     1      -0.422  10.304  17.954  0.00  0.00    +0.000 A 
ATOM     15  C   UNL     1       0.729   9.519  17.884  0.00  0.00    +0.000 A 
ATOM     16  C   UNL     1       1.291   8.972  19.044  0.00  0.00    +0.000 A 
ENDROOT
BRANCH   1  18
ATOM     17  C   UNL     1       1.099   3.281  20.847  0.00  0.00    +0.000 C 
ATOM     18  N   UNL     1       2.042   3.480  19.745  0.00  0.00    +0.000 N 
ATOM     19  C   UNL     1       2.306   2.304  18.914  0.00  0.00    +0.000 C 
ENDBRANCH   1  18
TORSDOF 1
ENDMDL
MODEL 7
REMARK VINA RESULT:      -6.1      4.241      6.323
REMARK  Name = 
REMARK  3 active torsions:
REMARK  status: ('A' for Active; 'I' for Inactive)
REMARK    1  A    between atoms: C_1  and  N_2
REMARK    2  A    between atoms: N_2  and  C_3
REMARK    3  A    between atoms: N_2  and  C_4
REMARK                            x       y       z     vdW  Elec       q    Type
REMARK                         _______ _______ _______ _____ _____    ______ ____
ROOT
ATOM      1  C   UNL     1       6.794   5.126  16.340  0.00  0.00    +0.000 C 
ATOM      2  C   UNL     1       5.800   5.339  17.214  0.00  0.00    +0.000 C 
ATOM      3  C   UNL     1       4.838   6.491  17.100  0.00  0.00    +0.000 C 
ATOM      4  C   UNL     1       4.641   6.850  18.563  0.00  0.00    +0.000 C 
ATOM      5  N   UNL     1       4.561   5.532  19.193  0.00  0.00    +0.000 N 
ATOM      6  C   UNL     1       5.330   4.627  18.461  0.00  0.00    +0.000 A 
ATOM      7  N   UNL     1       5.445   3.360  18.716  0.00  0.00    +0.000 NA
ATOM      8  C   UNL     1       4.664   2.907  19.775  0.00  0.00    +0.000 A 
ATOM      9  O   UNL     1       4.949   1.929  20.455  0.00  0.00    +0.000 OA
ATOM     10  C   UNL     1       3.377   3.628  20.009  0.00  0.00    +0.000 A 
ATOM     11  C   UNL     1       2.212   3.007  20.428  0.00  0.00    +0.000 A 
ATOM     12  F   UNL     1       2.193   1.700  20.757  0.00  0.00    +0.000 F 
ATOM     13  C   UNL     1       1.006   3.701  20.445  0.00  0.00    +0.000 A 
ATOM     14  C   UNL     1       0.973   5.043  20.080  0.00  0.00    +0.000 A 
ATOM     15  C   UNL     1       2.154   5.694  19.722  0.00  0.00    +0.000 A 
ATOM     16  C   UNL     1       3.364   4.991  19.662  0.00  0.00    +0.000 A 
ENDROOT
BRANCH   1  18
ATOM     17  C   UNL     1       5.584   3.534  14.869  0.00  0.00    +0.000 C 
ATOM     18  N   UNL     1       6.464   4.694  15.023  0.00  0.00    +0.000 N 
ATOM     19  C   UNL     1       7.314   5.004  13.872  0.00  0.00    +0.000 C 
ENDBRANCH   1  18
TORSDOF 1
ENDMDL
MODEL 8
REMARK VINA RESULT:      -6.1      3.933      6.187
REMARK  Name = 
REMARK  3 active torsions:
REMARK  status: ('A' for Active; 'I' for Inactive)
REMARK    1  A    between atoms: C_1  and  N_2
REMARK    2  A    between atoms: N_2  and  C_3
REMARK    3  A    between atoms: N_2  and  C_4
REMARK                            x       y       z     vdW  Elec       q    Type
REMARK                         _______ _______ _______ _____ _____    ______ ____
ROOT
ATOM      1  C   UNL     1       1.761   3.141  19.352  0.00  0.00    +0.000 C 
ATOM      2  C   UNL     1       2.483   4.158  18.864  0.00  0.00    +0.000 C 
ATOM      3  C   UNL     1       2.488   5.532  19.480  0.00  0.00    +0.000 C 
ATOM      4  C   UNL     1       2.566   6.405  18.239  0.00  0.00    +0.000 C 
ATOM      5  N   UNL     1       3.523   5.672  17.409  0.00  0.00    +0.000 N 
ATOM      6  C   UNL     1       3.423   4.310  17.691  0.00  0.00    +0.000 A 
ATOM      7  N   UNL     1       4.158   3.379  17.166  0.00  0.00    +0.000 NA
ATOM      8  C   UNL     1       5.155   3.838  16.310  0.00  0.00    +0.000 A 
ATOM      9  O   UNL     1       5.621   3.169  15.396  0.00  0.00    +0.000 OA
ATOM     10  C   UNL     1       5.718   5.189  16.609  0.00  0.00    +0.000 A 
ATOM     11  C   UNL     1       7.050   5.525  16.429  0.00  0.00    +0.000 A 
ATOM     12  F   UNL     1       7.920   4.664  15.866  0.00  0.00    +0.000 F 
ATOM     13  C   UNL     1       7.544   6.737  16.901  0.00  0.00    +0.000 A 
ATOM     14  C   UNL     1       6.687   7.641  17.521  0.00  0.00    +0.000 A 
ATOM     15  C   UNL     1       5.330   7.339  17.643  0.00  0.00    +0.000 A 
ATOM     16  C   UNL     1       4.834   6.104  17.209  0.00  0.00    +0.000 A 
ENDROOT
BRANCH   1  18
ATOM     17  C   UNL     1       1.259   2.717  21.746  0.00  0.00    +0.000 C 
ATOM     18  N   UNL     1       2.149   2.561  20.595  0.00  0.00    +0.000 N 
ATOM     19  C   UNL     1       3.550   2.272  20.909  0.00  0.00    +0.000 C 
ENDBRANCH   1  18
TORSDOF 1
ENDMDL
MODEL 9
REMARK VINA RESULT:      -5.8      4.613      7.911
REMARK  Name = 
REMARK  3 active torsions:
REMARK  status: ('A' for Active; 'I' for Inactive)
REMARK    1  A    between atoms: C_1  and  N_2
REMARK    2  A    between atoms: N_2  and  C_3
REMARK    3  A    between atoms: N_2  and  C_4
REMARK                            x       y       z     vdW  Elec       q    Type
REMARK                         _______ _______ _______ _____ _____    ______ ____
ROOT
ATOM      1  C   UNL     1       0.287  10.690  18.626  0.00  0.00    +0.000 C 
ATOM      2  C   UNL     1      -1.014  10.848  18.346  0.00  0.00    +0.000 C 
ATOM      3  C   UNL     1      -1.744  10.009  17.331  0.00  0.00    +0.000 C 
ATOM      4  C   UNL     1      -2.679  11.039  16.722  0.00  0.00    +0.000 C 
ATOM      5  N   UNL     1      -3.110  11.794  17.899  0.00  0.00    +0.000 N 
ATOM      6  C   UNL     1      -2.090  11.781  18.850  0.00  0.00    +0.000 A 
ATOM      7  N   UNL     1      -2.156  12.317  20.030  0.00  0.00    +0.000 NA
ATOM      8  C   UNL     1      -3.390  12.879  20.345  0.00  0.00    +0.000 A 
ATOM      9  O   UNL     1      -3.530  13.795  21.146  0.00  0.00    +0.000 OA
ATOM     10  C   UNL     1      -4.589  12.247  19.717  0.00  0.00    +0.000 A 
ATOM     11  C   UNL     1      -5.812  12.115  20.353  0.00  0.00    +0.000 A 
ATOM     12  F   UNL     1      -6.030  12.650  21.570  0.00  0.00    +0.000 F 
ATOM     13  C   UNL     1      -6.827  11.353  19.784  0.00  0.00    +0.000 A 
ATOM     14  C   UNL     1      -6.632  10.752  18.544  0.00  0.00    +0.000 A 
ATOM     15  C   UNL     1      -5.427  10.939  17.865  0.00  0.00    +0.000 A 
ATOM     16  C   UNL     1      -4.385  11.669  18.450  0.00  0.00    +0.000 A 
ENDROOT
BRANCH   1  18
ATOM     17  C   UNL     1       0.421   9.435  20.764  0.00  0.00    +0.000 C 
ATOM     18  N   UNL     1       0.697   9.520  19.328  0.00  0.00    +0.000 N 
ATOM     19  C   UNL     1       1.777   8.662  18.837  0.00  0.00    +0.000 C 
ENDBRANCH   1  18
TORSDOF 1
ENDMDL
