MODEL 1
REMARK VINA RESULT:      -7.1      0.000      0.000
REMARK  Name = 
REMARK  6 active torsions:
REMARK  status: ('A' for Active; 'I' for Inactive)
REMARK    1  A    between atoms: C_1  and  C_2
REMARK    2  A    between atoms: C_2  and  C_3
REMARK    3  A    between atoms: C_11  and  C_13
REMARK    4  A    between atoms: C_13  and  C_14
REMARK    5  A    between atoms: C_14  and  C_15
REMARK    6  A    between atoms: C_14  and  C_16
REMARK                            x       y       z     vdW  Elec       q    Type
REMARK                         _______ _______ _______ _____ _____    ______ ____
ROOT
ATOM      1  C   UNL     1       1.692   8.872  19.255  0.00  0.00    +0.000 A 
ATOM      2  C   UNL     1       2.345   7.961  18.457  0.00  0.00    +0.000 A 
ATOM      3  C   UNL     1       2.503   6.663  19.055  0.00  0.00    +0.000 A 
ATOM      4  C   UNL     1       3.091   5.455  18.611  0.00  0.00    +0.000 A 
ATOM      5  N   UNL     1       3.760   5.303  17.416  0.00  0.00    +0.000 N 
ATOM      6  C   UNL     1       4.465   6.397  16.742  0.00  0.00    +0.000 C 
ATOM      7  C   UNL     1       5.898   5.979  16.385  0.00  0.00    +0.000 C 
ATOM      8  N   UNL     1       5.922   4.705  15.669  0.00  0.00    +0.000 N 
ATOM      9  C   UNL     1       6.378   4.683  14.366  0.00  0.00    +0.000 C 
ATOM     10  O   UNL     1       6.726   5.716  13.793  0.00  0.00    +0.000 OA
ATOM     11  C   UNL     1       5.247   3.611  16.385  0.00  0.00    +0.000 C 
ATOM     12  C   UNL     1       3.797   3.994  16.752  0.00  0.00    +0.000 C 
ATOM     13  N   UNL     1       2.982   4.373  19.427  0.00  0.00    +0.000 NA
ATOM     14  C   UNL     1       2.371   4.497  20.617  0.00  0.00    +0.000 A 
ATOM     15  N   UNL     1       1.816   5.595  21.135  0.00  0.00    +0.000 NA
ATOM     16  C   UNL     1       1.901   6.646  20.308  0.00  0.00    +0.000 A 
ATOM     17  S   UNL     1       1.233   8.163  20.739  0.00  0.00    +0.000 S 
ENDROOT
BRANCH   1  19
ATOM     18  C   UNL     1      -0.080  10.569  18.739  0.00  0.00    +0.000 C 
ATOM     19  C   UNL     1       1.406  10.305  18.926  0.00  0.00    +0.000 C 
ENDBRANCH   1  19
BRANCH   9  20
ATOM     20  C   UNL     1       6.433   3.329  13.674  0.00  0.00    +0.000 C 
BRANCH  20  21
ATOM     21  C   UNL     1       6.247   3.396  12.146  0.00  0.00    +0.000 C 
ATOM     22  C   UNL     1       6.991   2.279  11.406  0.00  0.00    +0.000 C 
ATOM     23  C   UNL     1       4.758   3.311  11.799  0.00  0.00    +0.000 C 
ENDBRANCH  20  21
ENDBRANCH   9  20
TORSDOF 3
ENDMDL
MODEL 2
REMARK VINA RESULT:      -7.0      4.644      9.270
REMARK  Name = 
REMARK  6 active torsions:
REMARK  status: ('A' for Active; 'I' for Inactive)
REMARK    1  A    between atoms: C_1  and  C_2
REMARK    2  A    between atoms: C_2  and  C_3
REMARK    3  A    between atoms: C_11  and  C_13
REMARK    4  A    between atoms: C_13  and  C_14
REMARK    5  A    between atoms: C_14  and  C_15
REMARK    6  A    between atoms: C_14  and  C_16
REMARK                            x       y       z     vdW  Elec       q    Type
REMARK                         _______ _______ _______ _____ _____    ______ ____
ROOT
ATOM      1  C   UNL     1       2.847   4.021  20.083  0.00  0.00    +0.000 A 
ATOM      2  C   UNL     1       2.236   5.243  20.247  0.00  0.00    +0.000 A 
ATOM      3  C   UNL     1       2.668   6.246  19.312  0.00  0.00    +0.000 A 
ATOM      4  C   UNL     1       2.317   7.602  19.112  0.00  0.00    +0.000 A 
ATOM      5  N   UNL     1       1.450   8.312  19.913  0.00  0.00    +0.000 N 
ATOM      6  C   UNL     1       1.243   8.020  21.334  0.00  0.00    +0.000 C 
ATOM      7  C   UNL     1       1.395   9.293  22.177  0.00  0.00    +0.000 C 
ATOM      8  N   UNL     1       0.574  10.384  21.653  0.00  0.00    +0.000 N 
ATOM      9  C   UNL     1      -0.454  10.876  22.432  0.00  0.00    +0.000 C 
ATOM     10  O   UNL     1      -0.710  10.390  23.534  0.00  0.00    +0.000 OA
ATOM     11  C   UNL     1       0.830  10.689  20.236  0.00  0.00    +0.000 C 
ATOM     12  C   UNL     1       0.677   9.430  19.356  0.00  0.00    +0.000 C 
ATOM     13  N   UNL     1       2.878   8.241  18.051  0.00  0.00    +0.000 NA
ATOM     14  C   UNL     1       3.759   7.588  17.273  0.00  0.00    +0.000 A 
ATOM     15  N   UNL     1       4.175   6.326  17.398  0.00  0.00    +0.000 NA
ATOM     16  C   UNL     1       3.590   5.698  18.427  0.00  0.00    +0.000 A 
ATOM     17  S   UNL     1       3.941   4.058  18.773  0.00  0.00    +0.000 S 
ENDROOT
BRANCH   1  19
ATOM     18  C   UNL     1       1.252   2.766  21.556  0.00  0.00    +0.000 C 
ATOM     19  C   UNL     1       2.632   2.795  20.917  0.00  0.00    +0.000 C 
ENDBRANCH   1  19
BRANCH   9  20
ATOM     20  C   UNL     1      -1.252  12.043  21.869  0.00  0.00    +0.000 C 
BRANCH  20  21
ATOM     21  C   UNL     1      -0.642  13.425  22.171  0.00  0.00    +0.000 C 
ATOM     22  C   UNL     1      -0.837  14.425  21.026  0.00  0.00    +0.000 C 
ATOM     23  C   UNL     1      -1.268  14.003  23.443  0.00  0.00    +0.000 C 
ENDBRANCH  20  21
ENDBRANCH   9  20
TORSDOF 3
ENDMDL
MODEL 3
REMARK VINA RESULT:      -7.0      3.226      8.332
REMARK  Name = 
REMARK  6 active torsions:
REMARK  status: ('A' for Active; 'I' for Inactive)
REMARK    1  A    between atoms: C_1  and  C_2
REMARK    2  A    between atoms: C_2  and  C_3
REMARK    3  A    between atoms: C_11  and  C_13
REMARK    4  A    between atoms: C_13  and  C_14
REMARK    5  A    between atoms: C_14  and  C_15
REMARK    6  A    between atoms: C_14  and  C_16
REMARK                            x       y       z     vdW  Elec       q    Type
REMARK                         _______ _______ _______ _____ _____    ______ ____
ROOT
ATOM      1  C   UNL     1       4.808   5.232  16.671  0.00  0.00    +0.000 A 
ATOM      2  C   UNL     1       4.138   6.176  17.416  0.00  0.00    +0.000 A 
ATOM      3  C   UNL     1       3.255   5.624  18.407  0.00  0.00    +0.000 A 
ATOM      4  C   UNL     1       2.396   6.202  19.372  0.00  0.00    +0.000 A 
ATOM      5  N   UNL     1       2.169   7.555  19.506  0.00  0.00    +0.000 N 
ATOM      6  C   UNL     1       2.264   8.502  18.392  0.00  0.00    +0.000 C 
ATOM      7  C   UNL     1       1.000   9.368  18.308  0.00  0.00    +0.000 C 
ATOM      8  N   UNL     1       0.678   9.974  19.599  0.00  0.00    +0.000 N 
ATOM      9  C   UNL     1       0.720  11.349  19.717  0.00  0.00    +0.000 C 
ATOM     10  O   UNL     1       1.057  12.063  18.771  0.00  0.00    +0.000 OA
ATOM     11  C   UNL     1       0.544   9.000  20.694  0.00  0.00    +0.000 C 
ATOM     12  C   UNL     1       1.804   8.116  20.813  0.00  0.00    +0.000 C 
ATOM     13  N   UNL     1       1.757   5.357  20.223  0.00  0.00    +0.000 NA
ATOM     14  C   UNL     1       1.927   4.030  20.093  0.00  0.00    +0.000 A 
ATOM     15  N   UNL     1       2.687   3.391  19.201  0.00  0.00    +0.000 NA
ATOM     16  C   UNL     1       3.337   4.236  18.389  0.00  0.00    +0.000 A 
ATOM     17  S   UNL     1       4.398   3.654  17.178  0.00  0.00    +0.000 S 
ENDROOT
BRANCH   1  19
ATOM     18  C   UNL     1       6.125   4.226  14.790  0.00  0.00    +0.000 C 
ATOM     19  C   UNL     1       5.766   5.493  15.550  0.00  0.00    +0.000 C 
ENDBRANCH   1  19
BRANCH   9  20
ATOM     20  C   UNL     1       0.332  11.941  21.064  0.00  0.00    +0.000 C 
BRANCH  20  21
ATOM     21  C   UNL     1      -1.188  12.012  21.304  0.00  0.00    +0.000 C 
ATOM     22  C   UNL     1      -1.556  12.047  22.791  0.00  0.00    +0.000 C 
ATOM     23  C   UNL     1      -1.764  13.258  20.625  0.00  0.00    +0.000 C 
ENDBRANCH  20  21
ENDBRANCH   9  20
TORSDOF 3
ENDMDL
MODEL 4
REMARK VINA RESULT:      -7.0      3.694      8.932
REMARK  Name = 
REMARK  6 active torsions:
REMARK  status: ('A' for Active; 'I' for Inactive)
REMARK    1  A    between atoms: C_1  and  C_2
REMARK    2  A    between atoms: C_2  and  C_3
REMARK    3  A    between atoms: C_11  and  C_13
REMARK    4  A    between atoms: C_13  and  C_14
REMARK    5  A    between atoms: C_14  and  C_15
REMARK    6  A    between atoms: C_14  and  C_16
REMARK                            x       y       z     vdW  Elec       q    Type
REMARK                         _______ _______ _______ _____ _____    ______ ____
ROOT
ATOM      1  C   UNL     1       4.330   6.166  17.117  0.00  0.00    +0.000 A 
ATOM      2  C   UNL     1       3.610   6.994  17.947  0.00  0.00    +0.000 A 
ATOM      3  C   UNL     1       2.881   6.305  18.976  0.00  0.00    +0.000 A 
ATOM      4  C   UNL     1       2.036   6.741  20.024  0.00  0.00    +0.000 A 
ATOM      5  N   UNL     1       1.657   8.050  20.230  0.00  0.00    +0.000 N 
ATOM      6  C   UNL     1       1.549   9.038  19.153  0.00  0.00    +0.000 C 
ATOM      7  C   UNL     1       0.187   9.742  19.198  0.00  0.00    +0.000 C 
ATOM      8  N   UNL     1      -0.105  10.262  20.532  0.00  0.00    +0.000 N 
ATOM      9  C   UNL     1      -0.220  11.627  20.705  0.00  0.00    +0.000 C 
ATOM     10  O   UNL     1      -0.047  12.406  19.767  0.00  0.00    +0.000 OA
ATOM     11  C   UNL     1      -0.035   9.243  21.593  0.00  0.00    +0.000 C 
ATOM     12  C   UNL     1       1.329   8.519  21.583  0.00  0.00    +0.000 C 
ATOM     13  N   UNL     1       1.571   5.796  20.884  0.00  0.00    +0.000 NA
ATOM     14  C   UNL     1       1.890   4.505  20.687  0.00  0.00    +0.000 A 
ATOM     15  N   UNL     1       2.651   3.995  19.716  0.00  0.00    +0.000 NA
ATOM     16  C   UNL     1       3.128   4.940  18.895  0.00  0.00    +0.000 A 
ATOM     17  S   UNL     1       4.155   4.533  17.586  0.00  0.00    +0.000 S 
ENDROOT
BRANCH   1  19
ATOM     18  C   UNL     1       5.625   5.390  15.115  0.00  0.00    +0.000 C 
ATOM     19  C   UNL     1       5.160   6.580  15.940  0.00  0.00    +0.000 C 
ENDBRANCH   1  19
BRANCH   9  20
ATOM     20  C   UNL     1      -0.573  12.122  22.099  0.00  0.00    +0.000 C 
BRANCH  20  21
ATOM     21  C   UNL     1      -1.948  12.809  22.194  0.00  0.00    +0.000 C 
ATOM     22  C   UNL     1      -2.858  12.178  23.253  0.00  0.00    +0.000 C 
ATOM     23  C   UNL     1      -1.765  14.294  22.521  0.00  0.00    +0.000 C 
ENDBRANCH  20  21
ENDBRANCH   9  20
TORSDOF 3
ENDMDL
MODEL 5
REMARK VINA RESULT:      -6.9      4.087      7.983
REMARK  Name = 
REMARK  6 active torsions:
REMARK  status: ('A' for Active; 'I' for Inactive)
REMARK    1  A    between atoms: C_1  and  C_2
REMARK    2  A    between atoms: C_2  and  C_3
REMARK    3  A    between atoms: C_11  and  C_13
REMARK    4  A    between atoms: C_13  and  C_14
REMARK    5  A    between atoms: C_14  and  C_15
REMARK    6  A    between atoms: C_14  and  C_16
REMARK                            x       y       z     vdW  Elec       q    Type
REMARK                         _______ _______ _______ _____ _____    ______ ____
ROOT
ATOM      1  C   UNL     1       3.173   3.756  20.163  0.00  0.00    +0.000 A 
ATOM      2  C   UNL     1       2.623   4.983  19.869  0.00  0.00    +0.000 A 
ATOM      3  C   UNL     1       3.374   5.748  18.912  0.00  0.00    +0.000 A 
ATOM      4  C   UNL     1       3.187   7.024  18.328  0.00  0.00    +0.000 A 
ATOM      5  N   UNL     1       2.173   7.895  18.661  0.00  0.00    +0.000 N 
ATOM      6  C   UNL     1       1.542   7.932  19.983  0.00  0.00    +0.000 C 
ATOM      7  C   UNL     1       1.525   9.363  20.536  0.00  0.00    +0.000 C 
ATOM      8  N   UNL     1       0.967  10.305  19.568  0.00  0.00    +0.000 N 
ATOM      9  C   UNL     1      -0.209  10.960  19.878  0.00  0.00    +0.000 C 
ATOM     10  O   UNL     1      -0.806  10.735  20.932  0.00  0.00    +0.000 OA
ATOM     11  C   UNL     1       1.645  10.283  18.262  0.00  0.00    +0.000 C 
ATOM     12  C   UNL     1       1.672   8.858  17.670  0.00  0.00    +0.000 C 
ATOM     13  N   UNL     1       4.074   7.408  17.372  0.00  0.00    +0.000 NA
ATOM     14  C   UNL     1       5.098   6.597  17.053  0.00  0.00    +0.000 A 
ATOM     15  N   UNL     1       5.375   5.397  17.566  0.00  0.00    +0.000 NA
ATOM     16  C   UNL     1       4.476   5.016  18.484  0.00  0.00    +0.000 A 
ATOM     17  S   UNL     1       4.602   3.498  19.264  0.00  0.00    +0.000 S 
ENDROOT
BRANCH   1  19
ATOM     18  C   UNL     1       1.143   2.883  21.350  0.00  0.00    +0.000 C 
ATOM     19  C   UNL     1       2.644   2.750  21.139  0.00  0.00    +0.000 C 
ENDBRANCH   1  19
BRANCH   9  20
ATOM     20  C   UNL     1      -0.728  11.968  18.865  0.00  0.00    +0.000 C 
BRANCH  20  21
ATOM     21  C   UNL     1      -1.985  11.504  18.105  0.00  0.00    +0.000 C 
ATOM     22  C   UNL     1      -1.989   9.998  17.821  0.00  0.00    +0.000 C 
ATOM     23  C   UNL     1      -3.239  11.858  18.909  0.00  0.00    +0.000 C 
ENDBRANCH  20  21
ENDBRANCH   9  20
TORSDOF 3
ENDMDL
MODEL 6
REMARK VINA RESULT:      -6.9      4.540      8.972
REMARK  Name = 
REMARK  6 active torsions:
REMARK  status: ('A' for Active; 'I' for Inactive)
REMARK    1  A    between atoms: C_1  and  C_2
REMARK    2  A    between atoms: C_2  and  C_3
REMARK    3  A    between atoms: C_11  and  C_13
REMARK    4  A    between atoms: C_13  and  C_14
REMARK    5  A    between atoms: C_14  and  C_15
REMARK    6  A    between atoms: C_14  and  C_16
REMARK                            x       y       z     vdW  Elec       q    Type
REMARK                         _______ _______ _______ _____ _____    ______ ____
ROOT
ATOM      1  C   UNL     1       2.309   3.776  19.614  0.00  0.00    +0.000 A 
ATOM      2  C   UNL     1       1.858   5.054  19.852  0.00  0.00    +0.000 A 
ATOM      3  C   UNL     1       2.499   6.062  19.051  0.00  0.00    +0.000 A 
ATOM      4  C   UNL     1       2.353   7.467  18.960  0.00  0.00    +0.000 A 
ATOM      5  N   UNL     1       1.525   8.221  19.763  0.00  0.00    +0.000 N 
ATOM      6  C   UNL     1       1.163   7.840  21.131  0.00  0.00    +0.000 C 
ATOM      7  C   UNL     1       1.415   9.001  22.102  0.00  0.00    +0.000 C 
ATOM      8  N   UNL     1       0.796  10.238  21.630  0.00  0.00    +0.000 N 
ATOM      9  C   UNL     1      -0.217  10.803  22.378  0.00  0.00    +0.000 C 
ATOM     10  O   UNL     1      -0.628  10.266  23.407  0.00  0.00    +0.000 OA
ATOM     11  C   UNL     1       1.209  10.625  20.271  0.00  0.00    +0.000 C 
ATOM     12  C   UNL     1       0.961   9.482  19.264  0.00  0.00    +0.000 C 
ATOM     13  N   UNL     1       3.082   8.108  18.009  0.00  0.00    +0.000 NA
ATOM     14  C   UNL     1       3.928   7.406  17.235  0.00  0.00    +0.000 A 
ATOM     15  N   UNL     1       4.157   6.091  17.266  0.00  0.00    +0.000 NA
ATOM     16  C   UNL     1       3.409   5.467  18.185  0.00  0.00    +0.000 A 
ATOM     17  S   UNL     1       3.504   3.770  18.394  0.00  0.00    +0.000 S 
ENDROOT
BRANCH   1  19
ATOM     18  C   UNL     1       1.564   2.758  21.781  0.00  0.00    +0.000 C 
ATOM     19  C   UNL     1       1.862   2.526  20.307  0.00  0.00    +0.000 C 
ENDBRANCH   1  19
BRANCH   9  20
ATOM     20  C   UNL     1      -0.800  12.116  21.876  0.00  0.00    +0.000 C 
BRANCH  20  21
ATOM     21  C   UNL     1      -2.138  11.965  21.129  0.00  0.00    +0.000 C 
ATOM     22  C   UNL     1      -3.265  12.797  21.751  0.00  0.00    +0.000 C 
ATOM     23  C   UNL     1      -1.966  12.384  19.666  0.00  0.00    +0.000 C 
ENDBRANCH  20  21
ENDBRANCH   9  20
TORSDOF 3
ENDMDL
MODEL 7
REMARK VINA RESULT:      -6.8      3.276      7.820
REMARK  Name = 
REMARK  6 active torsions:
REMARK  status: ('A' for Active; 'I' for Inactive)
REMARK    1  A    between atoms: C_1  and  C_2
REMARK    2  A    between atoms: C_2  and  C_3
REMARK    3  A    between atoms: C_11  and  C_13
REMARK    4  A    between atoms: C_13  and  C_14
REMARK    5  A    between atoms: C_14  and  C_15
REMARK    6  A    between atoms: C_14  and  C_16
REMARK                            x       y       z     vdW  Elec       q    Type
REMARK                         _______ _______ _______ _____ _____    ______ ____
ROOT
ATOM      1  C   UNL     1       4.590   4.125  17.297  0.00  0.00    +0.000 A 
ATOM      2  C   UNL     1       4.043   5.264  17.842  0.00  0.00    +0.000 A 
ATOM      3  C   UNL     1       2.971   5.016  18.766  0.00  0.00    +0.000 A 
ATOM      4  C   UNL     1       2.145   5.863  19.544  0.00  0.00    +0.000 A 
ATOM      5  N   UNL     1       2.174   7.240  19.500  0.00  0.00    +0.000 N 
ATOM      6  C   UNL     1       2.570   8.000  18.311  0.00  0.00    +0.000 C 
ATOM      7  C   UNL     1       1.516   9.062  17.972  0.00  0.00    +0.000 C 
ATOM      8  N   UNL     1       1.185   9.881  19.137  0.00  0.00    +0.000 N 
ATOM      9  C   UNL     1       1.484  11.229  19.110  0.00  0.00    +0.000 C 
ATOM     10  O   UNL     1       2.051  11.739  18.143  0.00  0.00    +0.000 OA
ATOM     11  C   UNL     1       0.748   9.099  20.306  0.00  0.00    +0.000 C 
ATOM     12  C   UNL     1       1.791   8.025  20.681  0.00  0.00    +0.000 C 
ATOM     13  N   UNL     1       1.267   5.267  20.394  0.00  0.00    +0.000 NA
ATOM     14  C   UNL     1       1.186   3.926  20.432  0.00  0.00    +0.000 A 
ATOM     15  N   UNL     1       1.896   3.048  19.719  0.00  0.00    +0.000 NA
ATOM     16  C   UNL     1       2.780   3.647  18.910  0.00  0.00    +0.000 A 
ATOM     17  S   UNL     1       3.828   2.728  17.915  0.00  0.00    +0.000 S 
ENDROOT
BRANCH   1  19
ATOM     18  C   UNL     1       5.515   5.075  15.169  0.00  0.00    +0.000 C 
ATOM     19  C   UNL     1       5.693   4.058  16.285  0.00  0.00    +0.000 C 
ENDBRANCH   1  19
BRANCH   9  20
ATOM     20  C   UNL     1       1.079  12.053  20.323  0.00  0.00    +0.000 C 
BRANCH  20  21
ATOM     21  C   UNL     1      -0.152  12.949  20.092  0.00  0.00    +0.000 C 
ATOM     22  C   UNL     1       0.185  14.241  19.340  0.00  0.00    +0.000 C 
ATOM     23  C   UNL     1      -1.214  12.181  19.302  0.00  0.00    +0.000 C 
ENDBRANCH  20  21
ENDBRANCH   9  20
TORSDOF 3
ENDMDL
MODEL 8
REMARK VINA RESULT:      -6.6      4.204      8.567
REMARK  Name = 
REMARK  6 active torsions:
REMARK  status: ('A' for Active; 'I' for Inactive)
REMARK    1  A    between atoms: C_1  and  C_2
REMARK    2  A    between atoms: C_2  and  C_3
REMARK    3  A    between atoms: C_11  and  C_13
REMARK    4  A    between atoms: C_13  and  C_14
REMARK    5  A    between atoms: C_14  and  C_15
REMARK    6  A    between atoms: C_14  and  C_16
REMARK                            x       y       z     vdW  Elec       q    Type
REMARK                         _______ _______ _______ _____ _____    ______ ____
ROOT
ATOM      1  C   UNL     1       3.125   3.852  20.219  0.00  0.00    +0.000 A 
ATOM      2  C   UNL     1       2.526   5.077  20.039  0.00  0.00    +0.000 A 
ATOM      3  C   UNL     1       3.150   5.895  19.035  0.00  0.00    +0.000 A 
ATOM      4  C   UNL     1       2.876   7.188  18.529  0.00  0.00    +0.000 A 
ATOM      5  N   UNL     1       1.892   8.024  19.010  0.00  0.00    +0.000 N 
ATOM      6  C   UNL     1       1.417   7.997  20.395  0.00  0.00    +0.000 C 
ATOM      7  C   UNL     1       1.440   9.405  21.005  0.00  0.00    +0.000 C 
ATOM      8  N   UNL     1       0.760  10.372  20.146  0.00  0.00    +0.000 N 
ATOM      9  C   UNL     1      -0.383  10.989  20.614  0.00  0.00    +0.000 C 
ATOM     10  O   UNL     1      -0.853  10.712  21.718  0.00  0.00    +0.000 OA
ATOM     11  C   UNL     1       1.284  10.414  18.771  0.00  0.00    +0.000 C 
ATOM     12  C   UNL     1       1.266   9.013  18.123  0.00  0.00    +0.000 C 
ATOM     13  N   UNL     1       3.641   7.626  17.494  0.00  0.00    +0.000 NA
ATOM     14  C   UNL     1       4.635   6.850  17.028  0.00  0.00    +0.000 A 
ATOM     15  N   UNL     1       4.989   5.637  17.457  0.00  0.00    +0.000 NA
ATOM     16  C   UNL     1       4.206   5.203  18.455  0.00  0.00    +0.000 A 
ATOM     17  S   UNL     1       4.446   3.658  19.154  0.00  0.00    +0.000 S 
ENDROOT
BRANCH   1  19
ATOM     18  C   UNL     1       1.229   2.784  21.464  0.00  0.00    +0.000 C 
ATOM     19  C   UNL     1       2.728   2.798  21.207  0.00  0.00    +0.000 C 
ENDBRANCH   1  19
BRANCH   9  20
ATOM     20  C   UNL     1      -1.032  12.025  19.708  0.00  0.00    +0.000 C 
BRANCH  20  21
ATOM     21  C   UNL     1      -0.597  13.474  19.996  0.00  0.00    +0.000 C 
ATOM     22  C   UNL     1      -0.126  14.216  18.741  0.00  0.00    +0.000 C 
ATOM     23  C   UNL     1      -1.758  14.250  20.622  0.00  0.00    +0.000 C 
ENDBRANCH  20  21
ENDBRANCH   9  20
TORSDOF 3
ENDMDL
MODEL 9
REMARK VINA RESULT:      -6.5      3.428      8.510
REMARK  Name = 
REMARK  6 active torsions:
REMARK  status: ('A' for Active; 'I' for Inactive)
REMARK    1  A    between atoms: C_1  and  C_2
REMARK    2  A    between atoms: C_2  and  C_3
REMARK    3  A    between atoms: C_11  and  C_13
REMARK    4  A    between atoms: C_13  and  C_14
REMARK    5  A    between atoms: C_14  and  C_15
REMARK    6  A    between atoms: C_14  and  C_16
REMARK                            x       y       z     vdW  Elec       q    Type
REMARK                         _______ _______ _______ _____ _____    ______ ____
ROOT
ATOM      1  C   UNL     1       4.541   5.892  16.950  0.00  0.00    +0.000 A 
ATOM      2  C   UNL     1       3.805   6.844  17.618  0.00  0.00    +0.000 A 
ATOM      3  C   UNL     1       3.064   6.333  18.738  0.00  0.00    +0.000 A 
ATOM      4  C   UNL     1       2.201   6.934  19.686  0.00  0.00    +0.000 A 
ATOM      5  N   UNL     1       1.811   8.255  19.662  0.00  0.00    +0.000 N 
ATOM      6  C   UNL     1       1.715   9.045  18.432  0.00  0.00    +0.000 C 
ATOM      7  C   UNL     1       0.348   9.736  18.338  0.00  0.00    +0.000 C 
ATOM      8  N   UNL     1       0.033  10.472  19.561  0.00  0.00    +0.000 N 
ATOM      9  C   UNL     1      -0.092  11.846  19.498  0.00  0.00    +0.000 C 
ATOM     10  O   UNL     1       0.090  12.457  18.444  0.00  0.00    +0.000 OA
ATOM     11  C   UNL     1       0.094   9.648  20.780  0.00  0.00    +0.000 C 
ATOM     12  C   UNL     1       1.461   8.944  20.911  0.00  0.00    +0.000 C 
ATOM     13  N   UNL     1       1.729   6.144  20.687  0.00  0.00    +0.000 NA
ATOM     14  C   UNL     1       2.058   4.841  20.716  0.00  0.00    +0.000 A 
ATOM     15  N   UNL     1       2.835   4.179  19.856  0.00  0.00    +0.000 NA
ATOM     16  C   UNL     1       3.320   4.976  18.893  0.00  0.00    +0.000 A 
ATOM     17  S   UNL     1       4.368   4.361  17.686  0.00  0.00    +0.000 S 
ENDROOT
BRANCH   1  19
ATOM     18  C   UNL     1       5.987   4.812  15.209  0.00  0.00    +0.000 C 
ATOM     19  C   UNL     1       5.386   6.108  15.732  0.00  0.00    +0.000 C 
ENDBRANCH   1  19
BRANCH   9  20
ATOM     20  C   UNL     1      -0.468  12.567  20.784  0.00  0.00    +0.000 C 
BRANCH  20  21
ATOM     21  C   UNL     1       0.270  13.903  20.994  0.00  0.00    +0.000 C 
ATOM     22  C   UNL     1      -0.132  14.607  22.294  0.00  0.00    +0.000 C 
ATOM     23  C   UNL     1       1.782  13.665  21.009  0.00  0.00    +0.000 C 
ENDBRANCH  20  21
ENDBRANCH   9  20
TORSDOF 3
ENDMDL
