MODEL 1
REMARK VINA RESULT:      -7.5      0.000      0.000
REMARK  Name = 
REMARK  2 active torsions:
REMARK  status: ('A' for Active; 'I' for Inactive)
REMARK    1  A    between atoms: C_5  and  C_6
REMARK    2  A    between atoms: C_9  and  C_10
REMARK                            x       y       z     vdW  Elec       q    Type
REMARK                         _______ _______ _______ _____ _____    ______ ____
ROOT
ATOM      1  C   UNL     1       5.564   4.267  17.899  0.00  0.00    +0.000 A 
ATOM      2  N   UNL     1       6.792   4.637  18.201  0.00  0.00    +0.000 NA
ATOM      3  N   UNL     1       7.464   4.785  17.005  0.00  0.00    +0.000 NA
ATOM      4  C   UNL     1       6.609   4.466  16.054  0.00  0.00    +0.000 A 
ATOM      5  O   UNL     1       5.384   4.104  16.552  0.00  0.00    +0.000 OA
ENDROOT
BRANCH   1  10
ATOM      6 CL   UNL     1       1.213   2.867  21.772  0.00  0.00    +0.000 Cl
ATOM      7  C   UNL     1       2.432   3.268  20.628  0.00  0.00    +0.000 A 
ATOM      8  C   UNL     1       3.544   2.446  20.484  0.00  0.00    +0.000 A 
ATOM      9  C   UNL     1       4.544   2.791  19.571  0.00  0.00    +0.000 A 
ATOM     10  C   UNL     1       4.449   3.958  18.787  0.00  0.00    +0.000 A 
ATOM     11  C   UNL     1       3.312   4.769  18.944  0.00  0.00    +0.000 A 
ATOM     12 CL   UNL     1       3.079   6.256  18.086  0.00  0.00    +0.000 Cl
ATOM     13  C   UNL     1       2.309   4.423  19.862  0.00  0.00    +0.000 A 
ENDBRANCH   1  10
BRANCH   4  14
ATOM     14  C   UNL     1       6.781   4.436  14.610  0.00  0.00    +0.000 A 
ATOM     15  C   UNL     1       7.702   5.297  14.004  0.00  0.00    +0.000 A 
ATOM     16  C   UNL     1       7.863   5.240  12.631  0.00  0.00    +0.000 A 
ATOM     17  N   UNL     1       7.177   4.395  11.832  0.00  0.00    +0.000 NA
ATOM     18  C   UNL     1       6.288   3.580  12.432  0.00  0.00    +0.000 A 
ATOM     19  C   UNL     1       6.053   3.563  13.796  0.00  0.00    +0.000 A 
ENDBRANCH   4  14
TORSDOF 2
ENDMDL
MODEL 2
REMARK VINA RESULT:      -7.4      0.194      1.095
REMARK  Name = 
REMARK  2 active torsions:
REMARK  status: ('A' for Active; 'I' for Inactive)
REMARK    1  A    between atoms: C_5  and  C_6
REMARK    2  A    between atoms: C_9  and  C_10
REMARK                            x       y       z     vdW  Elec       q    Type
REMARK                         _______ _______ _______ _____ _____    ______ ____
ROOT
ATOM      1  C   UNL     1       5.629   4.324  17.978  0.00  0.00    +0.000 A 
ATOM      2  N   UNL     1       6.861   4.682  18.278  0.00  0.00    +0.000 NA
ATOM      3  N   UNL     1       7.533   4.819  17.081  0.00  0.00    +0.000 NA
ATOM      4  C   UNL     1       6.674   4.505  16.132  0.00  0.00    +0.000 A 
ATOM      5  O   UNL     1       5.447   4.158  16.632  0.00  0.00    +0.000 OA
ENDROOT
BRANCH   1  10
ATOM      6 CL   UNL     1       1.260   2.933  21.833  0.00  0.00    +0.000 Cl
ATOM      7  C   UNL     1       2.484   3.338  20.696  0.00  0.00    +0.000 A 
ATOM      8  C   UNL     1       3.493   2.427  20.411  0.00  0.00    +0.000 A 
ATOM      9  C   UNL     1       4.500   2.772  19.505  0.00  0.00    +0.000 A 
ATOM     10  C   UNL     1       4.512   4.029  18.868  0.00  0.00    +0.000 A 
ATOM     11  C   UNL     1       3.476   4.931  19.166  0.00  0.00    +0.000 A 
ATOM     12 CL   UNL     1       3.386   6.528  18.499  0.00  0.00    +0.000 Cl
ATOM     13  C   UNL     1       2.468   4.585  20.077  0.00  0.00    +0.000 A 
ENDBRANCH   1  10
BRANCH   4  14
ATOM     14  C   UNL     1       6.845   4.468  14.688  0.00  0.00    +0.000 A 
ATOM     15  C   UNL     1       6.065   3.597  13.920  0.00  0.00    +0.000 A 
ATOM     16  C   UNL     1       6.231   3.591  12.546  0.00  0.00    +0.000 A 
ATOM     17  N   UNL     1       7.109   4.383  11.895  0.00  0.00    +0.000 NA
ATOM     18  C   UNL     1       7.858   5.209  12.651  0.00  0.00    +0.000 A 
ATOM     19  C   UNL     1       7.768   5.288  14.031  0.00  0.00    +0.000 A 
ENDBRANCH   4  14
TORSDOF 2
ENDMDL
MODEL 3
REMARK VINA RESULT:      -6.8      5.393      8.538
REMARK  Name = 
REMARK  2 active torsions:
REMARK  status: ('A' for Active; 'I' for Inactive)
REMARK    1  A    between atoms: C_5  and  C_6
REMARK    2  A    between atoms: C_9  and  C_10
REMARK                            x       y       z     vdW  Elec       q    Type
REMARK                         _______ _______ _______ _____ _____    ______ ____
ROOT
ATOM      1  C   UNL     1       2.341   8.150  18.185  0.00  0.00    +0.000 A 
ATOM      2  N   UNL     1       1.796   9.122  17.482  0.00  0.00    +0.000 NA
ATOM      3  N   UNL     1       1.081   9.897  18.372  0.00  0.00    +0.000 NA
ATOM      4  C   UNL     1       1.213   9.327  19.553  0.00  0.00    +0.000 A 
ATOM      5  O   UNL     1       1.986   8.196  19.505  0.00  0.00    +0.000 OA
ENDROOT
BRANCH   1  10
ATOM      6 CL   UNL     1       6.055   3.824  16.344  0.00  0.00    +0.000 Cl
ATOM      7  C   UNL     1       4.956   5.044  16.854  0.00  0.00    +0.000 A 
ATOM      8  C   UNL     1       5.152   6.362  16.457  0.00  0.00    +0.000 A 
ATOM      9  C   UNL     1       4.270   7.353  16.896  0.00  0.00    +0.000 A 
ATOM     10  C   UNL     1       3.179   7.045  17.733  0.00  0.00    +0.000 A 
ATOM     11  C   UNL     1       2.997   5.704  18.114  0.00  0.00    +0.000 A 
ATOM     12 CL   UNL     1       1.731   5.182  19.176  0.00  0.00    +0.000 Cl
ATOM     13  C   UNL     1       3.883   4.710  17.674  0.00  0.00    +0.000 A 
ENDBRANCH   1  10
BRANCH   4  14
ATOM     14  C   UNL     1       0.667   9.711  20.846  0.00  0.00    +0.000 A 
ATOM     15  C   UNL     1      -0.091  10.882  20.958  0.00  0.00    +0.000 A 
ATOM     16  C   UNL     1      -0.616  11.219  22.193  0.00  0.00    +0.000 A 
ATOM     17  N   UNL     1      -0.438  10.480  23.308  0.00  0.00    +0.000 NA
ATOM     18  C   UNL     1       0.303   9.361  23.184  0.00  0.00    +0.000 A 
ATOM     19  C   UNL     1       0.871   8.940  21.994  0.00  0.00    +0.000 A 
ENDBRANCH   4  14
TORSDOF 2
ENDMDL
MODEL 4
REMARK VINA RESULT:      -6.8      3.992      5.414
REMARK  Name = 
REMARK  2 active torsions:
REMARK  status: ('A' for Active; 'I' for Inactive)
REMARK    1  A    between atoms: C_5  and  C_6
REMARK    2  A    between atoms: C_9  and  C_10
REMARK                            x       y       z     vdW  Elec       q    Type
REMARK                         _______ _______ _______ _____ _____    ______ ____
ROOT
ATOM      1  C   UNL     1       2.520   7.027  18.315  0.00  0.00    +0.000 A 
ATOM      2  N   UNL     1       1.907   5.872  18.154  0.00  0.00    +0.000 NA
ATOM      3  N   UNL     1       2.859   4.982  17.702  0.00  0.00    +0.000 NA
ATOM      4  C   UNL     1       3.983   5.661  17.589  0.00  0.00    +0.000 A 
ATOM      5  O   UNL     1       3.836   6.977  17.943  0.00  0.00    +0.000 OA
ENDROOT
BRANCH   1  10
ATOM      6 CL   UNL     1       0.172  12.335  19.801  0.00  0.00    +0.000 Cl
ATOM      7  C   UNL     1       0.873  10.815  19.409  0.00  0.00    +0.000 A 
ATOM      8  C   UNL     1       1.458  10.623  18.163  0.00  0.00    +0.000 A 
ATOM      9  C   UNL     1       2.003   9.377  17.840  0.00  0.00    +0.000 A 
ATOM     10  C   UNL     1       1.975   8.306  18.756  0.00  0.00    +0.000 A 
ATOM     11  C   UNL     1       1.386   8.527  20.013  0.00  0.00    +0.000 A 
ATOM     12 CL   UNL     1       1.235   7.294  21.221  0.00  0.00    +0.000 Cl
ATOM     13  C   UNL     1       0.837   9.777  20.335  0.00  0.00    +0.000 A 
ENDBRANCH   1  10
BRANCH   4  14
ATOM     14  C   UNL     1       5.300   5.228  17.150  0.00  0.00    +0.000 A 
ATOM     15  C   UNL     1       5.553   5.050  15.785  0.00  0.00    +0.000 A 
ATOM     16  C   UNL     1       6.818   4.654  15.389  0.00  0.00    +0.000 A 
ATOM     17  N   UNL     1       7.834   4.427  16.247  0.00  0.00    +0.000 NA
ATOM     18  C   UNL     1       7.570   4.594  17.558  0.00  0.00    +0.000 A 
ATOM     19  C   UNL     1       6.338   4.985  18.054  0.00  0.00    +0.000 A 
ENDBRANCH   4  14
TORSDOF 2
ENDMDL
MODEL 5
REMARK VINA RESULT:      -6.8      5.407      8.571
REMARK  Name = 
REMARK  2 active torsions:
REMARK  status: ('A' for Active; 'I' for Inactive)
REMARK    1  A    between atoms: C_5  and  C_6
REMARK    2  A    between atoms: C_9  and  C_10
REMARK                            x       y       z     vdW  Elec       q    Type
REMARK                         _______ _______ _______ _____ _____    ______ ____
ROOT
ATOM      1  C   UNL     1       2.305   8.137  18.195  0.00  0.00    +0.000 A 
ATOM      2  N   UNL     1       1.689   9.036  17.454  0.00  0.00    +0.000 NA
ATOM      3  N   UNL     1       0.942   9.812  18.316  0.00  0.00    +0.000 NA
ATOM      4  C   UNL     1       1.128   9.314  19.522  0.00  0.00    +0.000 A 
ATOM      5  O   UNL     1       1.968   8.231  19.517  0.00  0.00    +0.000 OA
ENDROOT
BRANCH   1  10
ATOM      6 CL   UNL     1       6.254   3.947  16.540  0.00  0.00    +0.000 Cl
ATOM      7  C   UNL     1       5.089   5.127  16.995  0.00  0.00    +0.000 A 
ATOM      8  C   UNL     1       5.263   6.453  16.617  0.00  0.00    +0.000 A 
ATOM      9  C   UNL     1       4.327   7.413  17.011  0.00  0.00    +0.000 A 
ATOM     10  C   UNL     1       3.202   7.063  17.784  0.00  0.00    +0.000 A 
ATOM     11  C   UNL     1       3.042   5.714  18.147  0.00  0.00    +0.000 A 
ATOM     12 CL   UNL     1       1.738   5.144  19.135  0.00  0.00    +0.000 Cl
ATOM     13  C   UNL     1       3.984   4.752  17.753  0.00  0.00    +0.000 A 
ENDBRANCH   1  10
BRANCH   4  14
ATOM     14  C   UNL     1       0.580   9.731  20.804  0.00  0.00    +0.000 A 
ATOM     15  C   UNL     1       0.785   8.937  21.937  0.00  0.00    +0.000 A 
ATOM     16  C   UNL     1       0.270   9.362  23.150  0.00  0.00    +0.000 A 
ATOM     17  N   UNL     1      -0.425  10.508  23.306  0.00  0.00    +0.000 NA
ATOM     18  C   UNL     1      -0.621  11.255  22.203  0.00  0.00    +0.000 A 
ATOM     19  C   UNL     1      -0.149  10.916  20.946  0.00  0.00    +0.000 A 
ENDBRANCH   4  14
TORSDOF 2
ENDMDL
MODEL 6
REMARK VINA RESULT:      -6.8      5.589      7.818
REMARK  Name = 
REMARK  2 active torsions:
REMARK  status: ('A' for Active; 'I' for Inactive)
REMARK    1  A    between atoms: C_5  and  C_6
REMARK    2  A    between atoms: C_9  and  C_10
REMARK                            x       y       z     vdW  Elec       q    Type
REMARK                         _______ _______ _______ _____ _____    ______ ____
ROOT
ATOM      1  C   UNL     1       2.459   7.382  18.712  0.00  0.00    +0.000 A 
ATOM      2  N   UNL     1       2.212   7.364  20.007  0.00  0.00    +0.000 NA
ATOM      3  N   UNL     1       1.428   8.468  20.273  0.00  0.00    +0.000 NA
ATOM      4  C   UNL     1       1.275   9.102  19.128  0.00  0.00    +0.000 A 
ATOM      5  O   UNL     1       1.922   8.478  18.094  0.00  0.00    +0.000 OA
ENDROOT
BRANCH   1  10
ATOM      6 CL   UNL     1       6.005   3.758  15.522  0.00  0.00    +0.000 Cl
ATOM      7  C   UNL     1       4.954   4.787  16.412  0.00  0.00    +0.000 A 
ATOM      8  C   UNL     1       5.237   6.144  16.515  0.00  0.00    +0.000 A 
ATOM      9  C   UNL     1       4.393   6.970  17.262  0.00  0.00    +0.000 A 
ATOM     10  C   UNL     1       3.253   6.457  17.913  0.00  0.00    +0.000 A 
ATOM     11  C   UNL     1       2.983   5.083  17.787  0.00  0.00    +0.000 A 
ATOM     12 CL   UNL     1       1.649   4.301  18.568  0.00  0.00    +0.000 Cl
ATOM     13  C   UNL     1       3.832   4.254  17.039  0.00  0.00    +0.000 A 
ENDBRANCH   1  10
BRANCH   4  14
ATOM     14  C   UNL     1       0.551  10.326  18.824  0.00  0.00    +0.000 A 
ATOM     15  C   UNL     1       1.159  11.566  19.051  0.00  0.00    +0.000 A 
ATOM     16  C   UNL     1       0.459  12.718  18.739  0.00  0.00    +0.000 A 
ATOM     17  N   UNL     1      -0.788  12.718  18.224  0.00  0.00    +0.000 NA
ATOM     18  C   UNL     1      -1.362  11.516  18.020  0.00  0.00    +0.000 A 
ATOM     19  C   UNL     1      -0.746  10.309  18.302  0.00  0.00    +0.000 A 
ENDBRANCH   4  14
TORSDOF 2
ENDMDL
MODEL 7
REMARK VINA RESULT:      -6.8      5.557      7.872
REMARK  Name = 
REMARK  2 active torsions:
REMARK  status: ('A' for Active; 'I' for Inactive)
REMARK    1  A    between atoms: C_5  and  C_6
REMARK    2  A    between atoms: C_9  and  C_10
REMARK                            x       y       z     vdW  Elec       q    Type
REMARK                         _______ _______ _______ _____ _____    ______ ____
ROOT
ATOM      1  C   UNL     1       2.442   7.322  18.739  0.00  0.00    +0.000 A 
ATOM      2  N   UNL     1       2.258   7.357  20.044  0.00  0.00    +0.000 NA
ATOM      3  N   UNL     1       1.452   8.449  20.297  0.00  0.00    +0.000 NA
ATOM      4  C   UNL     1       1.224   9.023  19.134  0.00  0.00    +0.000 A 
ATOM      5  O   UNL     1       1.842   8.372  18.099  0.00  0.00    +0.000 OA
ENDROOT
BRANCH   1  10
ATOM      6 CL   UNL     1       5.954   3.648  15.568  0.00  0.00    +0.000 Cl
ATOM      7  C   UNL     1       4.912   4.691  16.452  0.00  0.00    +0.000 A 
ATOM      8  C   UNL     1       5.206   6.047  16.545  0.00  0.00    +0.000 A 
ATOM      9  C   UNL     1       4.370   6.885  17.288  0.00  0.00    +0.000 A 
ATOM     10  C   UNL     1       3.228   6.385  17.945  0.00  0.00    +0.000 A 
ATOM     11  C   UNL     1       2.947   5.013  17.830  0.00  0.00    +0.000 A 
ATOM     12 CL   UNL     1       1.609   4.248  18.620  0.00  0.00    +0.000 Cl
ATOM     13  C   UNL     1       3.788   4.172  17.086  0.00  0.00    +0.000 A 
ENDBRANCH   1  10
BRANCH   4  14
ATOM     14  C   UNL     1       0.448  10.210  18.810  0.00  0.00    +0.000 A 
ATOM     15  C   UNL     1      -0.799  10.075  18.189  0.00  0.00    +0.000 A 
ATOM     16  C   UNL     1      -1.529  11.216  17.907  0.00  0.00    +0.000 A 
ATOM     17  N   UNL     1      -1.107  12.464  18.196  0.00  0.00    +0.000 NA
ATOM     18  C   UNL     1       0.099  12.576  18.786  0.00  0.00    +0.000 A 
ATOM     19  C   UNL     1       0.905  11.497  19.107  0.00  0.00    +0.000 A 
ENDBRANCH   4  14
TORSDOF 2
ENDMDL
MODEL 8
REMARK VINA RESULT:      -6.8      4.031      5.401
REMARK  Name = 
REMARK  2 active torsions:
REMARK  status: ('A' for Active; 'I' for Inactive)
REMARK    1  A    between atoms: C_5  and  C_6
REMARK    2  A    between atoms: C_9  and  C_10
REMARK                            x       y       z     vdW  Elec       q    Type
REMARK                         _______ _______ _______ _____ _____    ______ ____
ROOT
ATOM      1  C   UNL     1       2.504   7.092  18.319  0.00  0.00    +0.000 A 
ATOM      2  N   UNL     1       1.902   5.929  18.170  0.00  0.00    +0.000 NA
ATOM      3  N   UNL     1       2.853   5.054  17.684  0.00  0.00    +0.000 NA
ATOM      4  C   UNL     1       3.963   5.751  17.541  0.00  0.00    +0.000 A 
ATOM      5  O   UNL     1       3.808   7.062  17.906  0.00  0.00    +0.000 OA
ENDROOT
BRANCH   1  10
ATOM      6 CL   UNL     1       0.137  12.363  19.901  0.00  0.00    +0.000 Cl
ATOM      7  C   UNL     1       0.843  10.853  19.482  0.00  0.00    +0.000 A 
ATOM      8  C   UNL     1       1.435  10.688  18.235  0.00  0.00    +0.000 A 
ATOM      9  C   UNL     1       1.984   9.449  17.889  0.00  0.00    +0.000 A 
ATOM     10  C   UNL     1       1.954   8.360  18.783  0.00  0.00    +0.000 A 
ATOM     11  C   UNL     1       1.357   8.554  20.041  0.00  0.00    +0.000 A 
ATOM     12 CL   UNL     1       1.203   7.296  21.223  0.00  0.00    +0.000 Cl
ATOM     13  C   UNL     1       0.805   9.796  20.386  0.00  0.00    +0.000 A 
ENDBRANCH   1  10
BRANCH   4  14
ATOM     14  C   UNL     1       5.272   5.339  17.060  0.00  0.00    +0.000 A 
ATOM     15  C   UNL     1       6.285   5.037  17.978  0.00  0.00    +0.000 A 
ATOM     16  C   UNL     1       7.518   4.631  17.499  0.00  0.00    +0.000 A 
ATOM     17  N   UNL     1       7.806   4.506  16.187  0.00  0.00    +0.000 NA
ATOM     18  C   UNL     1       6.823   4.810  15.317  0.00  0.00    +0.000 A 
ATOM     19  C   UNL     1       5.558   5.227  15.696  0.00  0.00    +0.000 A 
ENDBRANCH   4  14
TORSDOF 2
ENDMDL
MODEL 9
REMARK VINA RESULT:      -6.8      5.176      8.099
REMARK  Name = 
REMARK  2 active torsions:
REMARK  status: ('A' for Active; 'I' for Inactive)
REMARK    1  A    between atoms: C_5  and  C_6
REMARK    2  A    between atoms: C_9  and  C_10
REMARK                            x       y       z     vdW  Elec       q    Type
REMARK                         _______ _______ _______ _____ _____    ______ ____
ROOT
ATOM      1  C   UNL     1       2.238   7.176  18.811  0.00  0.00    +0.000 A 
ATOM      2  N   UNL     1       2.237   8.173  17.950  0.00  0.00    +0.000 NA
ATOM      3  N   UNL     1       1.693   9.259  18.606  0.00  0.00    +0.000 NA
ATOM      4  C   UNL     1       1.371   8.842  19.814  0.00  0.00    +0.000 A 
ATOM      5  O   UNL     1       1.670   7.519  20.008  0.00  0.00    +0.000 OA
ENDROOT
BRANCH   1  10
ATOM      6 CL   UNL     1       3.750   1.437  17.993  0.00  0.00    +0.000 Cl
ATOM      7  C   UNL     1       3.352   3.090  18.252  0.00  0.00    +0.000 A 
ATOM      8  C   UNL     1       2.146   3.425  18.855  0.00  0.00    +0.000 A 
ATOM      9  C   UNL     1       1.816   4.771  19.039  0.00  0.00    +0.000 A 
ATOM     10  C   UNL     1       2.686   5.801  18.627  0.00  0.00    +0.000 A 
ATOM     11  C   UNL     1       3.904   5.437  18.027  0.00  0.00    +0.000 A 
ATOM     12 CL   UNL     1       5.050   6.590  17.428  0.00  0.00    +0.000 Cl
ATOM     13  C   UNL     1       4.233   4.086  17.841  0.00  0.00    +0.000 A 
ENDBRANCH   1  10
BRANCH   4  14
ATOM     14  C   UNL     1       0.759   9.560  20.922  0.00  0.00    +0.000 A 
ATOM     15  C   UNL     1       0.381  10.897  20.756  0.00  0.00    +0.000 A 
ATOM     16  C   UNL     1      -0.216  11.556  21.817  0.00  0.00    +0.000 A 
ATOM     17  N   UNL     1      -0.457  10.981  23.014  0.00  0.00    +0.000 NA
ATOM     18  C   UNL     1      -0.079   9.696  23.158  0.00  0.00    +0.000 A 
ATOM     19  C   UNL     1       0.527   8.952  22.159  0.00  0.00    +0.000 A 
ENDBRANCH   4  14
TORSDOF 2
ENDMDL
