MODEL 1
REMARK VINA RESULT:      -7.4      0.000      0.000
REMARK  Name = 
REMARK  6 active torsions:
REMARK  status: ('A' for Active; 'I' for Inactive)
REMARK    1  A    between atoms: C_1  and  C_2
REMARK    2  A    between atoms: C_5  and  C_6
REMARK    3  A    between atoms: N_8  and  C_9
REMARK    4  A    between atoms: C_16  and  O_17
REMARK    5  A    between atoms: C_18  and  C_19
REMARK    6  A    between atoms: C_18  and  C_20
REMARK                            x       y       z     vdW  Elec       q    Type
REMARK                         _______ _______ _______ _____ _____    ______ ____
ROOT
ATOM      1  C   UNL     1       1.154   2.812  20.417  0.00  0.00    +0.000 C 
ATOM      2  C   UNL     1       2.429   3.475  19.922  0.00  0.00    +0.000 C 
ATOM      3  C   UNL     1       3.716   2.675  20.282  0.00  0.00    +0.000 C 
ATOM      4  C   UNL     1       4.777   3.262  19.325  0.00  0.00    +0.000 C 
ATOM      5  C   UNL     1       3.975   4.307  18.511  0.00  0.00    +0.000 C 
ATOM      6  C   UNL     1       3.694   5.499  19.466  0.00  0.00    +0.000 C 
ATOM      7  C   UNL     1       2.682   4.912  20.472  0.00  0.00    +0.000 C 
ATOM      8  C   UNL     1       2.563   3.625  18.374  0.00  0.00    +0.000 C 
ATOM      9  C   UNL     1       1.479   4.492  17.692  0.00  0.00    +0.000 C 
ATOM     10  C   UNL     1       2.559   2.271  17.613  0.00  0.00    +0.000 C 
ENDROOT
BRANCH   5  11
ATOM     11  C   UNL     1       4.573   4.697  17.165  0.00  0.00    +0.000 C 
ATOM     12  O   UNL     1       4.354   5.809  16.701  0.00  0.00    +0.000 OA
ATOM     13  N   UNL     1       5.338   3.746  16.508  0.00  0.00    +0.000 N 
ATOM     14  H   UNL     1       5.271   2.786  16.811  0.00  0.00    +0.000 HD
BRANCH  13  15
ATOM     15  C   UNL     1       5.987   4.002  15.268  0.00  0.00    +0.000 A 
ATOM     16  C   UNL     1       7.083   4.863  15.152  0.00  0.00    +0.000 A 
ATOM     17  C   UNL     1       7.608   5.131  13.898  0.00  0.00    +0.000 A 
ATOM     18  N   UNL     1       7.137   4.582  12.767  0.00  0.00    +0.000 NA
ATOM     19  C   UNL     1       6.106   3.723  12.901  0.00  0.00    +0.000 A 
ATOM     20  C   UNL     1       5.510   3.391  14.112  0.00  0.00    +0.000 A 
ENDBRANCH  13  15
ENDBRANCH   5  11
BRANCH   7  21
ATOM     21  O   UNL     1       1.534   5.730  20.598  0.00  0.00    +0.000 OA
ATOM     22  H   UNL     1       0.837   5.258  21.079  0.00  0.00    +0.000 HD
ENDBRANCH   7  21
TORSDOF 3
ENDMDL
MODEL 2
REMARK VINA RESULT:      -7.1      0.311      1.091
REMARK  Name = 
REMARK  6 active torsions:
REMARK  status: ('A' for Active; 'I' for Inactive)
REMARK    1  A    between atoms: C_1  and  C_2
REMARK    2  A    between atoms: C_5  and  C_6
REMARK    3  A    between atoms: N_8  and  C_9
REMARK    4  A    between atoms: C_16  and  O_17
REMARK    5  A    between atoms: C_18  and  C_19
REMARK    6  A    between atoms: C_18  and  C_20
REMARK                            x       y       z     vdW  Elec       q    Type
REMARK                         _______ _______ _______ _____ _____    ______ ____
ROOT
ATOM      1  C   UNL     1       1.102   3.291  20.470  0.00  0.00    +0.000 C 
ATOM      2  C   UNL     1       2.421   3.821  19.933  0.00  0.00    +0.000 C 
ATOM      3  C   UNL     1       3.624   2.872  20.216  0.00  0.00    +0.000 C 
ATOM      4  C   UNL     1       4.703   3.365  19.226  0.00  0.00    +0.000 C 
ATOM      5  C   UNL     1       3.989   4.515  18.474  0.00  0.00    +0.000 C 
ATOM      6  C   UNL     1       3.886   5.703  19.467  0.00  0.00    +0.000 C 
ATOM      7  C   UNL     1       2.857   5.205  20.505  0.00  0.00    +0.000 C 
ATOM      8  C   UNL     1       2.506   3.998  18.385  0.00  0.00    +0.000 C 
ATOM      9  C   UNL     1       1.498   5.000  17.773  0.00  0.00    +0.000 C 
ATOM     10  C   UNL     1       2.317   2.675  17.594  0.00  0.00    +0.000 C 
ENDROOT
BRANCH   5  11
ATOM     11  C   UNL     1       4.570   4.873  17.111  0.00  0.00    +0.000 C 
ATOM     12  O   UNL     1       4.465   6.017  16.686  0.00  0.00    +0.000 OA
ATOM     13  N   UNL     1       5.187   3.859  16.394  0.00  0.00    +0.000 N 
ATOM     14  H   UNL     1       5.018   2.905  16.675  0.00  0.00    +0.000 HD
BRANCH  13  15
ATOM     15  C   UNL     1       5.806   4.076  15.132  0.00  0.00    +0.000 A 
ATOM     16  C   UNL     1       5.326   3.511  13.946  0.00  0.00    +0.000 A 
ATOM     17  C   UNL     1       6.032   3.696  12.769  0.00  0.00    +0.000 A 
ATOM     18  N   UNL     1       7.158   4.424  12.689  0.00  0.00    +0.000 NA
ATOM     19  C   UNL     1       7.585   4.996  13.833  0.00  0.00    +0.000 A 
ATOM     20  C   UNL     1       6.949   4.869  15.062  0.00  0.00    +0.000 A 
ENDBRANCH  13  15
ENDBRANCH   5  11
BRANCH   7  21
ATOM     21  O   UNL     1       1.815   6.141  20.701  0.00  0.00    +0.000 OA
ATOM     22  H   UNL     1       1.729   6.354  21.643  0.00  0.00    +0.000 HD
ENDBRANCH   7  21
TORSDOF 3
ENDMDL
MODEL 3
REMARK VINA RESULT:      -7.0      1.414      2.290
REMARK  Name = 
REMARK  6 active torsions:
REMARK  status: ('A' for Active; 'I' for Inactive)
REMARK    1  A    between atoms: C_1  and  C_2
REMARK    2  A    between atoms: C_5  and  C_6
REMARK    3  A    between atoms: N_8  and  C_9
REMARK    4  A    between atoms: C_16  and  O_17
REMARK    5  A    between atoms: C_18  and  C_19
REMARK    6  A    between atoms: C_18  and  C_20
REMARK                            x       y       z     vdW  Elec       q    Type
REMARK                         _______ _______ _______ _____ _____    ______ ____
ROOT
ATOM      1  C   UNL     1       0.363   3.673  20.455  0.00  0.00    +0.000 C 
ATOM      2  C   UNL     1       1.641   3.155  19.817  0.00  0.00    +0.000 C 
ATOM      3  C   UNL     1       1.384   2.135  18.668  0.00  0.00    +0.000 C 
ATOM      4  C   UNL     1       2.729   2.113  17.907  0.00  0.00    +0.000 C 
ATOM      5  C   UNL     1       3.590   3.137  18.687  0.00  0.00    +0.000 C 
ATOM      6  C   UNL     1       3.963   2.472  20.039  0.00  0.00    +0.000 C 
ATOM      7  C   UNL     1       2.616   2.425  20.791  0.00  0.00    +0.000 C 
ATOM      8  C   UNL     1       2.532   4.223  19.109  0.00  0.00    +0.000 C 
ATOM      9  C   UNL     1       3.075   5.349  20.020  0.00  0.00    +0.000 C 
ATOM     10  C   UNL     1       1.824   4.944  17.929  0.00  0.00    +0.000 C 
ENDROOT
BRANCH   5  11
ATOM     11  C   UNL     1       4.767   3.729  17.921  0.00  0.00    +0.000 C 
ATOM     12  O   UNL     1       5.809   3.986  18.512  0.00  0.00    +0.000 OA
ATOM     13  N   UNL     1       4.592   3.968  16.568  0.00  0.00    +0.000 N 
ATOM     14  H   UNL     1       3.652   3.976  16.202  0.00  0.00    +0.000 HD
BRANCH  13  15
ATOM     15  C   UNL     1       5.629   4.475  15.735  0.00  0.00    +0.000 A 
ATOM     16  C   UNL     1       5.886   3.972  14.456  0.00  0.00    +0.000 A 
ATOM     17  C   UNL     1       6.967   4.457  13.738  0.00  0.00    +0.000 A 
ATOM     18  N   UNL     1       7.784   5.421  14.194  0.00  0.00    +0.000 NA
ATOM     19  C   UNL     1       7.499   5.923  15.412  0.00  0.00    +0.000 A 
ATOM     20  C   UNL     1       6.440   5.503  16.209  0.00  0.00    +0.000 A 
ENDBRANCH  13  15
ENDBRANCH   5  11
BRANCH   7  21
ATOM     21  O   UNL     1       2.720   2.985  22.086  0.00  0.00    +0.000 OA
ATOM     22  H   UNL     1       1.848   3.270  22.400  0.00  0.00    +0.000 HD
ENDBRANCH   7  21
TORSDOF 3
ENDMDL
MODEL 4
REMARK VINA RESULT:      -6.7      1.475      2.263
REMARK  Name = 
REMARK  6 active torsions:
REMARK  status: ('A' for Active; 'I' for Inactive)
REMARK    1  A    between atoms: C_1  and  C_2
REMARK    2  A    between atoms: C_5  and  C_6
REMARK    3  A    between atoms: N_8  and  C_9
REMARK    4  A    between atoms: C_16  and  O_17
REMARK    5  A    between atoms: C_18  and  C_19
REMARK    6  A    between atoms: C_18  and  C_20
REMARK                            x       y       z     vdW  Elec       q    Type
REMARK                         _______ _______ _______ _____ _____    ______ ____
ROOT
ATOM      1  C   UNL     1       1.473   2.463  21.151  0.00  0.00    +0.000 C 
ATOM      2  C   UNL     1       1.661   3.477  20.035  0.00  0.00    +0.000 C 
ATOM      3  C   UNL     1       1.477   4.950  20.507  0.00  0.00    +0.000 C 
ATOM      4  C   UNL     1       2.141   5.769  19.377  0.00  0.00    +0.000 C 
ATOM      5  C   UNL     1       2.651   4.676  18.406  0.00  0.00    +0.000 C 
ATOM      6  C   UNL     1       1.401   4.088  17.698  0.00  0.00    +0.000 C 
ATOM      7  C   UNL     1       0.687   3.317  18.828  0.00  0.00    +0.000 C 
ATOM      8  C   UNL     1       3.078   3.520  19.384  0.00  0.00    +0.000 C 
ATOM      9  C   UNL     1       3.535   2.212  18.694  0.00  0.00    +0.000 C 
ATOM     10  C   UNL     1       4.212   3.888  20.380  0.00  0.00    +0.000 C 
ENDROOT
BRANCH   5  11
ATOM     11  C   UNL     1       3.774   5.099  17.467  0.00  0.00    +0.000 C 
ATOM     12  O   UNL     1       4.063   6.285  17.359  0.00  0.00    +0.000 OA
ATOM     13  N   UNL     1       4.418   4.101  16.753  0.00  0.00    +0.000 N 
ATOM     14  H   UNL     1       3.975   3.196  16.691  0.00  0.00    +0.000 HD
BRANCH  13  15
ATOM     15  C   UNL     1       5.510   4.361  15.880  0.00  0.00    +0.000 A 
ATOM     16  C   UNL     1       6.746   4.833  16.334  0.00  0.00    +0.000 A 
ATOM     17  C   UNL     1       7.735   5.146  15.416  0.00  0.00    +0.000 A 
ATOM     18  N   UNL     1       7.586   4.995  14.089  0.00  0.00    +0.000 NA
ATOM     19  C   UNL     1       6.404   4.502  13.671  0.00  0.00    +0.000 A 
ATOM     20  C   UNL     1       5.351   4.159  14.511  0.00  0.00    +0.000 A 
ENDBRANCH  13  15
ENDBRANCH   5  11
BRANCH   7  21
ATOM     21  O   UNL     1       0.394   1.986  18.451  0.00  0.00    +0.000 OA
ATOM     22  H   UNL     1       0.323   1.918  17.487  0.00  0.00    +0.000 HD
ENDBRANCH   7  21
TORSDOF 3
ENDMDL
MODEL 5
REMARK VINA RESULT:      -6.7      1.311      1.921
REMARK  Name = 
REMARK  6 active torsions:
REMARK  status: ('A' for Active; 'I' for Inactive)
REMARK    1  A    between atoms: C_1  and  C_2
REMARK    2  A    between atoms: C_5  and  C_6
REMARK    3  A    between atoms: N_8  and  C_9
REMARK    4  A    between atoms: C_16  and  O_17
REMARK    5  A    between atoms: C_18  and  C_19
REMARK    6  A    between atoms: C_18  and  C_20
REMARK                            x       y       z     vdW  Elec       q    Type
REMARK                         _______ _______ _______ _____ _____    ______ ____
ROOT
ATOM      1  C   UNL     1       0.360   3.271  20.362  0.00  0.00    +0.000 C 
ATOM      2  C   UNL     1       1.730   2.910  19.813  0.00  0.00    +0.000 C 
ATOM      3  C   UNL     1       1.686   1.772  18.751  0.00  0.00    +0.000 C 
ATOM      4  C   UNL     1       3.051   1.900  18.038  0.00  0.00    +0.000 C 
ATOM      5  C   UNL     1       3.707   3.108  18.751  0.00  0.00    +0.000 C 
ATOM      6  C   UNL     1       4.117   2.623  20.167  0.00  0.00    +0.000 C 
ATOM      7  C   UNL     1       2.761   2.426  20.878  0.00  0.00    +0.000 C 
ATOM      8  C   UNL     1       2.475   4.044  19.042  0.00  0.00    +0.000 C 
ATOM      9  C   UNL     1       2.797   5.312  19.868  0.00  0.00    +0.000 C 
ATOM     10  C   UNL     1       1.719   4.544  17.781  0.00  0.00    +0.000 C 
ENDROOT
BRANCH   5  11
ATOM     11  C   UNL     1       4.812   3.813  17.974  0.00  0.00    +0.000 C 
ATOM     12  O   UNL     1       5.603   4.538  18.565  0.00  0.00    +0.000 OA
ATOM     13  N   UNL     1       4.858   3.608  16.604  0.00  0.00    +0.000 N 
ATOM     14  H   UNL     1       4.045   3.218  16.152  0.00  0.00    +0.000 HD
BRANCH  13  15
ATOM     15  C   UNL     1       5.867   4.174  15.775  0.00  0.00    +0.000 A 
ATOM     16  C   UNL     1       6.810   5.092  16.250  0.00  0.00    +0.000 A 
ATOM     17  C   UNL     1       7.707   5.665  15.365  0.00  0.00    +0.000 A 
ATOM     18  N   UNL     1       7.747   5.366  14.055  0.00  0.00    +0.000 NA
ATOM     19  C   UNL     1       6.859   4.450  13.622  0.00  0.00    +0.000 A 
ATOM     20  C   UNL     1       5.919   3.821  14.429  0.00  0.00    +0.000 A 
ENDBRANCH  13  15
ENDBRANCH   5  11
BRANCH   7  21
ATOM     21  O   UNL     1       2.719   3.100  22.121  0.00  0.00    +0.000 OA
ATOM     22  H   UNL     1       2.009   3.760  22.121  0.00  0.00    +0.000 HD
ENDBRANCH   7  21
TORSDOF 3
ENDMDL
MODEL 6
REMARK VINA RESULT:      -6.7      1.457      2.444
REMARK  Name = 
REMARK  6 active torsions:
REMARK  status: ('A' for Active; 'I' for Inactive)
REMARK    1  A    between atoms: C_1  and  C_2
REMARK    2  A    between atoms: C_5  and  C_6
REMARK    3  A    between atoms: N_8  and  C_9
REMARK    4  A    between atoms: C_16  and  O_17
REMARK    5  A    between atoms: C_18  and  C_19
REMARK    6  A    between atoms: C_18  and  C_20
REMARK                            x       y       z     vdW  Elec       q    Type
REMARK                         _______ _______ _______ _____ _____    ______ ____
ROOT
ATOM      1  C   UNL     1       1.652   2.300  21.112  0.00  0.00    +0.000 C 
ATOM      2  C   UNL     1       1.775   3.375  20.044  0.00  0.00    +0.000 C 
ATOM      3  C   UNL     1       1.630   4.820  20.609  0.00  0.00    +0.000 C 
ATOM      4  C   UNL     1       2.226   5.699  19.486  0.00  0.00    +0.000 C 
ATOM      5  C   UNL     1       2.666   4.661  18.425  0.00  0.00    +0.000 C 
ATOM      6  C   UNL     1       1.370   4.117  17.766  0.00  0.00    +0.000 C 
ATOM      7  C   UNL     1       0.725   3.285  18.895  0.00  0.00    +0.000 C 
ATOM      8  C   UNL     1       3.148   3.451  19.308  0.00  0.00    +0.000 C 
ATOM      9  C   UNL     1       3.553   2.184  18.518  0.00  0.00    +0.000 C 
ATOM     10  C   UNL     1       4.345   3.760  20.248  0.00  0.00    +0.000 C 
ENDROOT
BRANCH   5  11
ATOM     11  C   UNL     1       3.731   5.134  17.442  0.00  0.00    +0.000 C 
ATOM     12  O   UNL     1       3.918   6.333  17.278  0.00  0.00    +0.000 OA
ATOM     13  N   UNL     1       4.439   4.161  16.753  0.00  0.00    +0.000 N 
ATOM     14  H   UNL     1       4.072   3.222  16.740  0.00  0.00    +0.000 HD
BRANCH  13  15
ATOM     15  C   UNL     1       5.487   4.473  15.843  0.00  0.00    +0.000 A 
ATOM     16  C   UNL     1       5.400   4.215  14.471  0.00  0.00    +0.000 A 
ATOM     17  C   UNL     1       6.494   4.466  13.660  0.00  0.00    +0.000 A 
ATOM     18  N   UNL     1       7.650   4.978  14.116  0.00  0.00    +0.000 NA
ATOM     19  C   UNL     1       7.704   5.258  15.433  0.00  0.00    +0.000 A 
ATOM     20  C   UNL     1       6.662   5.042  16.328  0.00  0.00    +0.000 A 
ENDBRANCH  13  15
ENDBRANCH   5  11
BRANCH   7  21
ATOM     21  O   UNL     1       0.401   1.978  18.462  0.00  0.00    +0.000 OA
ATOM     22  H   UNL     1       0.115   1.992  17.537  0.00  0.00    +0.000 HD
ENDBRANCH   7  21
TORSDOF 3
ENDMDL
MODEL 7
REMARK VINA RESULT:      -6.7      3.684      6.254
REMARK  Name = 
REMARK  6 active torsions:
REMARK  status: ('A' for Active; 'I' for Inactive)
REMARK    1  A    between atoms: C_1  and  C_2
REMARK    2  A    between atoms: C_5  and  C_6
REMARK    3  A    between atoms: N_8  and  C_9
REMARK    4  A    between atoms: C_16  and  O_17
REMARK    5  A    between atoms: C_18  and  C_19
REMARK    6  A    between atoms: C_18  and  C_20
REMARK                            x       y       z     vdW  Elec       q    Type
REMARK                         _______ _______ _______ _____ _____    ______ ____
ROOT
ATOM      1  C   UNL     1       3.326   1.855  18.062  0.00  0.00    +0.000 C 
ATOM      2  C   UNL     1       3.726   3.318  18.157  0.00  0.00    +0.000 C 
ATOM      3  C   UNL     1       4.269   3.894  16.815  0.00  0.00    +0.000 C 
ATOM      4  C   UNL     1       4.170   5.422  17.021  0.00  0.00    +0.000 C 
ATOM      5  C   UNL     1       3.559   5.546  18.439  0.00  0.00    +0.000 C 
ATOM      6  C   UNL     1       4.674   5.148  19.443  0.00  0.00    +0.000 C 
ATOM      7  C   UNL     1       4.834   3.631  19.207  0.00  0.00    +0.000 C 
ATOM      8  C   UNL     1       2.577   4.318  18.498  0.00  0.00    +0.000 C 
ATOM      9  C   UNL     1       1.884   4.097  19.863  0.00  0.00    +0.000 C 
ATOM     10  C   UNL     1       1.435   4.339  17.446  0.00  0.00    +0.000 C 
ENDROOT
BRANCH   5  11
ATOM     11  C   UNL     1       2.867   6.868  18.747  0.00  0.00    +0.000 C 
ATOM     12  O   UNL     1       2.828   7.747  17.894  0.00  0.00    +0.000 OA
ATOM     13  N   UNL     1       2.318   7.022  20.010  0.00  0.00    +0.000 N 
ATOM     14  H   UNL     1       2.601   6.379  20.735  0.00  0.00    +0.000 HD
BRANCH  13  15
ATOM     15  C   UNL     1       1.608   8.190  20.404  0.00  0.00    +0.000 A 
ATOM     16  C   UNL     1       1.105   9.116  19.484  0.00  0.00    +0.000 A 
ATOM     17  C   UNL     1       0.499  10.273  19.945  0.00  0.00    +0.000 A 
ATOM     18  N   UNL     1       0.338  10.554  21.248  0.00  0.00    +0.000 NA
ATOM     19  C   UNL     1       0.792   9.633  22.121  0.00  0.00    +0.000 A 
ATOM     20  C   UNL     1       1.413   8.443  21.759  0.00  0.00    +0.000 A 
ENDBRANCH  13  15
ENDBRANCH   5  11
BRANCH   7  21
ATOM     21  O   UNL     1       4.755   2.902  20.417  0.00  0.00    +0.000 OA
ATOM     22  H   UNL     1       3.858   2.949  20.779  0.00  0.00    +0.000 HD
ENDBRANCH   7  21
TORSDOF 3
ENDMDL
MODEL 8
REMARK VINA RESULT:      -6.6      1.411      2.278
REMARK  Name = 
REMARK  6 active torsions:
REMARK  status: ('A' for Active; 'I' for Inactive)
REMARK    1  A    between atoms: C_1  and  C_2
REMARK    2  A    between atoms: C_5  and  C_6
REMARK    3  A    between atoms: N_8  and  C_9
REMARK    4  A    between atoms: C_16  and  O_17
REMARK    5  A    between atoms: C_18  and  C_19
REMARK    6  A    between atoms: C_18  and  C_20
REMARK                            x       y       z     vdW  Elec       q    Type
REMARK                         _______ _______ _______ _____ _____    ______ ____
ROOT
ATOM      1  C   UNL     1       1.657   4.816  20.462  0.00  0.00    +0.000 C 
ATOM      2  C   UNL     1       2.361   4.077  19.335  0.00  0.00    +0.000 C 
ATOM      3  C   UNL     1       1.433   3.786  18.118  0.00  0.00    +0.000 C 
ATOM      4  C   UNL     1       2.431   3.471  16.981  0.00  0.00    +0.000 C 
ATOM      5  C   UNL     1       3.809   3.642  17.666  0.00  0.00    +0.000 C 
ATOM      6  C   UNL     1       3.992   2.427  18.614  0.00  0.00    +0.000 C 
ATOM      7  C   UNL     1       2.956   2.690  19.727  0.00  0.00    +0.000 C 
ATOM      8  C   UNL     1       3.550   4.832  18.664  0.00  0.00    +0.000 C 
ATOM      9  C   UNL     1       4.735   5.174  19.598  0.00  0.00    +0.000 C 
ATOM     10  C   UNL     1       3.142   6.172  17.995  0.00  0.00    +0.000 C 
ENDROOT
BRANCH   5  11
ATOM     11  C   UNL     1       4.984   3.904  16.731  0.00  0.00    +0.000 C 
ATOM     12  O   UNL     1       6.115   4.011  17.190  0.00  0.00    +0.000 OA
ATOM     13  N   UNL     1       4.707   4.027  15.379  0.00  0.00    +0.000 N 
ATOM     14  H   UNL     1       3.750   4.182  15.099  0.00  0.00    +0.000 HD
BRANCH  13  15
ATOM     15  C   UNL     1       5.720   4.227  14.400  0.00  0.00    +0.000 A 
ATOM     16  C   UNL     1       6.775   5.128  14.577  0.00  0.00    +0.000 A 
ATOM     17  C   UNL     1       7.676   5.332  13.545  0.00  0.00    +0.000 A 
ATOM     18  N   UNL     1       7.614   4.683  12.370  0.00  0.00    +0.000 NA
ATOM     19  C   UNL     1       6.616   3.789  12.232  0.00  0.00    +0.000 A 
ATOM     20  C   UNL     1       5.663   3.514  13.206  0.00  0.00    +0.000 A 
ENDBRANCH  13  15
ENDBRANCH   5  11
BRANCH   7  21
ATOM     21  O   UNL     1       3.539   2.616  21.014  0.00  0.00    +0.000 OA
ATOM     22  H   UNL     1       3.164   1.873  21.510  0.00  0.00    +0.000 HD
ENDBRANCH   7  21
TORSDOF 3
ENDMDL
MODEL 9
REMARK VINA RESULT:      -6.6      3.673      6.202
REMARK  Name = 
REMARK  6 active torsions:
REMARK  status: ('A' for Active; 'I' for Inactive)
REMARK    1  A    between atoms: C_1  and  C_2
REMARK    2  A    between atoms: C_5  and  C_6
REMARK    3  A    between atoms: N_8  and  C_9
REMARK    4  A    between atoms: C_16  and  O_17
REMARK    5  A    between atoms: C_18  and  C_19
REMARK    6  A    between atoms: C_18  and  C_20
REMARK                            x       y       z     vdW  Elec       q    Type
REMARK                         _______ _______ _______ _____ _____    ______ ____
ROOT
ATOM      1  C   UNL     1       3.305   1.808  18.125  0.00  0.00    +0.000 C 
ATOM      2  C   UNL     1       3.703   3.274  18.181  0.00  0.00    +0.000 C 
ATOM      3  C   UNL     1       4.207   3.826  16.814  0.00  0.00    +0.000 C 
ATOM      4  C   UNL     1       4.110   5.358  16.994  0.00  0.00    +0.000 C 
ATOM      5  C   UNL     1       3.538   5.507  18.425  0.00  0.00    +0.000 C 
ATOM      6  C   UNL     1       4.681   5.131  19.406  0.00  0.00    +0.000 C 
ATOM      7  C   UNL     1       4.839   3.610  19.194  0.00  0.00    +0.000 C 
ATOM      8  C   UNL     1       2.561   4.278  18.534  0.00  0.00    +0.000 C 
ATOM      9  C   UNL     1       1.907   4.081  19.922  0.00  0.00    +0.000 C 
ATOM     10  C   UNL     1       1.391   4.276  17.514  0.00  0.00    +0.000 C 
ENDROOT
BRANCH   5  11
ATOM     11  C   UNL     1       2.850   6.833  18.727  0.00  0.00    +0.000 C 
ATOM     12  O   UNL     1       2.741   7.676  17.845  0.00  0.00    +0.000 OA
ATOM     13  N   UNL     1       2.387   7.032  20.018  0.00  0.00    +0.000 N 
ATOM     14  H   UNL     1       2.727   6.423  20.747  0.00  0.00    +0.000 HD
BRANCH  13  15
ATOM     15  C   UNL     1       1.689   8.208  20.412  0.00  0.00    +0.000 A 
ATOM     16  C   UNL     1       1.409   8.508  21.749  0.00  0.00    +0.000 A 
ATOM     17  C   UNL     1       0.650   9.627  22.051  0.00  0.00    +0.000 A 
ATOM     18  N   UNL     1       0.181  10.474  21.120  0.00  0.00    +0.000 NA
ATOM     19  C   UNL     1       0.494  10.193  19.840  0.00  0.00    +0.000 A 
ATOM     20  C   UNL     1       1.246   9.096  19.436  0.00  0.00    +0.000 A 
ENDBRANCH  13  15
ENDBRANCH   5  11
BRANCH   7  21
ATOM     21  O   UNL     1       4.796   2.904  20.419  0.00  0.00    +0.000 OA
ATOM     22  H   UNL     1       3.936   3.030  20.849  0.00  0.00    +0.000 HD
ENDBRANCH   7  21
TORSDOF 3
ENDMDL
