MODEL 1
REMARK VINA RESULT:      -6.7      0.000      0.000
REMARK  Name = 
REMARK  8 active torsions:
REMARK  status: ('A' for Active; 'I' for Inactive)
REMARK    1  A    between atoms: C_2  and  C_3
REMARK    2  A    between atoms: C_3  and  C_4
REMARK    3  A    between atoms: N_11  and  C_12
REMARK    4  A    between atoms: C_12  and  C_13
REMARK    5  A    between atoms: CA_15  and  C_16
REMARK    6  A    between atoms: C_16  and  O_17
REMARK    7  A    between atoms: C_18  and  O_19
REMARK    8  A    between atoms: C_20  and  O_21
REMARK                            x       y       z     vdW  Elec       q    Type
REMARK                         _______ _______ _______ _____ _____    ______ ____
ROOT
ATOM      1  C   UNL     1       5.474   7.163  18.120  0.00  0.00    +0.000 C 
ENDROOT
BRANCH   1   2
ATOM      2  C   UNL     1       6.692   6.855  17.227  0.00  0.00    +0.000 C 
ATOM      3  N   UNL     1       6.261   6.097  16.007  0.00  0.00    +0.000 NA
ATOM      4  CA  UNL     1       7.009   4.804  16.028  0.00  0.00    +0.000 C 
ATOM      5  C   UNL     1       7.393   4.582  17.500  0.00  0.00    +0.000 C 
ATOM      6  C   UNL     1       7.774   6.000  17.913  0.00  0.00    +0.000 C 
ATOM      7  H   UNL     1       6.558   6.627  15.183  0.00  0.00    +0.000 HD
BRANCH   5   8
ATOM      8  O   UNL     1       6.324   4.141  18.349  0.00  0.00    +0.000 OA
ATOM      9  H   UNL     1       5.762   4.920  18.548  0.00  0.00    +0.000 HD
ENDBRANCH   5   8
BRANCH   6  10
ATOM     10  O   UNL     1       7.845   6.147  19.320  0.00  0.00    +0.000 OA
ATOM     11  H   UNL     1       8.449   5.442  19.630  0.00  0.00    +0.000 HD
ENDBRANCH   6  10
BRANCH   4  12
ATOM     12  C   UNL     1       6.162   3.686  15.416  0.00  0.00    +0.000 C 
BRANCH  12  13
ATOM     13  O   UNL     1       4.806   3.808  15.852  0.00  0.00    +0.000 OA
ATOM     14  H   UNL     1       4.805   3.448  16.762  0.00  0.00    +0.000 HD
ENDBRANCH  12  13
ENDBRANCH   4  12
ENDBRANCH   1   2
BRANCH   1  17
ATOM     15  O   UNL     1       2.699   7.702  18.415  0.00  0.00    +0.000 OA
ATOM     16  C   UNL     1       3.061   6.584  18.061  0.00  0.00    +0.000 C 
ATOM     17  N   UNL     1       4.378   6.242  17.861  0.00  0.00    +0.000 N 
ATOM     18  H   UNL     1       4.628   5.280  17.672  0.00  0.00    +0.000 HD
BRANCH  16  19
ATOM     19  C   UNL     1       2.073   5.461  17.807  0.00  0.00    +0.000 C 
BRANCH  19  20
ATOM     20  C   UNL     1       1.897   4.534  18.986  0.00  0.00    +0.000 A 
ATOM     21  C   UNL     1       1.456   3.213  18.797  0.00  0.00    +0.000 A 
ATOM     22  C   UNL     1       1.327   2.347  19.883  0.00  0.00    +0.000 A 
ATOM     23  C   UNL     1       1.644   2.794  21.159  0.00  0.00    +0.000 A 
ATOM     24  F   UNL     1       1.523   1.962  22.203  0.00  0.00    +0.000 F 
ATOM     25  C   UNL     1       2.082   4.095  21.370  0.00  0.00    +0.000 A 
ATOM     26  C   UNL     1       2.214   4.965  20.284  0.00  0.00    +0.000 A 
ENDBRANCH  19  20
ENDBRANCH  16  19
ENDBRANCH   1  17
TORSDOF 8
ENDMDL
MODEL 2
REMARK VINA RESULT:      -6.7      3.178      4.589
REMARK  Name = 
REMARK  8 active torsions:
REMARK  status: ('A' for Active; 'I' for Inactive)
REMARK    1  A    between atoms: C_2  and  C_3
REMARK    2  A    between atoms: C_3  and  C_4
REMARK    3  A    between atoms: N_11  and  C_12
REMARK    4  A    between atoms: C_12  and  C_13
REMARK    5  A    between atoms: CA_15  and  C_16
REMARK    6  A    between atoms: C_16  and  O_17
REMARK    7  A    between atoms: C_18  and  O_19
REMARK    8  A    between atoms: C_20  and  O_21
REMARK                            x       y       z     vdW  Elec       q    Type
REMARK                         _______ _______ _______ _____ _____    ______ ____
ROOT
ATOM      1  C   UNL     1       4.428   4.360  16.814  0.00  0.00    +0.000 C 
ENDROOT
BRANCH   1   2
ATOM      2  C   UNL     1       5.944   4.102  16.719  0.00  0.00    +0.000 C 
ATOM      3  N   UNL     1       6.562   4.130  18.085  0.00  0.00    +0.000 NA
ATOM      4  CA  UNL     1       7.594   5.209  18.059  0.00  0.00    +0.000 C 
ATOM      5  C   UNL     1       7.169   6.149  16.919  0.00  0.00    +0.000 C 
ATOM      6  C   UNL     1       6.706   5.140  15.874  0.00  0.00    +0.000 C 
ATOM      7  H   UNL     1       7.035   3.236  18.238  0.00  0.00    +0.000 HD
BRANCH   5   8
ATOM      8  O   UNL     1       6.067   7.016  17.223  0.00  0.00    +0.000 OA
ATOM      9  H   UNL     1       5.707   6.744  18.095  0.00  0.00    +0.000 HD
ENDBRANCH   5   8
BRANCH   6  10
ATOM     10  O   UNL     1       5.944   5.746  14.846  0.00  0.00    +0.000 OA
ATOM     11  H   UNL     1       6.211   6.688  14.837  0.00  0.00    +0.000 HD
ENDBRANCH   6  10
BRANCH   4  12
ATOM     12  C   UNL     1       7.702   5.879  19.431  0.00  0.00    +0.000 C 
BRANCH  12  13
ATOM     13  O   UNL     1       8.602   5.145  20.263  0.00  0.00    +0.000 OA
ATOM     14  H   UNL     1       9.404   5.024  19.715  0.00  0.00    +0.000 HD
ENDBRANCH  12  13
ENDBRANCH   4  12
ENDBRANCH   1   2
BRANCH   1  17
ATOM     15  O   UNL     1       1.818   4.814  17.845  0.00  0.00    +0.000 OA
ATOM     16  C   UNL     1       2.788   5.285  18.432  0.00  0.00    +0.000 C 
ATOM     17  N   UNL     1       4.088   5.091  18.025  0.00  0.00    +0.000 N 
ATOM     18  H   UNL     1       4.841   5.587  18.483  0.00  0.00    +0.000 HD
BRANCH  16  19
ATOM     19  C   UNL     1       2.639   6.137  19.678  0.00  0.00    +0.000 C 
BRANCH  19  20
ATOM     20  C   UNL     1       2.132   7.532  19.399  0.00  0.00    +0.000 A 
ATOM     21  C   UNL     1       2.332   8.127  18.143  0.00  0.00    +0.000 A 
ATOM     22  C   UNL     1       1.833   9.402  17.875  0.00  0.00    +0.000 A 
ATOM     23  C   UNL     1       1.126  10.083  18.858  0.00  0.00    +0.000 A 
ATOM     24  F   UNL     1       0.644  11.307  18.602  0.00  0.00    +0.000 F 
ATOM     25  C   UNL     1       0.916   9.514  20.108  0.00  0.00    +0.000 A 
ATOM     26  C   UNL     1       1.413   8.236  20.378  0.00  0.00    +0.000 A 
ENDBRANCH  19  20
ENDBRANCH  16  19
ENDBRANCH   1  17
TORSDOF 8
ENDMDL
MODEL 3
REMARK VINA RESULT:      -6.7      0.080      1.056
REMARK  Name = 
REMARK  8 active torsions:
REMARK  status: ('A' for Active; 'I' for Inactive)
REMARK    1  A    between atoms: C_2  and  C_3
REMARK    2  A    between atoms: C_3  and  C_4
REMARK    3  A    between atoms: N_11  and  C_12
REMARK    4  A    between atoms: C_12  and  C_13
REMARK    5  A    between atoms: CA_15  and  C_16
REMARK    6  A    between atoms: C_16  and  O_17
REMARK    7  A    between atoms: C_18  and  O_19
REMARK    8  A    between atoms: C_20  and  O_21
REMARK                            x       y       z     vdW  Elec       q    Type
REMARK                         _______ _______ _______ _____ _____    ______ ____
ROOT
ATOM      1  C   UNL     1       5.471   7.147  18.154  0.00  0.00    +0.000 C 
ENDROOT
BRANCH   1   2
ATOM      2  C   UNL     1       6.656   6.862  17.210  0.00  0.00    +0.000 C 
ATOM      3  N   UNL     1       6.188   6.102  16.006  0.00  0.00    +0.000 NA
ATOM      4  CA  UNL     1       6.957   4.821  15.991  0.00  0.00    +0.000 C 
ATOM      5  C   UNL     1       7.405   4.600  17.445  0.00  0.00    +0.000 C 
ATOM      6  C   UNL     1       7.779   6.023  17.848  0.00  0.00    +0.000 C 
ATOM      7  H   UNL     1       6.442   6.639  15.173  0.00  0.00    +0.000 HD
BRANCH   5   8
ATOM      8  O   UNL     1       6.379   4.138  18.335  0.00  0.00    +0.000 OA
ATOM      9  H   UNL     1       6.456   4.651  19.169  0.00  0.00    +0.000 HD
ENDBRANCH   5   8
BRANCH   6  10
ATOM     10  O   UNL     1       7.905   6.165  19.251  0.00  0.00    +0.000 OA
ATOM     11  H   UNL     1       7.065   5.835  19.629  0.00  0.00    +0.000 HD
ENDBRANCH   6  10
BRANCH   4  12
ATOM     12  C   UNL     1       6.103   3.692  15.409  0.00  0.00    +0.000 C 
BRANCH  12  13
ATOM     13  O   UNL     1       4.767   3.785  15.907  0.00  0.00    +0.000 OA
ATOM     14  H   UNL     1       4.215   3.364  15.216  0.00  0.00    +0.000 HD
ENDBRANCH  12  13
ENDBRANCH   4  12
ENDBRANCH   1   2
BRANCH   1  17
ATOM     15  O   UNL     1       2.698   7.755  18.301  0.00  0.00    +0.000 OA
ATOM     16  C   UNL     1       3.051   6.609  18.037  0.00  0.00    +0.000 C 
ATOM     17  N   UNL     1       4.368   6.230  17.913  0.00  0.00    +0.000 N 
ATOM     18  H   UNL     1       4.605   5.254  17.798  0.00  0.00    +0.000 HD
BRANCH  16  19
ATOM     19  C   UNL     1       2.050   5.490  17.819  0.00  0.00    +0.000 C 
BRANCH  19  20
ATOM     20  C   UNL     1       1.954   4.531  18.981  0.00  0.00    +0.000 A 
ATOM     21  C   UNL     1       2.160   4.979  20.297  0.00  0.00    +0.000 A 
ATOM     22  C   UNL     1       2.036   4.099  21.373  0.00  0.00    +0.000 A 
ATOM     23  C   UNL     1       1.699   2.772  21.139  0.00  0.00    +0.000 A 
ATOM     24  F   UNL     1       1.577   1.927  22.171  0.00  0.00    +0.000 F 
ATOM     25  C   UNL     1       1.490   2.307  19.847  0.00  0.00    +0.000 A 
ATOM     26  C   UNL     1       1.612   3.187  18.767  0.00  0.00    +0.000 A 
ENDBRANCH  19  20
ENDBRANCH  16  19
ENDBRANCH   1  17
TORSDOF 8
ENDMDL
MODEL 4
REMARK VINA RESULT:      -6.6      3.148      6.017
REMARK  Name = 
REMARK  8 active torsions:
REMARK  status: ('A' for Active; 'I' for Inactive)
REMARK    1  A    between atoms: C_2  and  C_3
REMARK    2  A    between atoms: C_3  and  C_4
REMARK    3  A    between atoms: N_11  and  C_12
REMARK    4  A    between atoms: C_12  and  C_13
REMARK    5  A    between atoms: CA_15  and  C_16
REMARK    6  A    between atoms: C_16  and  O_17
REMARK    7  A    between atoms: C_18  and  O_19
REMARK    8  A    between atoms: C_20  and  O_21
REMARK                            x       y       z     vdW  Elec       q    Type
REMARK                         _______ _______ _______ _____ _____    ______ ____
ROOT
ATOM      1  C   UNL     1       2.037   4.791  18.284  0.00  0.00    +0.000 C 
ENDROOT
BRANCH   1   2
ATOM      2  C   UNL     1       2.417   4.656  19.772  0.00  0.00    +0.000 C 
ATOM      3  N   UNL     1       3.795   4.081  19.906  0.00  0.00    +0.000 NA
ATOM      4  CA  UNL     1       3.652   2.822  20.695  0.00  0.00    +0.000 C 
ATOM      5  C   UNL     1       2.189   2.388  20.505  0.00  0.00    +0.000 C 
ATOM      6  C   UNL     1       1.480   3.737  20.578  0.00  0.00    +0.000 C 
ATOM      7  H   UNL     1       4.361   4.738  20.448  0.00  0.00    +0.000 HD
BRANCH   5   8
ATOM      8  O   UNL     1       1.889   1.793  19.235  0.00  0.00    +0.000 OA
ATOM      9  H   UNL     1       1.932   0.818  19.346  0.00  0.00    +0.000 HD
ENDBRANCH   5   8
BRANCH   6  10
ATOM     10  O   UNL     1       0.151   3.668  20.094  0.00  0.00    +0.000 OA
ATOM     11  H   UNL     1      -0.424   3.828  20.870  0.00  0.00    +0.000 HD
ENDBRANCH   6  10
BRANCH   4  12
ATOM     12  C   UNL     1       4.685   1.787  20.244  0.00  0.00    +0.000 C 
BRANCH  12  13
ATOM     13  O   UNL     1       5.501   1.398  21.351  0.00  0.00    +0.000 OA
ATOM     14  H   UNL     1       5.662   2.228  21.845  0.00  0.00    +0.000 HD
ENDBRANCH  12  13
ENDBRANCH   4  12
ENDBRANCH   1   2
BRANCH   1  17
ATOM     15  O   UNL     1       3.491   2.663  17.084  0.00  0.00    +0.000 OA
ATOM     16  C   UNL     1       3.875   3.818  16.928  0.00  0.00    +0.000 C 
ATOM     17  N   UNL     1       3.219   4.912  17.444  0.00  0.00    +0.000 N 
ATOM     18  H   UNL     1       3.635   5.831  17.375  0.00  0.00    +0.000 HD
BRANCH  16  19
ATOM     19  C   UNL     1       5.129   4.149  16.141  0.00  0.00    +0.000 C 
BRANCH  19  20
ATOM     20  C   UNL     1       6.075   5.071  16.871  0.00  0.00    +0.000 A 
ATOM     21  C   UNL     1       6.151   6.433  16.532  0.00  0.00    +0.000 A 
ATOM     22  C   UNL     1       7.000   7.291  17.231  0.00  0.00    +0.000 A 
ATOM     23  C   UNL     1       7.771   6.795  18.275  0.00  0.00    +0.000 A 
ATOM     24  F   UNL     1       8.585   7.618  18.949  0.00  0.00    +0.000 F 
ATOM     25  C   UNL     1       7.711   5.452  18.628  0.00  0.00    +0.000 A 
ATOM     26  C   UNL     1       6.860   4.590  17.931  0.00  0.00    +0.000 A 
ENDBRANCH  19  20
ENDBRANCH  16  19
ENDBRANCH   1  17
TORSDOF 8
ENDMDL
MODEL 5
REMARK VINA RESULT:      -6.5      3.161      4.632
REMARK  Name = 
REMARK  8 active torsions:
REMARK  status: ('A' for Active; 'I' for Inactive)
REMARK    1  A    between atoms: C_2  and  C_3
REMARK    2  A    between atoms: C_3  and  C_4
REMARK    3  A    between atoms: N_11  and  C_12
REMARK    4  A    between atoms: C_12  and  C_13
REMARK    5  A    between atoms: CA_15  and  C_16
REMARK    6  A    between atoms: C_16  and  O_17
REMARK    7  A    between atoms: C_18  and  O_19
REMARK    8  A    between atoms: C_20  and  O_21
REMARK                            x       y       z     vdW  Elec       q    Type
REMARK                         _______ _______ _______ _____ _____    ______ ____
ROOT
ATOM      1  C   UNL     1       4.254   4.246  16.897  0.00  0.00    +0.000 C 
ENDROOT
BRANCH   1   2
ATOM      2  C   UNL     1       5.749   3.888  16.785  0.00  0.00    +0.000 C 
ATOM      3  N   UNL     1       6.413   4.011  18.123  0.00  0.00    +0.000 NA
ATOM      4  CA  UNL     1       7.504   5.018  17.962  0.00  0.00    +0.000 C 
ATOM      5  C   UNL     1       7.095   5.868  16.747  0.00  0.00    +0.000 C 
ATOM      6  C   UNL     1       6.540   4.792  15.820  0.00  0.00    +0.000 C 
ATOM      7  H   UNL     1       6.839   3.109  18.350  0.00  0.00    +0.000 HD
BRANCH   5   8
ATOM      8  O   UNL     1       6.056   6.825  16.996  0.00  0.00    +0.000 OA
ATOM      9  H   UNL     1       6.292   7.651  16.519  0.00  0.00    +0.000 HD
ENDBRANCH   5   8
BRANCH   6  10
ATOM     10  O   UNL     1       5.779   5.342  14.760  0.00  0.00    +0.000 OA
ATOM     11  H   UNL     1       6.263   6.142  14.471  0.00  0.00    +0.000 HD
ENDBRANCH   6  10
BRANCH   4  12
ATOM     12  C   UNL     1       7.697   5.811  19.257  0.00  0.00    +0.000 C 
BRANCH  12  13
ATOM     13  O   UNL     1       8.419   7.015  18.989  0.00  0.00    +0.000 OA
ATOM     14  H   UNL     1       9.253   6.921  19.492  0.00  0.00    +0.000 HD
ENDBRANCH  12  13
ENDBRANCH   4  12
ENDBRANCH   1   2
BRANCH   1  17
ATOM     15  O   UNL     1       1.757   4.515  18.228  0.00  0.00    +0.000 OA
ATOM     16  C   UNL     1       2.732   5.134  18.645  0.00  0.00    +0.000 C 
ATOM     17  N   UNL     1       3.985   5.040  18.085  0.00  0.00    +0.000 N 
ATOM     18  H   UNL     1       4.727   5.650  18.402  0.00  0.00    +0.000 HD
BRANCH  16  19
ATOM     19  C   UNL     1       2.641   6.072  19.834  0.00  0.00    +0.000 C 
BRANCH  19  20
ATOM     20  C   UNL     1       2.098   7.437  19.487  0.00  0.00    +0.000 A 
ATOM     21  C   UNL     1       1.453   8.218  20.460  0.00  0.00    +0.000 A 
ATOM     22  C   UNL     1       0.982   9.494  20.147  0.00  0.00    +0.000 A 
ATOM     23  C   UNL     1       1.160   9.996  18.864  0.00  0.00    +0.000 A 
ATOM     24  F   UNL     1       0.711  11.222  18.562  0.00  0.00    +0.000 F 
ATOM     25  C   UNL     1       1.795   9.241  17.886  0.00  0.00    +0.000 A 
ATOM     26  C   UNL     1       2.269   7.963  18.197  0.00  0.00    +0.000 A 
ENDBRANCH  19  20
ENDBRANCH  16  19
ENDBRANCH   1  17
TORSDOF 8
ENDMDL
MODEL 6
REMARK VINA RESULT:      -6.5      3.468      6.481
REMARK  Name = 
REMARK  8 active torsions:
REMARK  status: ('A' for Active; 'I' for Inactive)
REMARK    1  A    between atoms: C_2  and  C_3
REMARK    2  A    between atoms: C_3  and  C_4
REMARK    3  A    between atoms: N_11  and  C_12
REMARK    4  A    between atoms: C_12  and  C_13
REMARK    5  A    between atoms: CA_15  and  C_16
REMARK    6  A    between atoms: C_16  and  O_17
REMARK    7  A    between atoms: C_18  and  O_19
REMARK    8  A    between atoms: C_20  and  O_21
REMARK                            x       y       z     vdW  Elec       q    Type
REMARK                         _______ _______ _______ _____ _____    ______ ____
ROOT
ATOM      1  C   UNL     1       4.069   2.462  20.431  0.00  0.00    +0.000 C 
ENDROOT
BRANCH   1   2
ATOM      2  C   UNL     1       2.724   1.984  19.849  0.00  0.00    +0.000 C 
ATOM      3  N   UNL     1       2.527   2.542  18.472  0.00  0.00    +0.000 NA
ATOM      4  CA  UNL     1       1.265   3.340  18.517  0.00  0.00    +0.000 C 
ATOM      5  C   UNL     1       1.072   3.711  19.997  0.00  0.00    +0.000 C 
ATOM      6  C   UNL     1       1.496   2.411  20.674  0.00  0.00    +0.000 C 
ATOM      7  H   UNL     1       2.389   1.760  17.828  0.00  0.00    +0.000 HD
BRANCH   5   8
ATOM      8  O   UNL     1       1.921   4.763  20.477  0.00  0.00    +0.000 OA
ATOM      9  H   UNL     1       1.486   5.616  20.263  0.00  0.00    +0.000 HD
ENDBRANCH   5   8
BRANCH   6  10
ATOM     10  O   UNL     1       1.739   2.585  22.058  0.00  0.00    +0.000 OA
ATOM     11  H   UNL     1       2.530   2.043  22.260  0.00  0.00    +0.000 HD
ENDBRANCH   6  10
BRANCH   4  12
ATOM     12  C   UNL     1       1.354   4.537  17.568  0.00  0.00    +0.000 C 
BRANCH  12  13
ATOM     13  O   UNL     1       2.430   5.392  17.961  0.00  0.00    +0.000 OA
ATOM     14  H   UNL     1       2.522   6.030  17.224  0.00  0.00    +0.000 HD
ENDBRANCH  12  13
ENDBRANCH   4  12
ENDBRANCH   1   2
BRANCH   1  17
ATOM     15  O   UNL     1       4.608   5.154  19.694  0.00  0.00    +0.000 OA
ATOM     16  C   UNL     1       5.147   4.241  19.076  0.00  0.00    +0.000 C 
ATOM     17  N   UNL     1       4.972   2.911  19.382  0.00  0.00    +0.000 N 
ATOM     18  H   UNL     1       5.356   2.197  18.777  0.00  0.00    +0.000 HD
BRANCH  16  19
ATOM     19  C   UNL     1       6.072   4.500  17.902  0.00  0.00    +0.000 C 
BRANCH  19  20
ATOM     20  C   UNL     1       6.761   5.843  17.960  0.00  0.00    +0.000 A 
ATOM     21  C   UNL     1       7.811   6.068  18.865  0.00  0.00    +0.000 A 
ATOM     22  C   UNL     1       8.470   7.298  18.895  0.00  0.00    +0.000 A 
ATOM     23  C   UNL     1       8.087   8.303  18.015  0.00  0.00    +0.000 A 
ATOM     24  F   UNL     1       8.720   9.484  18.039  0.00  0.00    +0.000 F 
ATOM     25  C   UNL     1       7.052   8.102  17.111  0.00  0.00    +0.000 A 
ATOM     26  C   UNL     1       6.391   6.870  17.078  0.00  0.00    +0.000 A 
ENDBRANCH  19  20
ENDBRANCH  16  19
ENDBRANCH   1  17
TORSDOF 8
ENDMDL
MODEL 7
REMARK VINA RESULT:      -6.5      2.706      4.023
REMARK  Name = 
REMARK  8 active torsions:
REMARK  status: ('A' for Active; 'I' for Inactive)
REMARK    1  A    between atoms: C_2  and  C_3
REMARK    2  A    between atoms: C_3  and  C_4
REMARK    3  A    between atoms: N_11  and  C_12
REMARK    4  A    between atoms: C_12  and  C_13
REMARK    5  A    between atoms: CA_15  and  C_16
REMARK    6  A    between atoms: C_16  and  O_17
REMARK    7  A    between atoms: C_18  and  O_19
REMARK    8  A    between atoms: C_20  and  O_21
REMARK                            x       y       z     vdW  Elec       q    Type
REMARK                         _______ _______ _______ _____ _____    ______ ____
ROOT
ATOM      1  C   UNL     1       4.795   4.037  16.266  0.00  0.00    +0.000 C 
ENDROOT
BRANCH   1   2
ATOM      2  C   UNL     1       6.336   4.050  16.300  0.00  0.00    +0.000 C 
ATOM      3  N   UNL     1       6.824   3.973  17.715  0.00  0.00    +0.000 NA
ATOM      4  CA  UNL     1       7.646   5.198  17.945  0.00  0.00    +0.000 C 
ATOM      5  C   UNL     1       7.154   6.217  16.903  0.00  0.00    +0.000 C 
ATOM      6  C   UNL     1       6.966   5.314  15.688  0.00  0.00    +0.000 C 
ATOM      7  H   UNL     1       7.435   3.157  17.796  0.00  0.00    +0.000 HD
BRANCH   5   8
ATOM      8  O   UNL     1       5.895   6.835  17.201  0.00  0.00    +0.000 OA
ATOM      9  H   UNL     1       5.227   6.120  17.287  0.00  0.00    +0.000 HD
ENDBRANCH   5   8
BRANCH   6  10
ATOM     10  O   UNL     1       6.194   5.935  14.676  0.00  0.00    +0.000 OA
ATOM     11  H   UNL     1       5.268   5.668  14.846  0.00  0.00    +0.000 HD
ENDBRANCH   6  10
BRANCH   4  12
ATOM     12  C   UNL     1       7.519   5.663  19.398  0.00  0.00    +0.000 C 
BRANCH  12  13
ATOM     13  O   UNL     1       6.245   5.284  19.922  0.00  0.00    +0.000 OA
ATOM     14  H   UNL     1       5.602   5.840  19.436  0.00  0.00    +0.000 HD
ENDBRANCH  12  13
ENDBRANCH   4  12
ENDBRANCH   1   2
BRANCH   1  17
ATOM     15  O   UNL     1       2.133   3.546  17.137  0.00  0.00    +0.000 OA
ATOM     16  C   UNL     1       2.918   4.115  17.890  0.00  0.00    +0.000 C 
ATOM     17  N   UNL     1       4.232   4.365  17.568  0.00  0.00    +0.000 N 
ATOM     18  H   UNL     1       4.805   4.929  18.181  0.00  0.00    +0.000 HD
BRANCH  16  19
ATOM     19  C   UNL     1       2.504   4.599  19.267  0.00  0.00    +0.000 C 
BRANCH  19  20
ATOM     20  C   UNL     1       2.228   6.083  19.327  0.00  0.00    +0.000 A 
ATOM     21  C   UNL     1       2.381   6.885  18.184  0.00  0.00    +0.000 A 
ATOM     22  C   UNL     1       2.093   8.250  18.232  0.00  0.00    +0.000 A 
ATOM     23  C   UNL     1       1.643   8.815  19.419  0.00  0.00    +0.000 A 
ATOM     24  F   UNL     1       1.362  10.124  19.467  0.00  0.00    +0.000 F 
ATOM     25  C   UNL     1       1.483   8.040  20.561  0.00  0.00    +0.000 A 
ATOM     26  C   UNL     1       1.770   6.673  20.515  0.00  0.00    +0.000 A 
ENDBRANCH  19  20
ENDBRANCH  16  19
ENDBRANCH   1  17
TORSDOF 8
ENDMDL
MODEL 8
REMARK VINA RESULT:      -6.5      2.548      4.012
REMARK  Name = 
REMARK  8 active torsions:
REMARK  status: ('A' for Active; 'I' for Inactive)
REMARK    1  A    between atoms: C_2  and  C_3
REMARK    2  A    between atoms: C_3  and  C_4
REMARK    3  A    between atoms: N_11  and  C_12
REMARK    4  A    between atoms: C_12  and  C_13
REMARK    5  A    between atoms: CA_15  and  C_16
REMARK    6  A    between atoms: C_16  and  O_17
REMARK    7  A    between atoms: C_18  and  O_19
REMARK    8  A    between atoms: C_20  and  O_21
REMARK                            x       y       z     vdW  Elec       q    Type
REMARK                         _______ _______ _______ _____ _____    ______ ____
ROOT
ATOM      1  C   UNL     1       5.110   3.797  16.300  0.00  0.00    +0.000 C 
ENDROOT
BRANCH   1   2
ATOM      2  C   UNL     1       6.623   4.061  16.431  0.00  0.00    +0.000 C 
ATOM      3  N   UNL     1       7.029   4.045  17.874  0.00  0.00    +0.000 NA
ATOM      4  CA  UNL     1       7.623   5.385  18.159  0.00  0.00    +0.000 C 
ATOM      5  C   UNL     1       7.037   6.325  17.092  0.00  0.00    +0.000 C 
ATOM      6  C   UNL     1       7.075   5.420  15.865  0.00  0.00    +0.000 C 
ATOM      7  H   UNL     1       7.759   3.339  17.990  0.00  0.00    +0.000 HD
BRANCH   5   8
ATOM      8  O   UNL     1       5.677   6.724  17.312  0.00  0.00    +0.000 OA
ATOM      9  H   UNL     1       5.441   6.479  18.233  0.00  0.00    +0.000 HD
ENDBRANCH   5   8
BRANCH   6  10
ATOM     10  O   UNL     1       6.276   5.920  14.807  0.00  0.00    +0.000 OA
ATOM     11  H   UNL     1       5.960   5.134  14.317  0.00  0.00    +0.000 HD
ENDBRANCH   6  10
BRANCH   4  12
ATOM     12  C   UNL     1       7.333   5.803  19.603  0.00  0.00    +0.000 C 
BRANCH  12  13
ATOM     13  O   UNL     1       8.342   5.286  20.472  0.00  0.00    +0.000 OA
ATOM     14  H   UNL     1       8.538   4.393  20.122  0.00  0.00    +0.000 HD
ENDBRANCH  12  13
ENDBRANCH   4  12
ENDBRANCH   1   2
BRANCH   1  17
ATOM     15  O   UNL     1       2.348   3.369  16.819  0.00  0.00    +0.000 OA
ATOM     16  C   UNL     1       3.074   3.782  17.719  0.00  0.00    +0.000 C 
ATOM     17  N   UNL     1       4.426   3.988  17.570  0.00  0.00    +0.000 N 
ATOM     18  H   UNL     1       4.956   4.428  18.310  0.00  0.00    +0.000 HD
BRANCH  16  19
ATOM     19  C   UNL     1       2.536   4.108  19.100  0.00  0.00    +0.000 C 
BRANCH  19  20
ATOM     20  C   UNL     1       2.214   5.571  19.293  0.00  0.00    +0.000 A 
ATOM     21  C   UNL     1       1.784   6.049  20.543  0.00  0.00    +0.000 A 
ATOM     22  C   UNL     1       1.519   7.406  20.729  0.00  0.00    +0.000 A 
ATOM     23  C   UNL     1       1.692   8.291  19.672  0.00  0.00    +0.000 A 
ATOM     24  F   UNL     1       1.441   9.595  19.850  0.00  0.00    +0.000 F 
ATOM     25  C   UNL     1       2.117   7.840  18.429  0.00  0.00    +0.000 A 
ATOM     26  C   UNL     1       2.384   6.482  18.239  0.00  0.00    +0.000 A 
ENDBRANCH  19  20
ENDBRANCH  16  19
ENDBRANCH   1  17
TORSDOF 8
ENDMDL
MODEL 9
REMARK VINA RESULT:      -6.4      3.071      6.013
REMARK  Name = 
REMARK  8 active torsions:
REMARK  status: ('A' for Active; 'I' for Inactive)
REMARK    1  A    between atoms: C_2  and  C_3
REMARK    2  A    between atoms: C_3  and  C_4
REMARK    3  A    between atoms: N_11  and  C_12
REMARK    4  A    between atoms: C_12  and  C_13
REMARK    5  A    between atoms: CA_15  and  C_16
REMARK    6  A    between atoms: C_16  and  O_17
REMARK    7  A    between atoms: C_18  and  O_19
REMARK    8  A    between atoms: C_20  and  O_21
REMARK                            x       y       z     vdW  Elec       q    Type
REMARK                         _______ _______ _______ _____ _____    ______ ____
ROOT
ATOM      1  C   UNL     1       2.044   4.910  18.369  0.00  0.00    +0.000 C 
ENDROOT
BRANCH   1   2
ATOM      2  C   UNL     1       2.368   4.850  19.875  0.00  0.00    +0.000 C 
ATOM      3  N   UNL     1       3.691   4.178  20.094  0.00  0.00    +0.000 NA
ATOM      4  CA  UNL     1       3.422   2.992  20.961  0.00  0.00    +0.000 C 
ATOM      5  C   UNL     1       1.935   2.664  20.751  0.00  0.00    +0.000 C 
ATOM      6  C   UNL     1       1.337   4.067  20.709  0.00  0.00    +0.000 C 
ATOM      7  H   UNL     1       4.293   4.823  20.610  0.00  0.00    +0.000 HD
BRANCH   5   8
ATOM      8  O   UNL     1       1.624   2.007  19.514  0.00  0.00    +0.000 OA
ATOM      9  H   UNL     1       0.782   2.387  19.180  0.00  0.00    +0.000 HD
ENDBRANCH   5   8
BRANCH   6  10
ATOM     10  O   UNL     1       0.021   4.071  20.185  0.00  0.00    +0.000 OA
ATOM     11  H   UNL     1       0.079   4.533  19.324  0.00  0.00    +0.000 HD
ENDBRANCH   6  10
BRANCH   4  12
ATOM     12  C   UNL     1       4.380   1.849  20.616  0.00  0.00    +0.000 C 
BRANCH  12  13
ATOM     13  O   UNL     1       5.309   2.276  19.617  0.00  0.00    +0.000 OA
ATOM     14  H   UNL     1       6.100   1.718  19.759  0.00  0.00    +0.000 HD
ENDBRANCH  12  13
ENDBRANCH   4  12
ENDBRANCH   1   2
BRANCH   1  17
ATOM     15  O   UNL     1       3.480   2.710  17.283  0.00  0.00    +0.000 OA
ATOM     16  C   UNL     1       3.900   3.850  17.107  0.00  0.00    +0.000 C 
ATOM     17  N   UNL     1       3.256   4.975  17.567  0.00  0.00    +0.000 N 
ATOM     18  H   UNL     1       3.699   5.881  17.485  0.00  0.00    +0.000 HD
BRANCH  16  19
ATOM     19  C   UNL     1       5.188   4.124  16.354  0.00  0.00    +0.000 C 
BRANCH  19  20
ATOM     20  C   UNL     1       6.092   5.117  17.045  0.00  0.00    +0.000 A 
ATOM     21  C   UNL     1       6.954   4.703  18.073  0.00  0.00    +0.000 A 
ATOM     22  C   UNL     1       7.814   5.615  18.687  0.00  0.00    +0.000 A 
ATOM     23  C   UNL     1       7.820   6.940  18.271  0.00  0.00    +0.000 A 
ATOM     24  F   UNL     1       8.647   7.817  18.857  0.00  0.00    +0.000 F 
ATOM     25  C   UNL     1       6.976   7.372  17.255  0.00  0.00    +0.000 A 
ATOM     26  C   UNL     1       6.115   6.460  16.637  0.00  0.00    +0.000 A 
ENDBRANCH  19  20
ENDBRANCH  16  19
ENDBRANCH   1  17
TORSDOF 8
ENDMDL
