MODEL 1
REMARK VINA RESULT:      -9.0      0.000      0.000
REMARK  Name = 
REMARK  8 active torsions:
REMARK  status: ('A' for Active; 'I' for Inactive)
REMARK    1  A    between atoms: C_1  and  C_2
REMARK    2  A    between atoms: N_10  and  C_11
REMARK    3  A    between atoms: C_13  and  O_14
REMARK    4  A    between atoms: O_14  and  C_15
REMARK    5  A    between atoms: C_17  and  O_18
REMARK    6  A    between atoms: O_18  and  C_19
REMARK    7  A    between atoms: C_30  and  O_31
REMARK    8  A    between atoms: C_32  and  O_33
REMARK                            x       y       z     vdW  Elec       q    Type
REMARK                         _______ _______ _______ _____ _____    ______ ____
ROOT
ATOM      1  C   UNL     1       0.633  10.491  19.227  0.00  0.00    +0.000 C 
ATOM      2  C   UNL     1       1.740   9.859  18.381  0.00  0.00    +0.000 C 
ATOM      3  C   UNL     1       2.033   8.458  18.962  0.00  0.00    +0.000 C 
ATOM      4  C   UNL     1       1.055   8.287  20.141  0.00  0.00    +0.000 C 
ATOM      5  C   UNL     1       0.671   9.716  20.545  0.00  0.00    +0.000 C 
ENDROOT
BRANCH   1  15
ATOM      6  C   UNL     1      -5.327  11.231  17.756  0.00  0.00    +0.000 C 
ATOM      7  C   UNL     1      -4.052  11.526  18.480  0.00  0.00    +0.000 A 
ATOM      8  N   UNL     1      -4.088  12.437  19.489  0.00  0.00    +0.000 NA
ATOM      9  C   UNL     1      -2.952  12.688  20.168  0.00  0.00    +0.000 A 
ATOM     10  N   UNL     1      -1.743  12.127  19.995  0.00  0.00    +0.000 NA
ATOM     11  C   UNL     1      -1.743  11.233  18.991  0.00  0.00    +0.000 A 
ATOM     12  C   UNL     1      -2.830  10.901  18.190  0.00  0.00    +0.000 A 
ATOM     13  C   UNL     1      -2.371   9.957  17.235  0.00  0.00    +0.000 A 
ATOM     14  C   UNL     1      -1.031   9.742  17.477  0.00  0.00    +0.000 A 
ATOM     15  N   UNL     1      -0.672  10.473  18.584  0.00  0.00    +0.000 N 
ENDBRANCH   1  15
BRANCH   4  16
ATOM     16  O   UNL     1       1.678   7.607  21.232  0.00  0.00    +0.000 OA
ATOM     17  H   UNL     1       2.128   6.823  20.857  0.00  0.00    +0.000 HD
ENDBRANCH   4  16
BRANCH   5  18
ATOM     18  O   UNL     1       1.665  10.238  21.445  0.00  0.00    +0.000 OA
ATOM     19  H   UNL     1       1.560  11.201  21.536  0.00  0.00    +0.000 HD
ENDBRANCH   5  18
BRANCH   3  20
ATOM     20  O   UNL     1       1.848   7.410  17.984  0.00  0.00    +0.000 OA
BRANCH  20  21
ATOM     21  C   UNL     1       2.953   6.629  17.712  0.00  0.00    +0.000 A 
ATOM     22  C   UNL     1       4.185   7.190  17.348  0.00  0.00    +0.000 A 
ATOM     23  C   UNL     1       5.299   6.407  17.065  0.00  0.00    +0.000 A 
ATOM     24  C   UNL     1       5.181   5.031  17.181  0.00  0.00    +0.000 A 
ATOM     25  F   UNL     1       6.250   4.250  16.970  0.00  0.00    +0.000 F 
ATOM     26  C   UNL     1       3.965   4.429  17.537  0.00  0.00    +0.000 A 
ATOM     27  C   UNL     1       2.825   5.218  17.773  0.00  0.00    +0.000 A 
ATOM     28  C   UNL     1       1.502   4.568  18.115  0.00  0.00    +0.000 C 
ATOM     29  N   UNL     1       1.422   3.106  18.075  0.00  0.00    +0.000 NA
ATOM     30  C   UNL     1       2.651   2.350  18.226  0.00  0.00    +0.000 C 
ATOM     31  C   UNL     1       3.927   2.933  17.625  0.00  0.00    +0.000 C 
ATOM     32  H   UNL     1       0.849   2.774  17.306  0.00  0.00    +0.000 HD
BRANCH  23  33
ATOM     33  O   UNL     1       6.416   7.112  16.739  0.00  0.00    +0.000 OA
BRANCH  33  34
ATOM     34  C   UNL     1       7.274   7.432  17.822  0.00  0.00    +0.000 C 
ATOM     35  F   UNL     1       8.057   6.363  18.104  0.00  0.00    +0.000 F 
ATOM     36  F   UNL     1       8.107   8.412  17.382  0.00  0.00    +0.000 F 
ENDBRANCH  33  34
ENDBRANCH  23  33
ENDBRANCH  20  21
ENDBRANCH   3  20
TORSDOF 7
ENDMDL
MODEL 2
REMARK VINA RESULT:      -8.6      2.376      3.567
REMARK  Name = 
REMARK  8 active torsions:
REMARK  status: ('A' for Active; 'I' for Inactive)
REMARK    1  A    between atoms: C_1  and  C_2
REMARK    2  A    between atoms: N_10  and  C_11
REMARK    3  A    between atoms: C_13  and  O_14
REMARK    4  A    between atoms: O_14  and  C_15
REMARK    5  A    between atoms: C_17  and  O_18
REMARK    6  A    between atoms: O_18  and  C_19
REMARK    7  A    between atoms: C_30  and  O_31
REMARK    8  A    between atoms: C_32  and  O_33
REMARK                            x       y       z     vdW  Elec       q    Type
REMARK                         _______ _______ _______ _____ _____    ______ ____
ROOT
ATOM      1  C   UNL     1       0.518  10.767  19.247  0.00  0.00    +0.000 C 
ATOM      2  C   UNL     1       1.642  10.041  18.505  0.00  0.00    +0.000 C 
ATOM      3  C   UNL     1       1.944   8.735  19.272  0.00  0.00    +0.000 C 
ATOM      4  C   UNL     1       0.954   8.711  20.452  0.00  0.00    +0.000 C 
ATOM      5  C   UNL     1       0.549  10.177  20.658  0.00  0.00    +0.000 C 
ENDROOT
BRANCH   1  15
ATOM      6  C   UNL     1      -5.466  11.085  17.726  0.00  0.00    +0.000 C 
ATOM      7  C   UNL     1      -4.217  11.482  18.446  0.00  0.00    +0.000 A 
ATOM      8  N   UNL     1      -4.316  12.420  19.424  0.00  0.00    +0.000 NA
ATOM      9  C   UNL     1      -3.203  12.764  20.101  0.00  0.00    +0.000 A 
ATOM     10  N   UNL     1      -1.960  12.274  19.952  0.00  0.00    +0.000 NA
ATOM     11  C   UNL     1      -1.897  11.351  18.976  0.00  0.00    +0.000 A 
ATOM     12  C   UNL     1      -2.956  10.926  18.181  0.00  0.00    +0.000 A 
ATOM     13  C   UNL     1      -2.432   9.983  17.259  0.00  0.00    +0.000 A 
ATOM     14  C   UNL     1      -1.083   9.861  17.514  0.00  0.00    +0.000 A 
ATOM     15  N   UNL     1      -0.779  10.647  18.599  0.00  0.00    +0.000 N 
ENDBRANCH   1  15
BRANCH   4  16
ATOM     16  O   UNL     1       1.571   8.192  21.632  0.00  0.00    +0.000 OA
ATOM     17  H   UNL     1       0.848   7.942  22.243  0.00  0.00    +0.000 HD
ENDBRANCH   4  16
BRANCH   5  18
ATOM     18  O   UNL     1       1.527  10.826  21.489  0.00  0.00    +0.000 OA
ATOM     19  H   UNL     1       2.307  10.253  21.595  0.00  0.00    +0.000 HD
ENDBRANCH   5  18
BRANCH   3  20
ATOM     20  O   UNL     1       1.782   7.563  18.441  0.00  0.00    +0.000 OA
BRANCH  20  21
ATOM     21  C   UNL     1       2.549   6.466  18.779  0.00  0.00    +0.000 A 
ATOM     22  C   UNL     1       2.206   5.622  19.844  0.00  0.00    +0.000 A 
ATOM     23  C   UNL     1       2.979   4.521  20.194  0.00  0.00    +0.000 A 
ATOM     24  C   UNL     1       4.107   4.244  19.437  0.00  0.00    +0.000 A 
ATOM     25  F   UNL     1       4.845   3.159  19.712  0.00  0.00    +0.000 F 
ATOM     26  C   UNL     1       4.490   5.066  18.367  0.00  0.00    +0.000 A 
ATOM     27  C   UNL     1       3.735   6.209  18.045  0.00  0.00    +0.000 A 
ATOM     28  C   UNL     1       4.170   7.121  16.918  0.00  0.00    +0.000 C 
ATOM     29  N   UNL     1       5.449   6.843  16.262  0.00  0.00    +0.000 NA
ATOM     30  C   UNL     1       5.974   5.492  16.332  0.00  0.00    +0.000 C 
ATOM     31  C   UNL     1       5.731   4.697  17.612  0.00  0.00    +0.000 C 
ATOM     32  H   UNL     1       6.149   7.547  16.472  0.00  0.00    +0.000 HD
BRANCH  23  33
ATOM     33  O   UNL     1       2.498   3.803  21.244  0.00  0.00    +0.000 OA
BRANCH  33  34
ATOM     34  C   UNL     1       1.290   3.101  21.001  0.00  0.00    +0.000 C 
ATOM     35  F   UNL     1       1.499   2.167  20.042  0.00  0.00    +0.000 F 
ATOM     36  F   UNL     1       0.999   2.421  22.142  0.00  0.00    +0.000 F 
ENDBRANCH  33  34
ENDBRANCH  23  33
ENDBRANCH  20  21
ENDBRANCH   3  20
TORSDOF 7
ENDMDL
MODEL 3
REMARK VINA RESULT:      -8.6      1.159      1.189
REMARK  Name = 
REMARK  8 active torsions:
REMARK  status: ('A' for Active; 'I' for Inactive)
REMARK    1  A    between atoms: C_1  and  C_2
REMARK    2  A    between atoms: N_10  and  C_11
REMARK    3  A    between atoms: C_13  and  O_14
REMARK    4  A    between atoms: O_14  and  C_15
REMARK    5  A    between atoms: C_17  and  O_18
REMARK    6  A    between atoms: O_18  and  C_19
REMARK    7  A    between atoms: C_30  and  O_31
REMARK    8  A    between atoms: C_32  and  O_33
REMARK                            x       y       z     vdW  Elec       q    Type
REMARK                         _______ _______ _______ _____ _____    ______ ____
ROOT
ATOM      1  C   UNL     1       0.463  10.781  19.166  0.00  0.00    +0.000 C 
ATOM      2  C   UNL     1       1.537   9.974  18.432  0.00  0.00    +0.000 C 
ATOM      3  C   UNL     1       1.824   8.707  19.267  0.00  0.00    +0.000 C 
ATOM      4  C   UNL     1       0.875   8.787  20.479  0.00  0.00    +0.000 C 
ATOM      5  C   UNL     1       0.525  10.275  20.608  0.00  0.00    +0.000 C 
ENDROOT
BRANCH   1  15
ATOM      6  C   UNL     1      -5.574  11.127  17.880  0.00  0.00    +0.000 C 
ATOM      7  C   UNL     1      -4.296  11.519  18.549  0.00  0.00    +0.000 A 
ATOM      8  N   UNL     1      -4.352  12.460  19.528  0.00  0.00    +0.000 NA
ATOM      9  C   UNL     1      -3.211  12.799  20.160  0.00  0.00    +0.000 A 
ATOM     10  N   UNL     1      -1.977  12.303  19.963  0.00  0.00    +0.000 NA
ATOM     11  C   UNL     1      -1.958  11.377  18.989  0.00  0.00    +0.000 A 
ATOM     12  C   UNL     1      -3.049  10.956  18.237  0.00  0.00    +0.000 A 
ATOM     13  C   UNL     1      -2.567  10.008  17.297  0.00  0.00    +0.000 A 
ATOM     14  C   UNL     1      -1.210   9.879  17.499  0.00  0.00    +0.000 A 
ATOM     15  N   UNL     1      -0.859  10.667  18.569  0.00  0.00    +0.000 N 
ENDBRANCH   1  15
BRANCH   4  16
ATOM     16  O   UNL     1       1.517   8.319  21.666  0.00  0.00    +0.000 OA
ATOM     17  H   UNL     1       1.072   8.758  22.420  0.00  0.00    +0.000 HD
ENDBRANCH   4  16
BRANCH   5  18
ATOM     18  O   UNL     1       1.552  10.940  21.366  0.00  0.00    +0.000 OA
ATOM     19  H   UNL     1       1.280  11.853  21.565  0.00  0.00    +0.000 HD
ENDBRANCH   5  18
BRANCH   3  20
ATOM     20  O   UNL     1       1.595   7.493  18.515  0.00  0.00    +0.000 OA
BRANCH  20  21
ATOM     21  C   UNL     1       2.619   6.568  18.528  0.00  0.00    +0.000 A 
ATOM     22  C   UNL     1       3.814   6.773  17.824  0.00  0.00    +0.000 A 
ATOM     23  C   UNL     1       4.844   5.840  17.828  0.00  0.00    +0.000 A 
ATOM     24  C   UNL     1       4.684   4.687  18.581  0.00  0.00    +0.000 A 
ATOM     25  F   UNL     1       5.680   3.793  18.652  0.00  0.00    +0.000 F 
ATOM     26  C   UNL     1       3.502   4.440  19.296  0.00  0.00    +0.000 A 
ATOM     27  C   UNL     1       2.439   5.361  19.250  0.00  0.00    +0.000 A 
ATOM     28  C   UNL     1       1.148   5.074  19.986  0.00  0.00    +0.000 C 
ATOM     29  N   UNL     1       1.000   3.772  20.638  0.00  0.00    +0.000 NA
ATOM     30  C   UNL     1       2.204   3.047  20.999  0.00  0.00    +0.000 C 
ATOM     31  C   UNL     1       3.411   3.161  20.072  0.00  0.00    +0.000 C 
ATOM     32  H   UNL     1       0.315   3.185  20.172  0.00  0.00    +0.000 HD
BRANCH  23  33
ATOM     33  O   UNL     1       5.937   6.202  17.102  0.00  0.00    +0.000 OA
BRANCH  33  34
ATOM     34  C   UNL     1       7.083   6.555  17.859  0.00  0.00    +0.000 C 
ATOM     35  F   UNL     1       7.932   5.501  17.904  0.00  0.00    +0.000 F 
ATOM     36  F   UNL     1       7.721   7.533  17.163  0.00  0.00    +0.000 F 
ENDBRANCH  33  34
ENDBRANCH  23  33
ENDBRANCH  20  21
ENDBRANCH   3  20
TORSDOF 7
ENDMDL
MODEL 4
REMARK VINA RESULT:      -8.5      1.531      1.723
REMARK  Name = 
REMARK  8 active torsions:
REMARK  status: ('A' for Active; 'I' for Inactive)
REMARK    1  A    between atoms: C_1  and  C_2
REMARK    2  A    between atoms: N_10  and  C_11
REMARK    3  A    between atoms: C_13  and  O_14
REMARK    4  A    between atoms: O_14  and  C_15
REMARK    5  A    between atoms: C_17  and  O_18
REMARK    6  A    between atoms: O_18  and  C_19
REMARK    7  A    between atoms: C_30  and  O_31
REMARK    8  A    between atoms: C_32  and  O_33
REMARK                            x       y       z     vdW  Elec       q    Type
REMARK                         _______ _______ _______ _____ _____    ______ ____
ROOT
ATOM      1  C   UNL     1       0.518  10.669  19.213  0.00  0.00    +0.000 C 
ATOM      2  C   UNL     1       1.579   9.819  18.511  0.00  0.00    +0.000 C 
ATOM      3  C   UNL     1       1.811   8.556  19.369  0.00  0.00    +0.000 C 
ATOM      4  C   UNL     1       0.843   8.683  20.561  0.00  0.00    +0.000 C 
ATOM      5  C   UNL     1       0.538  10.183  20.663  0.00  0.00    +0.000 C 
ENDROOT
BRANCH   1  15
ATOM      6  C   UNL     1      -5.487  11.159  17.826  0.00  0.00    +0.000 C 
ATOM      7  C   UNL     1      -4.212  11.519  18.519  0.00  0.00    +0.000 A 
ATOM      8  N   UNL     1      -4.262  12.459  19.500  0.00  0.00    +0.000 NA
ATOM      9  C   UNL     1      -3.124  12.769  20.152  0.00  0.00    +0.000 A 
ATOM     10  N   UNL     1      -1.899  12.245  19.974  0.00  0.00    +0.000 NA
ATOM     11  C   UNL     1      -1.885  11.322  18.997  0.00  0.00    +0.000 A 
ATOM     12  C   UNL     1      -2.973  10.928  18.226  0.00  0.00    +0.000 A 
ATOM     13  C   UNL     1      -2.497   9.973  17.291  0.00  0.00    +0.000 A 
ATOM     14  C   UNL     1      -1.147   9.811  17.516  0.00  0.00    +0.000 A 
ATOM     15  N   UNL     1      -0.796  10.587  18.594  0.00  0.00    +0.000 N 
ENDBRANCH   1  15
BRANCH   4  16
ATOM     16  O   UNL     1       1.449   8.212  21.768  0.00  0.00    +0.000 OA
ATOM     17  H   UNL     1       1.515   7.238  21.689  0.00  0.00    +0.000 HD
ENDBRANCH   4  16
BRANCH   5  18
ATOM     18  O   UNL     1       1.571  10.827  21.430  0.00  0.00    +0.000 OA
ATOM     19  H   UNL     1       1.732  11.723  21.086  0.00  0.00    +0.000 HD
ENDBRANCH   5  18
BRANCH   3  20
ATOM     20  O   UNL     1       1.558   7.339  18.630  0.00  0.00    +0.000 OA
BRANCH  20  21
ATOM     21  C   UNL     1       2.582   6.414  18.612  0.00  0.00    +0.000 A 
ATOM     22  C   UNL     1       3.734   6.598  17.834  0.00  0.00    +0.000 A 
ATOM     23  C   UNL     1       4.764   5.666  17.806  0.00  0.00    +0.000 A 
ATOM     24  C   UNL     1       4.650   4.536  18.602  0.00  0.00    +0.000 A 
ATOM     25  F   UNL     1       5.650   3.644  18.642  0.00  0.00    +0.000 F 
ATOM     26  C   UNL     1       3.512   4.310  19.390  0.00  0.00    +0.000 A 
ATOM     27  C   UNL     1       2.447   5.229  19.379  0.00  0.00    +0.000 A 
ATOM     28  C   UNL     1       1.201   4.965  20.196  0.00  0.00    +0.000 C 
ATOM     29  N   UNL     1       1.093   3.682  20.894  0.00  0.00    +0.000 NA
ATOM     30  C   UNL     1       2.318   2.969  21.207  0.00  0.00    +0.000 C 
ATOM     31  C   UNL     1       3.469   3.055  20.209  0.00  0.00    +0.000 C 
ATOM     32  H   UNL     1       0.383   3.082  20.487  0.00  0.00    +0.000 HD
BRANCH  23  33
ATOM     33  O   UNL     1       5.812   6.006  17.008  0.00  0.00    +0.000 OA
BRANCH  33  34
ATOM     34  C   UNL     1       5.715   5.580  15.659  0.00  0.00    +0.000 C 
ATOM     35  F   UNL     1       4.929   4.479  15.592  0.00  0.00    +0.000 F 
ATOM     36  F   UNL     1       5.058   6.562  14.987  0.00  0.00    +0.000 F 
ENDBRANCH  33  34
ENDBRANCH  23  33
ENDBRANCH  20  21
ENDBRANCH   3  20
TORSDOF 7
ENDMDL
MODEL 5
REMARK VINA RESULT:      -8.0      2.346      3.475
REMARK  Name = 
REMARK  8 active torsions:
REMARK  status: ('A' for Active; 'I' for Inactive)
REMARK    1  A    between atoms: C_1  and  C_2
REMARK    2  A    between atoms: N_10  and  C_11
REMARK    3  A    between atoms: C_13  and  O_14
REMARK    4  A    between atoms: O_14  and  C_15
REMARK    5  A    between atoms: C_17  and  O_18
REMARK    6  A    between atoms: O_18  and  C_19
REMARK    7  A    between atoms: C_30  and  O_31
REMARK    8  A    between atoms: C_32  and  O_33
REMARK                            x       y       z     vdW  Elec       q    Type
REMARK                         _______ _______ _______ _____ _____    ______ ____
ROOT
ATOM      1  C   UNL     1       1.043   9.947  19.732  0.00  0.00    +0.000 C 
ATOM      2  C   UNL     1       2.154   9.420  18.821  0.00  0.00    +0.000 C 
ATOM      3  C   UNL     1       2.271   7.898  19.056  0.00  0.00    +0.000 C 
ATOM      4  C   UNL     1       1.189   7.556  20.098  0.00  0.00    +0.000 C 
ATOM      5  C   UNL     1       0.903   8.880  20.819  0.00  0.00    +0.000 C 
ENDROOT
BRANCH   1  15
ATOM      6  C   UNL     1      -4.627  11.799  18.104  0.00  0.00    +0.000 C 
ATOM      7  C   UNL     1      -3.378  11.785  18.926  0.00  0.00    +0.000 A 
ATOM      8  N   UNL     1      -3.354  12.534  20.061  0.00  0.00    +0.000 NA
ATOM      9  C   UNL     1      -2.245  12.507  20.826  0.00  0.00    +0.000 A 
ATOM     10  N   UNL     1      -1.120  11.798  20.627  0.00  0.00    +0.000 NA
ATOM     11  C   UNL     1      -1.178  11.071  19.498  0.00  0.00    +0.000 A 
ATOM     12  C   UNL     1      -2.241  11.029  18.603  0.00  0.00    +0.000 A 
ATOM     13  C   UNL     1      -1.856  10.176  17.537  0.00  0.00    +0.000 A 
ATOM     14  C   UNL     1      -0.582   9.726  17.808  0.00  0.00    +0.000 A 
ATOM     15  N   UNL     1      -0.202  10.223  19.031  0.00  0.00    +0.000 N 
ENDBRANCH   1  15
BRANCH   4  16
ATOM     16  O   UNL     1       1.657   6.573  21.023  0.00  0.00    +0.000 OA
ATOM     17  H   UNL     1       1.599   6.973  21.915  0.00  0.00    +0.000 HD
ENDBRANCH   4  16
BRANCH   5  18
ATOM     18  O   UNL     1       1.864   9.062  21.875  0.00  0.00    +0.000 OA
ATOM     19  H   UNL     1       2.334   8.226  22.045  0.00  0.00    +0.000 HD
ENDBRANCH   5  18
BRANCH   3  20
ATOM     20  O   UNL     1       2.073   7.140  17.841  0.00  0.00    +0.000 OA
BRANCH  20  21
ATOM     21  C   UNL     1       2.600   5.865  17.827  0.00  0.00    +0.000 A 
ATOM     22  C   UNL     1       1.892   4.764  18.329  0.00  0.00    +0.000 A 
ATOM     23  C   UNL     1       2.421   3.479  18.324  0.00  0.00    +0.000 A 
ATOM     24  C   UNL     1       3.679   3.289  17.774  0.00  0.00    +0.000 A 
ATOM     25  F   UNL     1       4.197   2.055  17.702  0.00  0.00    +0.000 F 
ATOM     26  C   UNL     1       4.424   4.363  17.265  0.00  0.00    +0.000 A 
ATOM     27  C   UNL     1       3.909   5.672  17.317  0.00  0.00    +0.000 A 
ATOM     28  C   UNL     1       4.729   6.837  16.808  0.00  0.00    +0.000 C 
ATOM     29  N   UNL     1       6.104   6.576  16.376  0.00  0.00    +0.000 NA
ATOM     30  C   UNL     1       6.448   5.227  15.968  0.00  0.00    +0.000 C 
ATOM     31  C   UNL     1       5.781   4.067  16.701  0.00  0.00    +0.000 C 
ATOM     32  H   UNL     1       6.788   6.981  17.008  0.00  0.00    +0.000 HD
BRANCH  23  33
ATOM     33  O   UNL     1       1.597   2.527  18.840  0.00  0.00    +0.000 OA
BRANCH  33  34
ATOM     34  C   UNL     1       1.664   2.357  20.246  0.00  0.00    +0.000 C 
ATOM     35  F   UNL     1       2.896   2.715  20.682  0.00  0.00    +0.000 F 
ATOM     36  F   UNL     1       0.793   3.249  20.787  0.00  0.00    +0.000 F 
ENDBRANCH  33  34
ENDBRANCH  23  33
ENDBRANCH  20  21
ENDBRANCH   3  20
TORSDOF 7
ENDMDL
MODEL 6
REMARK VINA RESULT:      -7.9      4.243      8.788
REMARK  Name = 
REMARK  8 active torsions:
REMARK  status: ('A' for Active; 'I' for Inactive)
REMARK    1  A    between atoms: C_1  and  C_2
REMARK    2  A    between atoms: N_10  and  C_11
REMARK    3  A    between atoms: C_13  and  O_14
REMARK    4  A    between atoms: O_14  and  C_15
REMARK    5  A    between atoms: C_17  and  O_18
REMARK    6  A    between atoms: O_18  and  C_19
REMARK    7  A    between atoms: C_30  and  O_31
REMARK    8  A    between atoms: C_32  and  O_33
REMARK                            x       y       z     vdW  Elec       q    Type
REMARK                         _______ _______ _______ _____ _____    ______ ____
ROOT
ATOM      1  C   UNL     1       0.806   8.625  20.766  0.00  0.00    +0.000 C 
ATOM      2  C   UNL     1      -0.474   9.245  20.201  0.00  0.00    +0.000 C 
ATOM      3  C   UNL     1      -0.296  10.779  20.210  0.00  0.00    +0.000 C 
ATOM      4  C   UNL     1       1.121  11.027  20.764  0.00  0.00    +0.000 C 
ATOM      5  C   UNL     1       1.462   9.758  21.556  0.00  0.00    +0.000 C 
ENDROOT
BRANCH   1  15
ATOM      6  C   UNL     1       4.682   5.077  17.507  0.00  0.00    +0.000 C 
ATOM      7  C   UNL     1       3.703   5.390  18.593  0.00  0.00    +0.000 A 
ATOM      8  N   UNL     1       3.476   4.441  19.540  0.00  0.00    +0.000 NA
ATOM      9  C   UNL     1       2.618   4.723  20.540  0.00  0.00    +0.000 A 
ATOM     10  N   UNL     1       1.943   5.865  20.754  0.00  0.00    +0.000 NA
ATOM     11  C   UNL     1       2.188   6.780  19.800  0.00  0.00    +0.000 A 
ATOM     12  C   UNL     1       3.022   6.613  18.699  0.00  0.00    +0.000 A 
ATOM     13  C   UNL     1       2.949   7.806  17.935  0.00  0.00    +0.000 A 
ATOM     14  C   UNL     1       2.082   8.659  18.584  0.00  0.00    +0.000 A 
ATOM     15  N   UNL     1       1.673   8.053  19.747  0.00  0.00    +0.000 N 
ENDBRANCH   1  15
BRANCH   4  16
ATOM     16  O   UNL     1       1.145  12.173  21.618  0.00  0.00    +0.000 OA
ATOM     17  H   UNL     1       1.509  12.912  21.088  0.00  0.00    +0.000 HD
ENDBRANCH   4  16
BRANCH   5  18
ATOM     18  O   UNL     1       0.921   9.868  22.884  0.00  0.00    +0.000 OA
ATOM     19  H   UNL     1       0.081  10.359  22.862  0.00  0.00    +0.000 HD
ENDBRANCH   5  18
BRANCH   3  20
ATOM     20  O   UNL     1      -0.440  11.354  18.891  0.00  0.00    +0.000 OA
BRANCH  20  21
ATOM     21  C   UNL     1      -1.682  11.226  18.303  0.00  0.00    +0.000 A 
ATOM     22  C   UNL     1      -1.884  10.438  17.162  0.00  0.00    +0.000 A 
ATOM     23  C   UNL     1      -3.132  10.312  16.562  0.00  0.00    +0.000 A 
ATOM     24  C   UNL     1      -4.208  10.968  17.139  0.00  0.00    +0.000 A 
ATOM     25  F   UNL     1      -5.435  10.823  16.619  0.00  0.00    +0.000 F 
ATOM     26  C   UNL     1      -4.048  11.771  18.279  0.00  0.00    +0.000 A 
ATOM     27  C   UNL     1      -2.776  11.939  18.856  0.00  0.00    +0.000 A 
ATOM     28  C   UNL     1      -2.595  12.838  20.059  0.00  0.00    +0.000 C 
ATOM     29  N   UNL     1      -3.750  13.610  20.522  0.00  0.00    +0.000 NA
ATOM     30  C   UNL     1      -5.076  13.128  20.183  0.00  0.00    +0.000 C 
ATOM     31  C   UNL     1      -5.265  12.453  18.828  0.00  0.00    +0.000 C 
ATOM     32  H   UNL     1      -3.640  14.605  20.352  0.00  0.00    +0.000 HD
BRANCH  23  33
ATOM     33  O   UNL     1      -3.154   9.502  15.469  0.00  0.00    +0.000 OA
BRANCH  33  34
ATOM     34  C   UNL     1      -3.311  10.161  14.223  0.00  0.00    +0.000 C 
ATOM     35  F   UNL     1      -2.414   9.665  13.337  0.00  0.00    +0.000 F 
ATOM     36  F   UNL     1      -4.541   9.820  13.755  0.00  0.00    +0.000 F 
ENDBRANCH  33  34
ENDBRANCH  23  33
ENDBRANCH  20  21
ENDBRANCH   3  20
TORSDOF 7
ENDMDL
MODEL 7
REMARK VINA RESULT:      -7.4      5.397      9.320
REMARK  Name = 
REMARK  8 active torsions:
REMARK  status: ('A' for Active; 'I' for Inactive)
REMARK    1  A    between atoms: C_1  and  C_2
REMARK    2  A    between atoms: N_10  and  C_11
REMARK    3  A    between atoms: C_13  and  O_14
REMARK    4  A    between atoms: O_14  and  C_15
REMARK    5  A    between atoms: C_17  and  O_18
REMARK    6  A    between atoms: O_18  and  C_19
REMARK    7  A    between atoms: C_30  and  O_31
REMARK    8  A    between atoms: C_32  and  O_33
REMARK                            x       y       z     vdW  Elec       q    Type
REMARK                         _______ _______ _______ _____ _____    ______ ____
ROOT
ATOM      1  C   UNL     1       0.344   9.172  20.848  0.00  0.00    +0.000 C 
ATOM      2  C   UNL     1      -1.023   9.745  20.468  0.00  0.00    +0.000 C 
ATOM      3  C   UNL     1      -0.982  11.268  20.723  0.00  0.00    +0.000 C 
ATOM      4  C   UNL     1       0.443  11.563  21.230  0.00  0.00    +0.000 C 
ATOM      5  C   UNL     1       0.952  10.223  21.778  0.00  0.00    +0.000 C 
ENDROOT
BRANCH   1  15
ATOM      6  C   UNL     1       4.395   6.686  16.894  0.00  0.00    +0.000 C 
ATOM      7  C   UNL     1       3.496   6.718  18.088  0.00  0.00    +0.000 A 
ATOM      8  N   UNL     1       3.531   5.659  18.940  0.00  0.00    +0.000 NA
ATOM      9  C   UNL     1       2.747   5.690  20.036  0.00  0.00    +0.000 A 
ATOM     10  N   UNL     1       1.917   6.670  20.433  0.00  0.00    +0.000 NA
ATOM     11  C   UNL     1       1.906   7.699  19.568  0.00  0.00    +0.000 A 
ATOM     12  C   UNL     1       2.636   7.786  18.388  0.00  0.00    +0.000 A 
ATOM     13  C   UNL     1       2.286   9.014  17.770  0.00  0.00    +0.000 A 
ATOM     14  C   UNL     1       1.361   9.636  18.581  0.00  0.00    +0.000 A 
ATOM     15  N   UNL     1       1.183   8.861  19.702  0.00  0.00    +0.000 N 
ENDBRANCH   1  15
BRANCH   4  16
ATOM     16  O   UNL     1       0.428  12.553  22.261  0.00  0.00    +0.000 OA
ATOM     17  H   UNL     1       0.596  12.085  23.105  0.00  0.00    +0.000 HD
ENDBRANCH   4  16
BRANCH   5  18
ATOM     18  O   UNL     1       0.500  10.064  23.135  0.00  0.00    +0.000 OA
ATOM     19  H   UNL     1       1.051  10.599  23.734  0.00  0.00    +0.000 HD
ENDBRANCH   5  18
BRANCH   3  20
ATOM     20  O   UNL     1      -1.270  12.030  19.529  0.00  0.00    +0.000 OA
BRANCH  20  21
ATOM     21  C   UNL     1      -2.585  12.030  19.110  0.00  0.00    +0.000 A 
ATOM     22  C   UNL     1      -3.617  12.550  19.904  0.00  0.00    +0.000 A 
ATOM     23  C   UNL     1      -4.943  12.544  19.490  0.00  0.00    +0.000 A 
ATOM     24  C   UNL     1      -5.238  12.032  18.235  0.00  0.00    +0.000 A 
ATOM     25  F   UNL     1      -6.499  12.063  17.782  0.00  0.00    +0.000 F 
ATOM     26  C   UNL     1      -4.237  11.497  17.411  0.00  0.00    +0.000 A 
ATOM     27  C   UNL     1      -2.902  11.457  17.852  0.00  0.00    +0.000 A 
ATOM     28  C   UNL     1      -1.828  10.840  16.981  0.00  0.00    +0.000 C 
ATOM     29  N   UNL     1      -2.239  10.191  15.735  0.00  0.00    +0.000 NA
ATOM     30  C   UNL     1      -3.500  10.590  15.139  0.00  0.00    +0.000 C 
ATOM     31  C   UNL     1      -4.649  10.954  16.076  0.00  0.00    +0.000 C 
ATOM     32  H   UNL     1      -2.126   9.182  15.773  0.00  0.00    +0.000 HD
BRANCH  23  33
ATOM     33  O   UNL     1      -5.815  13.097  20.377  0.00  0.00    +0.000 OA
BRANCH  33  34
ATOM     34  C   UNL     1      -6.398  12.194  21.302  0.00  0.00    +0.000 C 
ATOM     35  F   UNL     1      -6.919  12.891  22.340  0.00  0.00    +0.000 F 
ATOM     36  F   UNL     1      -7.449  11.611  20.666  0.00  0.00    +0.000 F 
ENDBRANCH  33  34
ENDBRANCH  23  33
ENDBRANCH  20  21
ENDBRANCH   3  20
TORSDOF 7
ENDMDL
MODEL 8
REMARK VINA RESULT:      -7.4      5.000      9.079
REMARK  Name = 
REMARK  8 active torsions:
REMARK  status: ('A' for Active; 'I' for Inactive)
REMARK    1  A    between atoms: C_1  and  C_2
REMARK    2  A    between atoms: N_10  and  C_11
REMARK    3  A    between atoms: C_13  and  O_14
REMARK    4  A    between atoms: O_14  and  C_15
REMARK    5  A    between atoms: C_17  and  O_18
REMARK    6  A    between atoms: O_18  and  C_19
REMARK    7  A    between atoms: C_30  and  O_31
REMARK    8  A    between atoms: C_32  and  O_33
REMARK                            x       y       z     vdW  Elec       q    Type
REMARK                         _______ _______ _______ _____ _____    ______ ____
ROOT
ATOM      1  C   UNL     1       1.048   8.156  21.186  0.00  0.00    +0.000 C 
ATOM      2  C   UNL     1      -0.336   8.634  20.740  0.00  0.00    +0.000 C 
ATOM      3  C   UNL     1      -0.267  10.167  20.560  0.00  0.00    +0.000 C 
ATOM      4  C   UNL     1       1.189  10.555  20.883  0.00  0.00    +0.000 C 
ATOM      5  C   UNL     1       1.720   9.407  21.752  0.00  0.00    +0.000 C 
ENDROOT
BRANCH   1  15
ATOM      6  C   UNL     1       4.402   4.293  17.715  0.00  0.00    +0.000 C 
ATOM      7  C   UNL     1       3.501   4.683  18.842  0.00  0.00    +0.000 A 
ATOM      8  N   UNL     1       3.207   3.741  19.778  0.00  0.00    +0.000 NA
ATOM      9  C   UNL     1       2.421   4.089  20.815  0.00  0.00    +0.000 A 
ATOM     10  N   UNL     1       1.880   5.292  21.077  0.00  0.00    +0.000 NA
ATOM     11  C   UNL     1       2.189   6.197  20.132  0.00  0.00    +0.000 A 
ATOM     12  C   UNL     1       2.961   5.968  18.998  0.00  0.00    +0.000 A 
ATOM     13  C   UNL     1       2.989   7.180  18.262  0.00  0.00    +0.000 A 
ATOM     14  C   UNL     1       2.242   8.105  18.959  0.00  0.00    +0.000 A 
ATOM     15  N   UNL     1       1.812   7.519  20.125  0.00  0.00    +0.000 N 
ENDBRANCH   1  15
BRANCH   4  16
ATOM     16  O   UNL     1       1.245  11.792  21.598  0.00  0.00    +0.000 OA
ATOM     17  H   UNL     1       0.331  12.143  21.627  0.00  0.00    +0.000 HD
ENDBRANCH   4  16
BRANCH   5  18
ATOM     18  O   UNL     1       1.352   9.641  23.123  0.00  0.00    +0.000 OA
ATOM     19  H   UNL     1       2.150   9.701  23.677  0.00  0.00    +0.000 HD
ENDBRANCH   5  18
BRANCH   3  20
ATOM     20  O   UNL     1      -0.623  10.576  19.220  0.00  0.00    +0.000 OA
BRANCH  20  21
ATOM     21  C   UNL     1      -1.866  11.156  19.071  0.00  0.00    +0.000 A 
ATOM     22  C   UNL     1      -2.431  11.966  20.065  0.00  0.00    +0.000 A 
ATOM     23  C   UNL     1      -3.686  12.545  19.923  0.00  0.00    +0.000 A 
ATOM     24  C   UNL     1      -4.379  12.330  18.742  0.00  0.00    +0.000 A 
ATOM     25  F   UNL     1      -5.568  12.919  18.549  0.00  0.00    +0.000 F 
ATOM     26  C   UNL     1      -3.853  11.522  17.723  0.00  0.00    +0.000 A 
ATOM     27  C   UNL     1      -2.605  10.894  17.889  0.00  0.00    +0.000 A 
ATOM     28  C   UNL     1      -2.056   9.987  16.809  0.00  0.00    +0.000 C 
ATOM     29  N   UNL     1      -2.909   9.694  15.656  0.00  0.00    +0.000 NA
ATOM     30  C   UNL     1      -3.967  10.633  15.331  0.00  0.00    +0.000 C 
ATOM     31  C   UNL     1      -4.677  11.335  16.485  0.00  0.00    +0.000 C 
ATOM     32  H   UNL     1      -3.225   8.729  15.647  0.00  0.00    +0.000 HD
BRANCH  23  33
ATOM     33  O   UNL     1      -4.078  13.310  20.978  0.00  0.00    +0.000 OA
BRANCH  33  34
ATOM     34  C   UNL     1      -3.974  12.694  22.251  0.00  0.00    +0.000 C 
ATOM     35  F   UNL     1      -3.231  13.478  23.069  0.00  0.00    +0.000 F 
ATOM     36  F   UNL     1      -5.228  12.672  22.776  0.00  0.00    +0.000 F 
ENDBRANCH  33  34
ENDBRANCH  23  33
ENDBRANCH  20  21
ENDBRANCH   3  20
TORSDOF 7
ENDMDL
MODEL 9
REMARK VINA RESULT:      -7.3      6.462     11.026
REMARK  Name = 
REMARK  8 active torsions:
REMARK  status: ('A' for Active; 'I' for Inactive)
REMARK    1  A    between atoms: C_1  and  C_2
REMARK    2  A    between atoms: N_10  and  C_11
REMARK    3  A    between atoms: C_13  and  O_14
REMARK    4  A    between atoms: O_14  and  C_15
REMARK    5  A    between atoms: C_17  and  O_18
REMARK    6  A    between atoms: O_18  and  C_19
REMARK    7  A    between atoms: C_30  and  O_31
REMARK    8  A    between atoms: C_32  and  O_33
REMARK                            x       y       z     vdW  Elec       q    Type
REMARK                         _______ _______ _______ _____ _____    ______ ____
ROOT
ATOM      1  C   UNL     1       0.177  11.548  19.530  0.00  0.00    +0.000 C 
ATOM      2  C   UNL     1      -0.191  12.528  20.646  0.00  0.00    +0.000 C 
ATOM      3  C   UNL     1      -1.732  12.614  20.706  0.00  0.00    +0.000 C 
ATOM      4  C   UNL     1      -2.242  11.644  19.623  0.00  0.00    +0.000 C 
ATOM      5  C   UNL     1      -1.069  11.492  18.645  0.00  0.00    +0.000 C 
ENDROOT
BRANCH   1  15
ATOM      6  C   UNL     1       2.417   5.815  20.121  0.00  0.00    +0.000 C 
ATOM      7  C   UNL     1       2.235   7.150  19.473  0.00  0.00    +0.000 A 
ATOM      8  N   UNL     1       2.782   7.341  18.243  0.00  0.00    +0.000 NA
ATOM      9  C   UNL     1       2.599   8.530  17.636  0.00  0.00    +0.000 A 
ATOM     10  N   UNL     1       1.906   9.591  18.085  0.00  0.00    +0.000 NA
ATOM     11  C   UNL     1       1.380   9.368  19.302  0.00  0.00    +0.000 A 
ATOM     12  C   UNL     1       1.515   8.206  20.053  0.00  0.00    +0.000 A 
ATOM     13  C   UNL     1       0.843   8.424  21.283  0.00  0.00    +0.000 A 
ATOM     14  C   UNL     1       0.321   9.700  21.249  0.00  0.00    +0.000 A 
ATOM     15  N   UNL     1       0.598  10.243  20.017  0.00  0.00    +0.000 N 
ENDBRANCH   1  15
BRANCH   4  16
ATOM     16  O   UNL     1      -3.387  12.177  18.953  0.00  0.00    +0.000 OA
ATOM     17  H   UNL     1      -4.148  12.062  19.559  0.00  0.00    +0.000 HD
ENDBRANCH   4  16
BRANCH   5  18
ATOM     18  O   UNL     1      -1.101  12.572  17.695  0.00  0.00    +0.000 OA
ATOM     19  H   UNL     1      -0.511  13.290  17.987  0.00  0.00    +0.000 HD
ENDBRANCH   5  18
BRANCH   3  20
ATOM     20  O   UNL     1      -2.250  12.251  22.006  0.00  0.00    +0.000 OA
BRANCH  20  21
ATOM     21  C   UNL     1      -3.133  13.142  22.580  0.00  0.00    +0.000 A 
ATOM     22  C   UNL     1      -4.506  13.113  22.297  0.00  0.00    +0.000 A 
ATOM     23  C   UNL     1      -5.398  14.014  22.866  0.00  0.00    +0.000 A 
ATOM     24  C   UNL     1      -4.905  14.947  23.765  0.00  0.00    +0.000 A 
ATOM     25  F   UNL     1      -5.746  15.795  24.375  0.00  0.00    +0.000 F 
ATOM     26  C   UNL     1      -3.538  15.015  24.072  0.00  0.00    +0.000 A 
ATOM     27  C   UNL     1      -2.628  14.136  23.457  0.00  0.00    +0.000 A 
ATOM     28  C   UNL     1      -1.148  14.237  23.754  0.00  0.00    +0.000 C 
ATOM     29  N   UNL     1      -0.688  15.340  24.600  0.00  0.00    +0.000 NA
ATOM     30  C   UNL     1      -1.642  15.951  25.506  0.00  0.00    +0.000 C 
ATOM     31  C   UNL     1      -3.093  16.065  25.045  0.00  0.00    +0.000 C 
ATOM     32  H   UNL     1      -0.149  16.025  24.078  0.00  0.00    +0.000 HD
BRANCH  23  33
ATOM     33  O   UNL     1      -6.694  13.838  22.492  0.00  0.00    +0.000 OA
BRANCH  33  34
ATOM     34  C   UNL     1      -7.508  13.139  23.419  0.00  0.00    +0.000 C 
ATOM     35  F   UNL     1      -6.753  12.230  24.082  0.00  0.00    +0.000 F 
ATOM     36  F   UNL     1      -7.913  14.048  24.344  0.00  0.00    +0.000 F 
ENDBRANCH  33  34
ENDBRANCH  23  33
ENDBRANCH  20  21
ENDBRANCH   3  20
TORSDOF 7
ENDMDL
