MODEL 1
REMARK VINA RESULT:      -6.9      0.000      0.000
REMARK  Name = 
REMARK  3 active torsions:
REMARK  status: ('A' for Active; 'I' for Inactive)
REMARK    1  A    between atoms: C_1  and  N_2
REMARK    2  A    between atoms: N_2  and  C_3
REMARK    3  A    between atoms: C_4  and  C_6
REMARK                            x       y       z     vdW  Elec       q    Type
REMARK                         _______ _______ _______ _____ _____    ______ ____
ROOT
ATOM      1  C   UNL     1      -0.208  12.669  21.255  0.00  0.00    +0.000 A 
ATOM      2  C   UNL     1       0.303  13.092  20.018  0.00  0.00    +0.000 A 
ATOM      3  C   UNL     1       0.826  12.196  19.106  0.00  0.00    +0.000 A 
ATOM      4  C   UNL     1       0.968  10.871  19.484  0.00  0.00    +0.000 A 
ATOM      5  C   UNL     1       0.592  10.446  20.768  0.00  0.00    +0.000 A 
ATOM      6  C   UNL     1       0.833   9.135  21.187  0.00  0.00    +0.000 A 
ATOM      7  N   UNL     1       0.507   8.705  22.419  0.00  0.00    +0.000 NA
ATOM      8  C   UNL     1      -0.085   9.595  23.218  0.00  0.00    +0.000 A 
ATOM      9  N   UNL     1      -0.388  10.860  22.888  0.00  0.00    +0.000 NA
ATOM     10  C   UNL     1      -0.024  11.325  21.677  0.00  0.00    +0.000 A 
ATOM     11  C   UNL     1       1.479   8.163  20.285  0.00  0.00    +0.000 A 
ATOM     12  C   UNL     1       1.761   6.837  20.668  0.00  0.00    +0.000 A 
ATOM     13  C   UNL     1       2.372   5.948  19.783  0.00  0.00    +0.000 A 
ATOM     14  C   UNL     1       2.717   6.349  18.495  0.00  0.00    +0.000 A 
ATOM     15  C   UNL     1       2.455   7.650  18.088  0.00  0.00    +0.000 A 
ATOM     16  C   UNL     1       1.843   8.544  18.980  0.00  0.00    +0.000 A 
ATOM     17  C   UNL     1       1.582   9.926  18.532  0.00  0.00    +0.000 C 
ATOM     18  O   UNL     1       1.874  10.291  17.398  0.00  0.00    +0.000 OA
ENDROOT
BRANCH   1  22
ATOM     19  C   UNL     1      -2.751  14.958  23.008  0.00  0.00    +0.000 C 
ATOM     20  N   UNL     1      -2.247  13.917  22.125  0.00  0.00    +0.000 N 
ATOM     21  C   UNL     1      -3.251  13.115  21.434  0.00  0.00    +0.000 C 
ATOM     22  C   UNL     1      -0.849  13.690  22.153  0.00  0.00    +0.000 C 
ATOM     23  O   UNL     1      -0.131  14.360  22.897  0.00  0.00    +0.000 OA
ENDBRANCH   1  22
TORSDOF 1
ENDMDL
MODEL 2
REMARK VINA RESULT:      -6.8      2.229      3.230
REMARK  Name = 
REMARK  3 active torsions:
REMARK  status: ('A' for Active; 'I' for Inactive)
REMARK    1  A    between atoms: C_1  and  N_2
REMARK    2  A    between atoms: N_2  and  C_3
REMARK    3  A    between atoms: C_4  and  C_6
REMARK                            x       y       z     vdW  Elec       q    Type
REMARK                         _______ _______ _______ _____ _____    ______ ____
ROOT
ATOM      1  C   UNL     1      -2.012  12.664  21.996  0.00  0.00    +0.000 A 
ATOM      2  C   UNL     1      -1.817  11.772  23.063  0.00  0.00    +0.000 A 
ATOM      3  C   UNL     1      -0.936  10.712  22.967  0.00  0.00    +0.000 A 
ATOM      4  C   UNL     1      -0.339  10.452  21.745  0.00  0.00    +0.000 A 
ATOM      5  C   UNL     1      -0.623  11.248  20.624  0.00  0.00    +0.000 A 
ATOM      6  C   UNL     1      -0.105  10.925  19.367  0.00  0.00    +0.000 A 
ATOM      7  N   UNL     1      -0.379  11.652  18.270  0.00  0.00    +0.000 NA
ATOM      8  C   UNL     1      -1.157  12.720  18.448  0.00  0.00    +0.000 A 
ATOM      9  N   UNL     1      -1.668  13.127  19.622  0.00  0.00    +0.000 NA
ATOM     10  C   UNL     1      -1.446  12.384  20.724  0.00  0.00    +0.000 A 
ATOM     11  C   UNL     1       0.763   9.744  19.192  0.00  0.00    +0.000 A 
ATOM     12  C   UNL     1       1.293   9.366  17.942  0.00  0.00    +0.000 A 
ATOM     13  C   UNL     1       2.112   8.243  17.820  0.00  0.00    +0.000 A 
ATOM     14  C   UNL     1       2.430   7.467  18.932  0.00  0.00    +0.000 A 
ATOM     15  C   UNL     1       1.920   7.813  20.177  0.00  0.00    +0.000 A 
ATOM     16  C   UNL     1       1.094   8.940  20.298  0.00  0.00    +0.000 A 
ATOM     17  C   UNL     1       0.555   9.285  21.628  0.00  0.00    +0.000 C 
ATOM     18  O   UNL     1       0.831   8.615  22.618  0.00  0.00    +0.000 OA
ENDROOT
BRANCH   1  22
ATOM     19  C   UNL     1      -5.049  15.020  22.065  0.00  0.00    +0.000 C 
ATOM     20  N   UNL     1      -4.283  13.801  21.852  0.00  0.00    +0.000 N 
ATOM     21  C   UNL     1      -5.044  12.622  21.452  0.00  0.00    +0.000 C 
ATOM     22  C   UNL     1      -2.913  13.849  22.208  0.00  0.00    +0.000 C 
ATOM     23  O   UNL     1      -2.432  14.885  22.669  0.00  0.00    +0.000 OA
ENDBRANCH   1  22
TORSDOF 1
ENDMDL
MODEL 3
REMARK VINA RESULT:      -6.8      3.825      8.076
REMARK  Name = 
REMARK  3 active torsions:
REMARK  status: ('A' for Active; 'I' for Inactive)
REMARK    1  A    between atoms: C_1  and  N_2
REMARK    2  A    between atoms: N_2  and  C_3
REMARK    3  A    between atoms: C_4  and  C_6
REMARK                            x       y       z     vdW  Elec       q    Type
REMARK                         _______ _______ _______ _____ _____    ______ ____
ROOT
ATOM      1  C   UNL     1       3.103   4.639  19.610  0.00  0.00    +0.000 A 
ATOM      2  C   UNL     1       2.406   4.717  20.826  0.00  0.00    +0.000 A 
ATOM      3  C   UNL     1       1.640   5.820  21.152  0.00  0.00    +0.000 A 
ATOM      4  C   UNL     1       1.675   6.924  20.316  0.00  0.00    +0.000 A 
ATOM      5  C   UNL     1       2.474   6.925  19.162  0.00  0.00    +0.000 A 
ATOM      6  C   UNL     1       2.594   8.073  18.375  0.00  0.00    +0.000 A 
ATOM      7  N   UNL     1       3.370   8.114  17.279  0.00  0.00    +0.000 NA
ATOM      8  C   UNL     1       4.007   6.984  16.964  0.00  0.00    +0.000 A 
ATOM      9  N   UNL     1       3.922   5.826  17.637  0.00  0.00    +0.000 NA
ATOM     10  C   UNL     1       3.189   5.780  18.767  0.00  0.00    +0.000 A 
ATOM     11  C   UNL     1       1.873   9.310  18.735  0.00  0.00    +0.000 A 
ATOM     12  C   UNL     1       1.978  10.498  17.986  0.00  0.00    +0.000 A 
ATOM     13  C   UNL     1       1.277  11.646  18.359  0.00  0.00    +0.000 A 
ATOM     14  C   UNL     1       0.454  11.646  19.482  0.00  0.00    +0.000 A 
ATOM     15  C   UNL     1       0.333  10.490  20.243  0.00  0.00    +0.000 A 
ATOM     16  C   UNL     1       1.040   9.338  19.868  0.00  0.00    +0.000 A 
ATOM     17  C   UNL     1       0.905   8.123  20.696  0.00  0.00    +0.000 C 
ATOM     18  O   UNL     1       0.179   8.105  21.684  0.00  0.00    +0.000 OA
ENDROOT
BRANCH   1  22
ATOM     19  C   UNL     1       3.969   1.080  18.444  0.00  0.00    +0.000 C 
ATOM     20  N   UNL     1       3.170   2.274  18.677  0.00  0.00    +0.000 N 
ATOM     21  C   UNL     1       1.825   2.270  18.112  0.00  0.00    +0.000 C 
ATOM     22  C   UNL     1       3.835   3.368  19.284  0.00  0.00    +0.000 C 
ATOM     23  O   UNL     1       5.026   3.274  19.586  0.00  0.00    +0.000 OA
ENDBRANCH   1  22
TORSDOF 1
ENDMDL
MODEL 4
REMARK VINA RESULT:      -6.7      3.340      5.813
REMARK  Name = 
REMARK  3 active torsions:
REMARK  status: ('A' for Active; 'I' for Inactive)
REMARK    1  A    between atoms: C_1  and  N_2
REMARK    2  A    between atoms: N_2  and  C_3
REMARK    3  A    between atoms: C_4  and  C_6
REMARK                            x       y       z     vdW  Elec       q    Type
REMARK                         _______ _______ _______ _____ _____    ______ ____
ROOT
ATOM      1  C   UNL     1       1.276   7.171  20.752  0.00  0.00    +0.000 A 
ATOM      2  C   UNL     1       1.452   5.851  21.198  0.00  0.00    +0.000 A 
ATOM      3  C   UNL     1       2.386   5.012  20.624  0.00  0.00    +0.000 A 
ATOM      4  C   UNL     1       3.065   5.445  19.497  0.00  0.00    +0.000 A 
ATOM      5  C   UNL     1       2.808   6.711  18.947  0.00  0.00    +0.000 A 
ATOM      6  C   UNL     1       3.413   7.108  17.751  0.00  0.00    +0.000 A 
ATOM      7  N   UNL     1       3.169   8.303  17.186  0.00  0.00    +0.000 NA
ATOM      8  C   UNL     1       2.331   9.107  17.843  0.00  0.00    +0.000 A 
ATOM      9  N   UNL     1       1.735   8.825  19.013  0.00  0.00    +0.000 NA
ATOM     10  C   UNL     1       1.927   7.613  19.569  0.00  0.00    +0.000 A 
ATOM     11  C   UNL     1       4.346   6.208  17.044  0.00  0.00    +0.000 A 
ATOM     12  C   UNL     1       4.964   6.555  15.828  0.00  0.00    +0.000 A 
ATOM     13  C   UNL     1       5.842   5.676  15.192  0.00  0.00    +0.000 A 
ATOM     14  C   UNL     1       6.132   4.432  15.748  0.00  0.00    +0.000 A 
ATOM     15  C   UNL     1       5.535   4.060  16.945  0.00  0.00    +0.000 A 
ATOM     16  C   UNL     1       4.651   4.944  17.581  0.00  0.00    +0.000 A 
ATOM     17  C   UNL     1       4.019   4.526  18.848  0.00  0.00    +0.000 C 
ATOM     18  O   UNL     1       4.270   3.437  19.353  0.00  0.00    +0.000 OA
ENDROOT
BRANCH   1  22
ATOM     19  C   UNL     1      -0.266   9.788  23.108  0.00  0.00    +0.000 C 
ATOM     20  N   UNL     1       0.762   9.018  22.424  0.00  0.00    +0.000 N 
ATOM     21  C   UNL     1       2.141   9.436  22.653  0.00  0.00    +0.000 C 
ATOM     22  C   UNL     1       0.308   8.054  21.490  0.00  0.00    +0.000 C 
ATOM     23  O   UNL     1      -0.899   7.904  21.296  0.00  0.00    +0.000 OA
ENDBRANCH   1  22
TORSDOF 1
ENDMDL
MODEL 5
REMARK VINA RESULT:      -6.7      2.318      3.319
REMARK  Name = 
REMARK  3 active torsions:
REMARK  status: ('A' for Active; 'I' for Inactive)
REMARK    1  A    between atoms: C_1  and  N_2
REMARK    2  A    between atoms: N_2  and  C_3
REMARK    3  A    between atoms: C_4  and  C_6
REMARK                            x       y       z     vdW  Elec       q    Type
REMARK                         _______ _______ _______ _____ _____    ______ ____
ROOT
ATOM      1  C   UNL     1      -2.051  12.547  22.088  0.00  0.00    +0.000 A 
ATOM      2  C   UNL     1      -1.817  11.642  23.135  0.00  0.00    +0.000 A 
ATOM      3  C   UNL     1      -0.914  10.605  23.007  0.00  0.00    +0.000 A 
ATOM      4  C   UNL     1      -0.332  10.379  21.771  0.00  0.00    +0.000 A 
ATOM      5  C   UNL     1      -0.654  11.187  20.669  0.00  0.00    +0.000 A 
ATOM      6  C   UNL     1      -0.150  10.897  19.398  0.00  0.00    +0.000 A 
ATOM      7  N   UNL     1      -0.459  11.636  18.318  0.00  0.00    +0.000 NA
ATOM      8  C   UNL     1      -1.259  12.683  18.528  0.00  0.00    +0.000 A 
ATOM      9  N   UNL     1      -1.758  13.058  19.716  0.00  0.00    +0.000 NA
ATOM     10  C   UNL     1      -1.501  12.302  20.802  0.00  0.00    +0.000 A 
ATOM     11  C   UNL     1       0.742   9.740  19.188  0.00  0.00    +0.000 A 
ATOM     12  C   UNL     1       1.259   9.396  17.924  0.00  0.00    +0.000 A 
ATOM     13  C   UNL     1       2.101   8.294  17.769  0.00  0.00    +0.000 A 
ATOM     14  C   UNL     1       2.456   7.507  18.862  0.00  0.00    +0.000 A 
ATOM     15  C   UNL     1       1.960   7.820  20.120  0.00  0.00    +0.000 A 
ATOM     16  C   UNL     1       1.110   8.926  20.274  0.00  0.00    +0.000 A 
ATOM     17  C   UNL     1       0.586   9.235  21.619  0.00  0.00    +0.000 C 
ATOM     18  O   UNL     1       0.895   8.556  22.593  0.00  0.00    +0.000 OA
ENDROOT
BRANCH   1  22
ATOM     19  C   UNL     1      -3.476  15.983  23.062  0.00  0.00    +0.000 C 
ATOM     20  N   UNL     1      -2.485  14.944  22.821  0.00  0.00    +0.000 N 
ATOM     21  C   UNL     1      -1.088  15.344  22.949  0.00  0.00    +0.000 C 
ATOM     22  C   UNL     1      -2.975  13.707  22.336  0.00  0.00    +0.000 C 
ATOM     23  O   UNL     1      -4.182  13.556  22.142  0.00  0.00    +0.000 OA
ENDBRANCH   1  22
TORSDOF 1
ENDMDL
MODEL 6
REMARK VINA RESULT:      -6.7      1.080      1.376
REMARK  Name = 
REMARK  3 active torsions:
REMARK  status: ('A' for Active; 'I' for Inactive)
REMARK    1  A    between atoms: C_1  and  N_2
REMARK    2  A    between atoms: N_2  and  C_3
REMARK    3  A    between atoms: C_4  and  C_6
REMARK                            x       y       z     vdW  Elec       q    Type
REMARK                         _______ _______ _______ _____ _____    ______ ____
ROOT
ATOM      1  C   UNL     1      -0.824  13.076  22.259  0.00  0.00    +0.000 A 
ATOM      2  C   UNL     1      -0.419  13.862  21.169  0.00  0.00    +0.000 A 
ATOM      3  C   UNL     1       0.146  13.299  20.041  0.00  0.00    +0.000 A 
ATOM      4  C   UNL     1       0.440  11.945  20.050  0.00  0.00    +0.000 A 
ATOM      5  C   UNL     1       0.171  11.161  21.183  0.00  0.00    +0.000 A 
ATOM      6  C   UNL     1       0.563   9.820  21.234  0.00  0.00    +0.000 A 
ATOM      7  N   UNL     1       0.343   9.049  22.313  0.00  0.00    +0.000 NA
ATOM      8  C   UNL     1      -0.296   9.627  23.332  0.00  0.00    +0.000 A 
ATOM      9  N   UNL     1      -0.741  10.894  23.356  0.00  0.00    +0.000 NA
ATOM     10  C   UNL     1      -0.486  11.697  22.305  0.00  0.00    +0.000 A 
ATOM     11  C   UNL     1       1.260   9.195  20.092  0.00  0.00    +0.000 A 
ATOM     12  C   UNL     1       1.691   7.855  20.104  0.00  0.00    +0.000 A 
ATOM     13  C   UNL     1       2.345   7.302  19.002  0.00  0.00    +0.000 A 
ATOM     14  C   UNL     1       2.585   8.061  17.860  0.00  0.00    +0.000 A 
ATOM     15  C   UNL     1       2.173   9.387  17.819  0.00  0.00    +0.000 A 
ATOM     16  C   UNL     1       1.519   9.942  18.929  0.00  0.00    +0.000 A 
ATOM     17  C   UNL     1       1.099  11.356  18.869  0.00  0.00    +0.000 C 
ATOM     18  O   UNL     1       1.296  12.036  17.868  0.00  0.00    +0.000 OA
ENDROOT
BRANCH   1  22
ATOM     19  C   UNL     1      -3.494  14.384  24.697  0.00  0.00    +0.000 C 
ATOM     20  N   UNL     1      -2.925  13.659  23.570  0.00  0.00    +0.000 N 
ATOM     21  C   UNL     1      -3.837  12.791  22.835  0.00  0.00    +0.000 C 
ATOM     22  C   UNL     1      -1.520  13.749  23.410  0.00  0.00    +0.000 C 
ATOM     23  O   UNL     1      -0.851  14.417  24.199  0.00  0.00    +0.000 OA
ENDBRANCH   1  22
TORSDOF 1
ENDMDL
MODEL 7
REMARK VINA RESULT:      -6.6      2.585      4.089
REMARK  Name = 
REMARK  3 active torsions:
REMARK  status: ('A' for Active; 'I' for Inactive)
REMARK    1  A    between atoms: C_1  and  N_2
REMARK    2  A    between atoms: N_2  and  C_3
REMARK    3  A    between atoms: C_4  and  C_6
REMARK                            x       y       z     vdW  Elec       q    Type
REMARK                         _______ _______ _______ _____ _____    ______ ____
ROOT
ATOM      1  C   UNL     1       0.373   9.681  20.755  0.00  0.00    +0.000 A 
ATOM      2  C   UNL     1       0.046   8.627  21.623  0.00  0.00    +0.000 A 
ATOM      3  C   UNL     1       0.671   7.398  21.538  0.00  0.00    +0.000 A 
ATOM      4  C   UNL     1       1.541   7.167  20.484  0.00  0.00    +0.000 A 
ATOM      5  C   UNL     1       1.781   8.159  19.521  0.00  0.00    +0.000 A 
ATOM      6  C   UNL     1       2.574   7.893  18.402  0.00  0.00    +0.000 A 
ATOM      7  N   UNL     1       2.802   8.813  17.449  0.00  0.00    +0.000 NA
ATOM      8  C   UNL     1       2.249  10.012  17.641  0.00  0.00    +0.000 A 
ATOM      9  N   UNL     1       1.506  10.368  18.702  0.00  0.00    +0.000 NA
ATOM     10  C   UNL     1       1.224   9.445  19.642  0.00  0.00    +0.000 A 
ATOM     11  C   UNL     1       3.186   6.563  18.212  0.00  0.00    +0.000 A 
ATOM     12  C   UNL     1       3.976   6.241  17.091  0.00  0.00    +0.000 A 
ATOM     13  C   UNL     1       4.538   4.971  16.951  0.00  0.00    +0.000 A 
ATOM     14  C   UNL     1       4.336   3.990  17.919  0.00  0.00    +0.000 A 
ATOM     15  C   UNL     1       3.560   4.277  19.034  0.00  0.00    +0.000 A 
ATOM     16  C   UNL     1       2.992   5.553  19.172  0.00  0.00    +0.000 A 
ATOM     17  C   UNL     1       2.162   5.834  20.359  0.00  0.00    +0.000 C 
ATOM     18  O   UNL     1       1.980   4.983  21.223  0.00  0.00    +0.000 OA
ENDROOT
BRANCH   1  22
ATOM     19  C   UNL     1      -1.785  12.837  20.355  0.00  0.00    +0.000 C 
ATOM     20  N   UNL     1      -1.250  11.514  20.067  0.00  0.00    +0.000 N 
ATOM     21  C   UNL     1      -1.890  10.782  18.979  0.00  0.00    +0.000 C 
ATOM     22  C   UNL     1      -0.280  11.017  20.972  0.00  0.00    +0.000 C 
ATOM     23  O   UNL     1       0.069  11.698  21.937  0.00  0.00    +0.000 OA
ENDBRANCH   1  22
TORSDOF 1
ENDMDL
MODEL 8
REMARK VINA RESULT:      -6.6      1.690      2.093
REMARK  Name = 
REMARK  3 active torsions:
REMARK  status: ('A' for Active; 'I' for Inactive)
REMARK    1  A    between atoms: C_1  and  N_2
REMARK    2  A    between atoms: N_2  and  C_3
REMARK    3  A    between atoms: C_4  and  C_6
REMARK                            x       y       z     vdW  Elec       q    Type
REMARK                         _______ _______ _______ _____ _____    ______ ____
ROOT
ATOM      1  C   UNL     1      -2.158  12.259  22.125  0.00  0.00    +0.000 A 
ATOM      2  C   UNL     1      -2.315  12.866  20.869  0.00  0.00    +0.000 A 
ATOM      3  C   UNL     1      -1.769  12.316  19.726  0.00  0.00    +0.000 A 
ATOM      4  C   UNL     1      -0.937  11.215  19.850  0.00  0.00    +0.000 A 
ATOM      5  C   UNL     1      -0.652  10.671  21.112  0.00  0.00    +0.000 A 
ATOM      6  C   UNL     1       0.269   9.628  21.250  0.00  0.00    +0.000 A 
ATOM      7  N   UNL     1       0.582   9.102  22.447  0.00  0.00    +0.000 NA
ATOM      8  C   UNL     1      -0.054   9.614  23.502  0.00  0.00    +0.000 A 
ATOM      9  N   UNL     1      -0.979  10.587  23.460  0.00  0.00    +0.000 NA
ATOM     10  C   UNL     1      -1.269  11.162  22.277  0.00  0.00    +0.000 A 
ATOM     11  C   UNL     1       0.955   9.069  20.069  0.00  0.00    +0.000 A 
ATOM     12  C   UNL     1       1.905   8.033  20.160  0.00  0.00    +0.000 A 
ATOM     13  C   UNL     1       2.530   7.531  19.018  0.00  0.00    +0.000 A 
ATOM     14  C   UNL     1       2.228   8.039  17.757  0.00  0.00    +0.000 A 
ATOM     15  C   UNL     1       1.297   9.063  17.636  0.00  0.00    +0.000 A 
ATOM     16  C   UNL     1       0.672   9.569  18.785  0.00  0.00    +0.000 A 
ATOM     17  C   UNL     1      -0.306  10.664  18.636  0.00  0.00    +0.000 C 
ATOM     18  O   UNL     1      -0.588  11.118  17.532  0.00  0.00    +0.000 OA
ENDROOT
BRANCH   1  22
ATOM     19  C   UNL     1      -3.049  14.430  25.171  0.00  0.00    +0.000 C 
ATOM     20  N   UNL     1      -2.298  13.951  24.019  0.00  0.00    +0.000 N 
ATOM     21  C   UNL     1      -1.137  14.745  23.631  0.00  0.00    +0.000 C 
ATOM     22  C   UNL     1      -2.863  12.865  23.307  0.00  0.00    +0.000 C 
ATOM     23  O   UNL     1      -3.933  12.377  23.674  0.00  0.00    +0.000 OA
ENDBRANCH   1  22
TORSDOF 1
ENDMDL
MODEL 9
REMARK VINA RESULT:      -6.5      2.528      3.786
REMARK  Name = 
REMARK  3 active torsions:
REMARK  status: ('A' for Active; 'I' for Inactive)
REMARK    1  A    between atoms: C_1  and  N_2
REMARK    2  A    between atoms: N_2  and  C_3
REMARK    3  A    between atoms: C_4  and  C_6
REMARK                            x       y       z     vdW  Elec       q    Type
REMARK                         _______ _______ _______ _____ _____    ______ ____
ROOT
ATOM      1  C   UNL     1       1.498  10.051  18.746  0.00  0.00    +0.000 A 
ATOM      2  C   UNL     1       2.395   9.799  17.696  0.00  0.00    +0.000 A 
ATOM      3  C   UNL     1       2.895   8.533  17.459  0.00  0.00    +0.000 A 
ATOM      4  C   UNL     1       2.607   7.525  18.364  0.00  0.00    +0.000 A 
ATOM      5  C   UNL     1       1.824   7.783  19.500  0.00  0.00    +0.000 A 
ATOM      6  C   UNL     1       1.620   6.796  20.468  0.00  0.00    +0.000 A 
ATOM      7  N   UNL     1       0.897   7.019  21.579  0.00  0.00    +0.000 NA
ATOM      8  C   UNL     1       0.359   8.234  21.700  0.00  0.00    +0.000 A 
ATOM      9  N   UNL     1       0.470   9.229  20.805  0.00  0.00    +0.000 NA
ATOM     10  C   UNL     1       1.232   9.042  19.710  0.00  0.00    +0.000 A 
ATOM     11  C   UNL     1       2.216   5.454  20.312  0.00  0.00    +0.000 A 
ATOM     12  C   UNL     1       2.056   4.433  21.269  0.00  0.00    +0.000 A 
ATOM     13  C   UNL     1       2.634   3.177  21.081  0.00  0.00    +0.000 A 
ATOM     14  C   UNL     1       3.382   2.899  19.940  0.00  0.00    +0.000 A 
ATOM     15  C   UNL     1       3.560   3.886  18.980  0.00  0.00    +0.000 A 
ATOM     16  C   UNL     1       2.981   5.150  19.171  0.00  0.00    +0.000 A 
ATOM     17  C   UNL     1       3.191   6.188  18.144  0.00  0.00    +0.000 C 
ATOM     18  O   UNL     1       3.842   5.957  17.130  0.00  0.00    +0.000 OA
ENDROOT
BRANCH   1  22
ATOM     19  C   UNL     1      -0.834  13.104  18.589  0.00  0.00    +0.000 C 
ATOM     20  N   UNL     1      -0.395  11.723  18.446  0.00  0.00    +0.000 N 
ATOM     21  C   UNL     1      -1.412  10.764  18.028  0.00  0.00    +0.000 C 
ATOM     22  C   UNL     1       0.921  11.433  18.881  0.00  0.00    +0.000 C 
ATOM     23  O   UNL     1       1.628  12.328  19.347  0.00  0.00    +0.000 OA
ENDBRANCH   1  22
TORSDOF 1
ENDMDL
