MODEL 1
REMARK VINA RESULT:      -7.1      0.000      0.000
REMARK  Name = 
REMARK  7 active torsions:
REMARK  status: ('A' for Active; 'I' for Inactive)
REMARK    1  A    between atoms: C_1  and  C_2
REMARK    2  A    between atoms: C_2  and  C_3
REMARK    3  A    between atoms: C_3  and  O_4
REMARK    4  A    between atoms: C_3  and  C_5
REMARK    5  A    between atoms: C_5  and  N_6
REMARK    6  A    between atoms: C_10  and  C_12
REMARK    7  A    between atoms: N_15  and  C_16
REMARK                            x       y       z     vdW  Elec       q    Type
REMARK                         _______ _______ _______ _____ _____    ______ ____
ROOT
ATOM      1  N   UNL     1       4.086   3.090  18.574  0.00  0.00    +0.000 NA
ATOM      2  C   UNL     1       4.631   3.023  17.196  0.00  0.00    +0.000 C 
ATOM      3  C   UNL     1       4.738   4.381  16.474  0.00  0.00    +0.000 C 
ATOM      4  N   UNL     1       5.486   5.340  17.282  0.00  0.00    +0.000 N 
ATOM      5  C   UNL     1       6.370   6.215  16.642  0.00  0.00    +0.000 C 
ATOM      6  O   UNL     1       6.454   6.256  15.414  0.00  0.00    +0.000 OA
ATOM      7  C   UNL     1       4.989   5.470  18.659  0.00  0.00    +0.000 C 
ATOM      8  C   UNL     1       4.866   4.092  19.341  0.00  0.00    +0.000 C 
ENDROOT
BRANCH   5   9
ATOM      9  C   UNL     1       7.204   7.114  17.465  0.00  0.00    +0.000 A 
ATOM     10  C   UNL     1       7.952   6.743  18.608  0.00  0.00    +0.000 A 
ATOM     11  C   UNL     1       8.615   7.883  18.998  0.00  0.00    +0.000 A 
ATOM     12  N   UNL     1       8.239   8.879  18.125  0.00  0.00    +0.000 N 
ATOM     13  N   UNL     1       7.306   8.438  17.253  0.00  0.00    +0.000 NA
BRANCH  12  14
ATOM     14  C   UNL     1       8.728  10.210  18.039  0.00  0.00    +0.000 A 
ATOM     15  C   UNL     1      10.061  10.482  18.396  0.00  0.00    +0.000 A 
ATOM     16  C   UNL     1      10.560  11.786  18.331  0.00  0.00    +0.000 A 
ATOM     17  C   UNL     1       9.732  12.826  17.914  0.00  0.00    +0.000 A 
ATOM     18  C   UNL     1       8.415  12.551  17.570  0.00  0.00    +0.000 A 
ATOM     19  F   UNL     1       7.617  13.555  17.178  0.00  0.00    +0.000 F 
ATOM     20  C   UNL     1       7.899  11.259  17.628  0.00  0.00    +0.000 A 
ENDBRANCH  12  14
ENDBRANCH   5   9
BRANCH   1  21
ATOM     21  C   UNL     1       2.646   3.395  18.613  0.00  0.00    +0.000 C 
BRANCH  21  22
ATOM     22  C   UNL     1       1.764   2.378  19.376  0.00  0.00    +0.000 C 
BRANCH  22  24
ATOM     23  C   UNL     1       1.768   3.018  21.826  0.00  0.00    +0.000 C 
ATOM     24  C   UNL     1       0.971   3.011  20.527  0.00  0.00    +0.000 C 
ENDBRANCH  22  24
BRANCH  22  25
ATOM     25  O   UNL     1       0.860   1.766  18.447  0.00  0.00    +0.000 OA
ATOM     26  H   UNL     1       0.060   2.318  18.407  0.00  0.00    +0.000 HD
ENDBRANCH  22  25
ENDBRANCH  21  22
ENDBRANCH   1  21
TORSDOF 6
ENDMDL
MODEL 2
REMARK VINA RESULT:      -7.0      1.243      1.578
REMARK  Name = 
REMARK  7 active torsions:
REMARK  status: ('A' for Active; 'I' for Inactive)
REMARK    1  A    between atoms: C_1  and  C_2
REMARK    2  A    between atoms: C_2  and  C_3
REMARK    3  A    between atoms: C_3  and  O_4
REMARK    4  A    between atoms: C_3  and  C_5
REMARK    5  A    between atoms: C_5  and  N_6
REMARK    6  A    between atoms: C_10  and  C_12
REMARK    7  A    between atoms: N_15  and  C_16
REMARK                            x       y       z     vdW  Elec       q    Type
REMARK                         _______ _______ _______ _____ _____    ______ ____
ROOT
ATOM      1  N   UNL     1       3.785   3.087  18.532  0.00  0.00    +0.000 NA
ATOM      2  C   UNL     1       4.200   3.131  17.108  0.00  0.00    +0.000 C 
ATOM      3  C   UNL     1       4.317   4.547  16.510  0.00  0.00    +0.000 C 
ATOM      4  N   UNL     1       5.185   5.386  17.331  0.00  0.00    +0.000 N 
ATOM      5  C   UNL     1       6.056   6.278  16.695  0.00  0.00    +0.000 C 
ATOM      6  O   UNL     1       6.032   6.435  15.474  0.00  0.00    +0.000 OA
ATOM      7  C   UNL     1       4.821   5.403  18.754  0.00  0.00    +0.000 C 
ATOM      8  C   UNL     1       4.684   3.972  19.313  0.00  0.00    +0.000 C 
ENDROOT
BRANCH   5   9
ATOM      9  C   UNL     1       7.009   7.052  17.516  0.00  0.00    +0.000 A 
ATOM     10  C   UNL     1       7.882   6.526  18.498  0.00  0.00    +0.000 A 
ATOM     11  C   UNL     1       8.617   7.598  18.947  0.00  0.00    +0.000 A 
ATOM     12  N   UNL     1       8.163   8.704  18.265  0.00  0.00    +0.000 N 
ATOM     13  N   UNL     1       7.118   8.392  17.467  0.00  0.00    +0.000 NA
BRANCH  12  14
ATOM     14  C   UNL     1       8.672  10.030  18.292  0.00  0.00    +0.000 A 
ATOM     15  C   UNL     1       8.046  11.027  17.522  0.00  0.00    +0.000 A 
ATOM     16  C   UNL     1       8.535  12.336  17.524  0.00  0.00    +0.000 A 
ATOM     17  C   UNL     1       9.655  12.657  18.288  0.00  0.00    +0.000 A 
ATOM     18  C   UNL     1      10.273  11.666  19.040  0.00  0.00    +0.000 A 
ATOM     19  F   UNL     1      11.355  11.975  19.767  0.00  0.00    +0.000 F 
ATOM     20  C   UNL     1       9.800  10.356  19.052  0.00  0.00    +0.000 A 
ENDBRANCH  12  14
ENDBRANCH   5   9
BRANCH   1  21
ATOM     21  C   UNL     1       2.373   3.453  18.735  0.00  0.00    +0.000 C 
BRANCH  21  22
ATOM     22  C   UNL     1       1.758   3.035  20.092  0.00  0.00    +0.000 C 
BRANCH  22  24
ATOM     23  C   UNL     1       1.638   5.476  20.754  0.00  0.00    +0.000 C 
ATOM     24  C   UNL     1       1.996   4.065  21.205  0.00  0.00    +0.000 C 
ENDBRANCH  22  24
BRANCH  22  25
ATOM     25  O   UNL     1       0.350   2.834  19.916  0.00  0.00    +0.000 OA
ATOM     26  H   UNL     1       0.165   2.858  18.961  0.00  0.00    +0.000 HD
ENDBRANCH  22  25
ENDBRANCH  21  22
ENDBRANCH   1  21
TORSDOF 6
ENDMDL
MODEL 3
REMARK VINA RESULT:      -6.9      6.915      8.512
REMARK  Name = 
REMARK  7 active torsions:
REMARK  status: ('A' for Active; 'I' for Inactive)
REMARK    1  A    between atoms: C_1  and  C_2
REMARK    2  A    between atoms: C_2  and  C_3
REMARK    3  A    between atoms: C_3  and  O_4
REMARK    4  A    between atoms: C_3  and  C_5
REMARK    5  A    between atoms: C_5  and  N_6
REMARK    6  A    between atoms: C_10  and  C_12
REMARK    7  A    between atoms: N_15  and  C_16
REMARK                            x       y       z     vdW  Elec       q    Type
REMARK                         _______ _______ _______ _____ _____    ______ ____
ROOT
ATOM      1  N   UNL     1       2.623   5.174  19.060  0.00  0.00    +0.000 NA
ATOM      2  C   UNL     1       2.010   5.251  20.409  0.00  0.00    +0.000 C 
ATOM      3  C   UNL     1       2.173   6.609  21.120  0.00  0.00    +0.000 C 
ATOM      4  N   UNL     1       1.700   7.699  20.270  0.00  0.00    +0.000 N 
ATOM      5  C   UNL     1       1.002   8.758  20.860  0.00  0.00    +0.000 C 
ATOM      6  O   UNL     1       0.868   8.835  22.082  0.00  0.00    +0.000 OA
ATOM      7  C   UNL     1       2.281   7.694  18.921  0.00  0.00    +0.000 C 
ATOM      8  C   UNL     1       2.127   6.314  18.251  0.00  0.00    +0.000 C 
ENDROOT
BRANCH   5   9
ATOM      9  C   UNL     1       0.432   9.809  19.993  0.00  0.00    +0.000 A 
ATOM     10  C   UNL     1       1.095  10.983  19.561  0.00  0.00    +0.000 A 
ATOM     11  C   UNL     1       0.207  11.620  18.727  0.00  0.00    +0.000 A 
ATOM     12  N   UNL     1      -0.935  10.851  18.702  0.00  0.00    +0.000 N 
ATOM     13  N   UNL     1      -0.837   9.802  19.549  0.00  0.00    +0.000 NA
BRANCH  12  14
ATOM     14  C   UNL     1      -2.100  11.023  17.908  0.00  0.00    +0.000 A 
ATOM     15  C   UNL     1      -3.276  11.516  18.503  0.00  0.00    +0.000 A 
ATOM     16  C   UNL     1      -4.437  11.683  17.744  0.00  0.00    +0.000 A 
ATOM     17  C   UNL     1      -4.435  11.354  16.390  0.00  0.00    +0.000 A 
ATOM     18  C   UNL     1      -3.273  10.861  15.811  0.00  0.00    +0.000 A 
ATOM     19  F   UNL     1      -3.276  10.537  14.510  0.00  0.00    +0.000 F 
ATOM     20  C   UNL     1      -2.106  10.689  16.550  0.00  0.00    +0.000 A 
ENDBRANCH  12  14
ENDBRANCH   5   9
BRANCH   1  21
ATOM     21  C   UNL     1       4.095   5.150  19.096  0.00  0.00    +0.000 C 
BRANCH  21  22
ATOM     22  C   UNL     1       4.749   3.758  18.922  0.00  0.00    +0.000 C 
BRANCH  22  24
ATOM     23  C   UNL     1       3.295   1.730  18.491  0.00  0.00    +0.000 C 
ATOM     24  C   UNL     1       4.053   2.892  17.862  0.00  0.00    +0.000 C 
ENDBRANCH  22  24
BRANCH  22  25
ATOM     25  O   UNL     1       6.126   3.938  18.568  0.00  0.00    +0.000 OA
ATOM     26  H   UNL     1       6.289   4.894  18.491  0.00  0.00    +0.000 HD
ENDBRANCH  22  25
ENDBRANCH  21  22
ENDBRANCH   1  21
TORSDOF 6
ENDMDL
MODEL 4
REMARK VINA RESULT:      -6.8      6.939      8.658
REMARK  Name = 
REMARK  7 active torsions:
REMARK  status: ('A' for Active; 'I' for Inactive)
REMARK    1  A    between atoms: C_1  and  C_2
REMARK    2  A    between atoms: C_2  and  C_3
REMARK    3  A    between atoms: C_3  and  O_4
REMARK    4  A    between atoms: C_3  and  C_5
REMARK    5  A    between atoms: C_5  and  N_6
REMARK    6  A    between atoms: C_10  and  C_12
REMARK    7  A    between atoms: N_15  and  C_16
REMARK                            x       y       z     vdW  Elec       q    Type
REMARK                         _______ _______ _______ _____ _____    ______ ____
ROOT
ATOM      1  N   UNL     1       2.720   5.342  18.673  0.00  0.00    +0.000 NA
ATOM      2  C   UNL     1       2.136   5.314  20.037  0.00  0.00    +0.000 C 
ATOM      3  C   UNL     1       2.278   6.627  20.832  0.00  0.00    +0.000 C 
ATOM      4  N   UNL     1       1.755   7.755  20.065  0.00  0.00    +0.000 N 
ATOM      5  C   UNL     1       1.043   8.753  20.739  0.00  0.00    +0.000 C 
ATOM      6  O   UNL     1       0.936   8.747  21.965  0.00  0.00    +0.000 OA
ATOM      7  C   UNL     1       2.305   7.855  18.706  0.00  0.00    +0.000 C 
ATOM      8  C   UNL     1       2.173   6.517  17.951  0.00  0.00    +0.000 C 
ENDROOT
BRANCH   5   9
ATOM      9  C   UNL     1       0.424   9.841  19.954  0.00  0.00    +0.000 A 
ATOM     10  C   UNL     1       1.023  11.084  19.637  0.00  0.00    +0.000 A 
ATOM     11  C   UNL     1       0.110  11.739  18.845  0.00  0.00    +0.000 A 
ATOM     12  N   UNL     1      -0.984  10.912  18.733  0.00  0.00    +0.000 N 
ATOM     13  N   UNL     1      -0.836   9.800  19.488  0.00  0.00    +0.000 NA
BRANCH  12  14
ATOM     14  C   UNL     1      -2.147  11.085  17.935  0.00  0.00    +0.000 A 
ATOM     15  C   UNL     1      -3.313  11.615  18.518  0.00  0.00    +0.000 A 
ATOM     16  C   UNL     1      -4.472  11.784  17.756  0.00  0.00    +0.000 A 
ATOM     17  C   UNL     1      -4.477  11.420  16.411  0.00  0.00    +0.000 A 
ATOM     18  C   UNL     1      -3.325  10.891  15.844  0.00  0.00    +0.000 A 
ATOM     19  F   UNL     1      -3.335  10.534  14.552  0.00  0.00    +0.000 F 
ATOM     20  C   UNL     1      -2.160  10.716  16.586  0.00  0.00    +0.000 A 
ENDBRANCH  12  14
ENDBRANCH   5   9
BRANCH   1  21
ATOM     21  C   UNL     1       4.192   5.358  18.675  0.00  0.00    +0.000 C 
BRANCH  21  22
ATOM     22  C   UNL     1       4.879   4.095  18.103  0.00  0.00    +0.000 C 
BRANCH  22  24
ATOM     23  C   UNL     1       5.429   5.167  15.877  0.00  0.00    +0.000 C 
ATOM     24  C   UNL     1       4.768   3.986  16.577  0.00  0.00    +0.000 C 
ENDBRANCH  22  24
BRANCH  22  25
ATOM     25  O   UNL     1       6.260   4.110  18.486  0.00  0.00    +0.000 OA
ATOM     26  H   UNL     1       6.678   3.312  18.120  0.00  0.00    +0.000 HD
ENDBRANCH  22  25
ENDBRANCH  21  22
ENDBRANCH   1  21
TORSDOF 6
ENDMDL
MODEL 5
REMARK VINA RESULT:      -6.8      6.325      7.908
REMARK  Name = 
REMARK  7 active torsions:
REMARK  status: ('A' for Active; 'I' for Inactive)
REMARK    1  A    between atoms: C_1  and  C_2
REMARK    2  A    between atoms: C_2  and  C_3
REMARK    3  A    between atoms: C_3  and  O_4
REMARK    4  A    between atoms: C_3  and  C_5
REMARK    5  A    between atoms: C_5  and  N_6
REMARK    6  A    between atoms: C_10  and  C_12
REMARK    7  A    between atoms: N_15  and  C_16
REMARK                            x       y       z     vdW  Elec       q    Type
REMARK                         _______ _______ _______ _____ _____    ______ ____
ROOT
ATOM      1  N   UNL     1      -0.810   9.947  21.481  0.00  0.00    +0.000 NA
ATOM      2  C   UNL     1      -0.932  10.442  20.087  0.00  0.00    +0.000 C 
ATOM      3  C   UNL     1       0.405  10.617  19.340  0.00  0.00    +0.000 C 
ATOM      4  N   UNL     1       1.191   9.386  19.388  0.00  0.00    +0.000 N 
ATOM      5  C   UNL     1       1.911   9.003  18.252  0.00  0.00    +0.000 C 
ATOM      6  O   UNL     1       1.972   9.727  17.258  0.00  0.00    +0.000 OA
ATOM      7  C   UNL     1       1.366   8.847  20.744  0.00  0.00    +0.000 C 
ATOM      8  C   UNL     1       0.013   8.713  21.472  0.00  0.00    +0.000 C 
ENDROOT
BRANCH   5   9
ATOM      9  C   UNL     1       2.622   7.708  18.261  0.00  0.00    +0.000 A 
ATOM     10  C   UNL     1       2.211   6.537  18.943  0.00  0.00    +0.000 A 
ATOM     11  C   UNL     1       3.137   5.577  18.611  0.00  0.00    +0.000 A 
ATOM     12  N   UNL     1       4.060   6.182  17.789  0.00  0.00    +0.000 N 
ATOM     13  N   UNL     1       3.804   7.502  17.655  0.00  0.00    +0.000 NA
BRANCH  12  14
ATOM     14  C   UNL     1       5.150   5.590  17.095  0.00  0.00    +0.000 A 
ATOM     15  C   UNL     1       5.083   5.448  15.697  0.00  0.00    +0.000 A 
ATOM     16  C   UNL     1       6.137   4.859  14.994  0.00  0.00    +0.000 A 
ATOM     17  C   UNL     1       7.260   4.403  15.681  0.00  0.00    +0.000 A 
ATOM     18  C   UNL     1       7.316   4.540  17.062  0.00  0.00    +0.000 A 
ATOM     19  F   UNL     1       8.394   4.092  17.722  0.00  0.00    +0.000 F 
ATOM     20  C   UNL     1       6.276   5.125  17.780  0.00  0.00    +0.000 A 
ENDBRANCH  12  14
ENDBRANCH   5   9
BRANCH   1  21
ATOM     21  C   UNL     1      -0.253  10.951  22.403  0.00  0.00    +0.000 C 
BRANCH  21  22
ATOM     22  C   UNL     1      -0.745  12.403  22.193  0.00  0.00    +0.000 C 
BRANCH  22  24
ATOM     23  C   UNL     1      -2.989  12.213  23.349  0.00  0.00    +0.000 C 
ATOM     24  C   UNL     1      -1.634  12.910  23.336  0.00  0.00    +0.000 C 
ENDBRANCH  22  24
BRANCH  22  25
ATOM     25  O   UNL     1       0.397  13.259  22.055  0.00  0.00    +0.000 OA
ATOM     26  H   UNL     1       0.197  14.095  22.510  0.00  0.00    +0.000 HD
ENDBRANCH  22  25
ENDBRANCH  21  22
ENDBRANCH   1  21
TORSDOF 6
ENDMDL
MODEL 6
REMARK VINA RESULT:      -6.8      5.521      7.167
REMARK  Name = 
REMARK  7 active torsions:
REMARK  status: ('A' for Active; 'I' for Inactive)
REMARK    1  A    between atoms: C_1  and  C_2
REMARK    2  A    between atoms: C_2  and  C_3
REMARK    3  A    between atoms: C_3  and  O_4
REMARK    4  A    between atoms: C_3  and  C_5
REMARK    5  A    between atoms: C_5  and  N_6
REMARK    6  A    between atoms: C_10  and  C_12
REMARK    7  A    between atoms: N_15  and  C_16
REMARK                            x       y       z     vdW  Elec       q    Type
REMARK                         _______ _______ _______ _____ _____    ______ ____
ROOT
ATOM      1  N   UNL     1       4.625   4.178  17.637  0.00  0.00    +0.000 NA
ATOM      2  C   UNL     1       3.554   3.782  18.584  0.00  0.00    +0.000 C 
ATOM      3  C   UNL     1       3.310   4.772  19.740  0.00  0.00    +0.000 C 
ATOM      4  N   UNL     1       3.079   6.120  19.228  0.00  0.00    +0.000 N 
ATOM      5  C   UNL     1       2.113   6.919  19.849  0.00  0.00    +0.000 C 
ATOM      6  O   UNL     1       1.533   6.546  20.869  0.00  0.00    +0.000 OA
ATOM      7  C   UNL     1       4.113   6.585  18.293  0.00  0.00    +0.000 C 
ATOM      8  C   UNL     1       4.351   5.559  17.167  0.00  0.00    +0.000 C 
ENDROOT
BRANCH   5   9
ATOM      9  C   UNL     1       1.802   8.242  19.270  0.00  0.00    +0.000 A 
ATOM     10  C   UNL     1       2.170   8.695  17.980  0.00  0.00    +0.000 A 
ATOM     11  C   UNL     1       1.613   9.946  17.858  0.00  0.00    +0.000 A 
ATOM     12  N   UNL     1       0.970  10.212  19.045  0.00  0.00    +0.000 N 
ATOM     13  N   UNL     1       1.167   9.219  19.942  0.00  0.00    +0.000 NA
BRANCH  12  14
ATOM     14  C   UNL     1       0.154  11.326  19.379  0.00  0.00    +0.000 A 
ATOM     15  C   UNL     1      -0.805  11.199  20.400  0.00  0.00    +0.000 A 
ATOM     16  C   UNL     1      -1.627  12.277  20.739  0.00  0.00    +0.000 A 
ATOM     17  C   UNL     1      -1.502  13.486  20.057  0.00  0.00    +0.000 A 
ATOM     18  C   UNL     1      -0.558  13.602  19.045  0.00  0.00    +0.000 A 
ATOM     19  F   UNL     1      -0.445  14.763  18.384  0.00  0.00    +0.000 F 
ATOM     20  C   UNL     1       0.271  12.539  18.693  0.00  0.00    +0.000 A 
ENDBRANCH  12  14
ENDBRANCH   5   9
BRANCH   1  21
ATOM     21  C   UNL     1       5.975   4.071  18.213  0.00  0.00    +0.000 C 
BRANCH  21  22
ATOM     22  C   UNL     1       7.064   4.942  17.541  0.00  0.00    +0.000 C 
BRANCH  22  24
ATOM     23  C   UNL     1       7.757   7.363  17.798  0.00  0.00    +0.000 C 
ATOM     24  C   UNL     1       7.653   6.004  18.479  0.00  0.00    +0.000 C 
ENDBRANCH  22  24
BRANCH  22  25
ATOM     25  O   UNL     1       8.110   4.084  17.067  0.00  0.00    +0.000 OA
ATOM     26  H   UNL     1       8.879   4.206  17.650  0.00  0.00    +0.000 HD
ENDBRANCH  22  25
ENDBRANCH  21  22
ENDBRANCH   1  21
TORSDOF 6
ENDMDL
MODEL 7
REMARK VINA RESULT:      -6.8      6.536      8.860
REMARK  Name = 
REMARK  7 active torsions:
REMARK  status: ('A' for Active; 'I' for Inactive)
REMARK    1  A    between atoms: C_1  and  C_2
REMARK    2  A    between atoms: C_2  and  C_3
REMARK    3  A    between atoms: C_3  and  O_4
REMARK    4  A    between atoms: C_3  and  C_5
REMARK    5  A    between atoms: C_5  and  N_6
REMARK    6  A    between atoms: C_10  and  C_12
REMARK    7  A    between atoms: N_15  and  C_16
REMARK                            x       y       z     vdW  Elec       q    Type
REMARK                         _______ _______ _______ _____ _____    ______ ____
ROOT
ATOM      1  N   UNL     1      -0.719   9.866  21.355  0.00  0.00    +0.000 NA
ATOM      2  C   UNL     1      -0.815  10.333  19.950  0.00  0.00    +0.000 C 
ATOM      3  C   UNL     1       0.535  10.484  19.222  0.00  0.00    +0.000 C 
ATOM      4  N   UNL     1       1.311   9.250  19.308  0.00  0.00    +0.000 N 
ATOM      5  C   UNL     1       2.047   8.840  18.191  0.00  0.00    +0.000 C 
ATOM      6  O   UNL     1       2.129   9.543  17.184  0.00  0.00    +0.000 OA
ATOM      7  C   UNL     1       1.462   8.738  20.677  0.00  0.00    +0.000 C 
ATOM      8  C   UNL     1       0.096   8.627  21.385  0.00  0.00    +0.000 C 
ENDROOT
BRANCH   5   9
ATOM      9  C   UNL     1       2.749   7.541  18.238  0.00  0.00    +0.000 A 
ATOM     10  C   UNL     1       3.900   7.189  17.492  0.00  0.00    +0.000 A 
ATOM     11  C   UNL     1       4.232   5.921  17.907  0.00  0.00    +0.000 A 
ATOM     12  N   UNL     1       3.290   5.549  18.839  0.00  0.00    +0.000 N 
ATOM     13  N   UNL     1       2.331   6.493  18.969  0.00  0.00    +0.000 NA
BRANCH  12  14
ATOM     14  C   UNL     1       3.253   4.376  19.640  0.00  0.00    +0.000 A 
ATOM     15  C   UNL     1       4.301   3.443  19.550  0.00  0.00    +0.000 A 
ATOM     16  C   UNL     1       4.281   2.277  20.319  0.00  0.00    +0.000 A 
ATOM     17  C   UNL     1       3.212   2.032  21.179  0.00  0.00    +0.000 A 
ATOM     18  C   UNL     1       2.176   2.954  21.258  0.00  0.00    +0.000 A 
ATOM     19  F   UNL     1       1.145   2.711  22.079  0.00  0.00    +0.000 F 
ATOM     20  C   UNL     1       2.179   4.122  20.500  0.00  0.00    +0.000 A 
ENDBRANCH  12  14
ENDBRANCH   5   9
BRANCH   1  21
ATOM     21  C   UNL     1      -0.170  10.884  22.266  0.00  0.00    +0.000 C 
BRANCH  21  22
ATOM     22  C   UNL     1      -0.718  12.319  22.079  0.00  0.00    +0.000 C 
BRANCH  22  24
ATOM     23  C   UNL     1      -3.101  12.421  22.928  0.00  0.00    +0.000 C 
ATOM     24  C   UNL     1      -1.645  12.765  23.218  0.00  0.00    +0.000 C 
ENDBRANCH  22  24
BRANCH  22  25
ATOM     25  O   UNL     1       0.388  13.224  21.976  0.00  0.00    +0.000 OA
ATOM     26  H   UNL     1       0.245  13.778  21.190  0.00  0.00    +0.000 HD
ENDBRANCH  22  25
ENDBRANCH  21  22
ENDBRANCH   1  21
TORSDOF 6
ENDMDL
MODEL 8
REMARK VINA RESULT:      -6.8      6.203      7.209
REMARK  Name = 
REMARK  7 active torsions:
REMARK  status: ('A' for Active; 'I' for Inactive)
REMARK    1  A    between atoms: C_1  and  C_2
REMARK    2  A    between atoms: C_2  and  C_3
REMARK    3  A    between atoms: C_3  and  O_4
REMARK    4  A    between atoms: C_3  and  C_5
REMARK    5  A    between atoms: C_5  and  N_6
REMARK    6  A    between atoms: C_10  and  C_12
REMARK    7  A    between atoms: N_15  and  C_16
REMARK                            x       y       z     vdW  Elec       q    Type
REMARK                         _______ _______ _______ _____ _____    ______ ____
ROOT
ATOM      1  N   UNL     1       4.473   4.465  18.899  0.00  0.00    +0.000 NA
ATOM      2  C   UNL     1       4.839   5.577  17.987  0.00  0.00    +0.000 C 
ATOM      3  C   UNL     1       3.647   6.388  17.441  0.00  0.00    +0.000 C 
ATOM      4  N   UNL     1       2.803   6.868  18.532  0.00  0.00    +0.000 N 
ATOM      5  C   UNL     1       2.254   8.151  18.444  0.00  0.00    +0.000 C 
ATOM      6  O   UNL     1       2.387   8.836  17.430  0.00  0.00    +0.000 OA
ATOM      7  C   UNL     1       2.388   5.813  19.468  0.00  0.00    +0.000 C 
ATOM      8  C   UNL     1       3.600   5.004  19.971  0.00  0.00    +0.000 C 
ENDROOT
BRANCH   5   9
ATOM      9  C   UNL     1       1.486   8.679  19.590  0.00  0.00    +0.000 A 
ATOM     10  C   UNL     1       1.526   8.188  20.917  0.00  0.00    +0.000 A 
ATOM     11  C   UNL     1       0.709   9.022  21.642  0.00  0.00    +0.000 A 
ATOM     12  N   UNL     1       0.198   9.944  20.757  0.00  0.00    +0.000 N 
ATOM     13  N   UNL     1       0.590   9.677  19.491  0.00  0.00    +0.000 NA
BRANCH  12  14
ATOM     14  C   UNL     1      -0.611  11.080  21.031  0.00  0.00    +0.000 A 
ATOM     15  C   UNL     1      -1.399  11.631  20.004  0.00  0.00    +0.000 A 
ATOM     16  C   UNL     1      -2.193  12.755  20.247  0.00  0.00    +0.000 A 
ATOM     17  C   UNL     1      -2.202  13.338  21.512  0.00  0.00    +0.000 A 
ATOM     18  C   UNL     1      -1.416  12.793  22.519  0.00  0.00    +0.000 A 
ATOM     19  F   UNL     1      -1.420  13.361  23.733  0.00  0.00    +0.000 F 
ATOM     20  C   UNL     1      -0.619  11.673  22.297  0.00  0.00    +0.000 A 
ENDBRANCH  12  14
ENDBRANCH   5   9
BRANCH   1  21
ATOM     21  C   UNL     1       3.828   3.338  18.206  0.00  0.00    +0.000 C 
BRANCH  21  22
ATOM     22  C   UNL     1       3.584   2.073  19.063  0.00  0.00    +0.000 C 
BRANCH  22  24
ATOM     23  C   UNL     1       1.181   2.567  18.436  0.00  0.00    +0.000 C 
ATOM     24  C   UNL     1       2.106   1.861  19.420  0.00  0.00    +0.000 C 
ENDBRANCH  22  24
BRANCH  22  25
ATOM     25  O   UNL     1       4.075   0.932  18.348  0.00  0.00    +0.000 OA
ATOM     26  H   UNL     1       3.310   0.380  18.111  0.00  0.00    +0.000 HD
ENDBRANCH  22  25
ENDBRANCH  21  22
ENDBRANCH   1  21
TORSDOF 6
ENDMDL
MODEL 9
REMARK VINA RESULT:      -6.8      2.060      2.469
REMARK  Name = 
REMARK  7 active torsions:
REMARK  status: ('A' for Active; 'I' for Inactive)
REMARK    1  A    between atoms: C_1  and  C_2
REMARK    2  A    between atoms: C_2  and  C_3
REMARK    3  A    between atoms: C_3  and  O_4
REMARK    4  A    between atoms: C_3  and  C_5
REMARK    5  A    between atoms: C_5  and  N_6
REMARK    6  A    between atoms: C_10  and  C_12
REMARK    7  A    between atoms: N_15  and  C_16
REMARK                            x       y       z     vdW  Elec       q    Type
REMARK                         _______ _______ _______ _____ _____    ______ ____
ROOT
ATOM      1  N   UNL     1       3.127   5.079  18.886  0.00  0.00    +0.000 NA
ATOM      2  C   UNL     1       4.111   4.504  19.836  0.00  0.00    +0.000 C 
ATOM      3  C   UNL     1       5.539   4.347  19.276  0.00  0.00    +0.000 C 
ATOM      4  N   UNL     1       6.022   5.612  18.728  0.00  0.00    +0.000 N 
ATOM      5  C   UNL     1       7.361   5.964  18.928  0.00  0.00    +0.000 C 
ATOM      6  O   UNL     1       8.153   5.190  19.466  0.00  0.00    +0.000 OA
ATOM      7  C   UNL     1       5.102   6.231  17.764  0.00  0.00    +0.000 C 
ATOM      8  C   UNL     1       3.678   6.346  18.345  0.00  0.00    +0.000 C 
ENDROOT
BRANCH   5   9
ATOM      9  C   UNL     1       7.828   7.287  18.466  0.00  0.00    +0.000 A 
ATOM     10  C   UNL     1       7.513   7.896  17.228  0.00  0.00    +0.000 A 
ATOM     11  C   UNL     1       8.108   9.135  17.266  0.00  0.00    +0.000 A 
ATOM     12  N   UNL     1       8.763   9.222  18.473  0.00  0.00    +0.000 N 
ATOM     13  N   UNL     1       8.677   8.063  19.163  0.00  0.00    +0.000 NA
BRANCH  12  14
ATOM     14  C   UNL     1       9.438  10.340  19.035  0.00  0.00    +0.000 A 
ATOM     15  C   UNL     1      10.329  11.082  18.238  0.00  0.00    +0.000 A 
ATOM     16  C   UNL     1      11.012  12.178  18.771  0.00  0.00    +0.000 A 
ATOM     17  C   UNL     1      10.817  12.536  20.103  0.00  0.00    +0.000 A 
ATOM     18  C   UNL     1       9.941  11.795  20.886  0.00  0.00    +0.000 A 
ATOM     19  F   UNL     1       9.761  12.137  22.170  0.00  0.00    +0.000 F 
ATOM     20  C   UNL     1       9.250  10.700  20.373  0.00  0.00    +0.000 A 
ENDBRANCH  12  14
ENDBRANCH   5   9
BRANCH   1  21
ATOM     21  C   UNL     1       2.762   4.152  17.801  0.00  0.00    +0.000 C 
BRANCH  21  22
ATOM     22  C   UNL     1       2.277   2.752  18.247  0.00  0.00    +0.000 C 
BRANCH  22  24
ATOM     23  C   UNL     1       1.005   2.759  20.436  0.00  0.00    +0.000 C 
ATOM     24  C   UNL     1       0.896   2.776  18.916  0.00  0.00    +0.000 C 
ENDBRANCH  22  24
BRANCH  22  25
ATOM     25  O   UNL     1       2.243   1.892  17.101  0.00  0.00    +0.000 OA
ATOM     26  H   UNL     1       3.042   1.338  17.123  0.00  0.00    +0.000 HD
ENDBRANCH  22  25
ENDBRANCH  21  22
ENDBRANCH   1  21
TORSDOF 6
ENDMDL
