MODEL 1
REMARK VINA RESULT:      -5.5      0.000      0.000
REMARK  Name = 
REMARK  6 active torsions:
REMARK  status: ('A' for Active; 'I' for Inactive)
REMARK    1  A    between atoms: C_1  and  C_2
REMARK    2  A    between atoms: C_2  and  O_4
REMARK    3  A    between atoms: O_4  and  C_5
REMARK    4  A    between atoms: C_5  and  C_6
REMARK    5  A    between atoms: C_5  and  N_7
REMARK    6  A    between atoms: N_7  and  C_8
REMARK                            x       y       z     vdW  Elec       q    Type
REMARK                         _______ _______ _______ _____ _____    ______ ____
ROOT
ATOM      1  N   UNL     1       5.252   3.256  18.739  0.00  0.00    +0.000 N 
ATOM      2  H   UNL     1       5.664   3.108  19.654  0.00  0.00    +0.000 HD
ENDROOT
BRANCH   1   3
ATOM      3  C   UNL     1       3.932   2.991  18.690  0.00  0.00    +0.000 A 
ATOM      4  C   UNL     1       3.175   1.909  18.300  0.00  0.00    +0.000 A 
ATOM      5  C   UNL     1       1.819   2.291  18.463  0.00  0.00    +0.000 A 
ATOM      6  C   UNL     1       1.843   3.576  18.951  0.00  0.00    +0.000 A 
ATOM      7  O   UNL     1       3.122   4.004  19.096  0.00  0.00    +0.000 OA
ENDBRANCH   1   3
BRANCH   1   8
ATOM      8  C   UNL     1       5.791   4.415  18.044  0.00  0.00    +0.000 C 
ATOM      9  C   UNL     1       5.575   4.226  16.543  0.00  0.00    +0.000 C 
BRANCH   8  10
ATOM     10  O   UNL     1       7.194   4.492  18.306  0.00  0.00    +0.000 OA
BRANCH  10  12
ATOM     11  C   UNL     1       7.784   6.758  18.293  0.00  0.00    +0.000 C 
ATOM     12  C   UNL     1       7.566   5.521  19.108  0.00  0.00    +0.000 C 
ATOM     13  O   UNL     1       7.734   5.460  20.317  0.00  0.00    +0.000 OA
ENDBRANCH  10  12
ENDBRANCH   8  10
ENDBRANCH   1   8
TORSDOF 4
ENDMDL
MODEL 2
REMARK VINA RESULT:      -5.3      1.705      2.050
REMARK  Name = 
REMARK  6 active torsions:
REMARK  status: ('A' for Active; 'I' for Inactive)
REMARK    1  A    between atoms: C_1  and  C_2
REMARK    2  A    between atoms: C_2  and  O_4
REMARK    3  A    between atoms: O_4  and  C_5
REMARK    4  A    between atoms: C_5  and  C_6
REMARK    5  A    between atoms: C_5  and  N_7
REMARK    6  A    between atoms: N_7  and  C_8
REMARK                            x       y       z     vdW  Elec       q    Type
REMARK                         _______ _______ _______ _____ _____    ______ ____
ROOT
ATOM      1  N   UNL     1       5.200   3.649  16.852  0.00  0.00    +0.000 N 
ATOM      2  H   UNL     1       5.664   3.060  17.535  0.00  0.00    +0.000 HD
ENDROOT
BRANCH   1   3
ATOM      3  C   UNL     1       4.023   4.147  17.279  0.00  0.00    +0.000 A 
ATOM      4  C   UNL     1       3.635   5.300  17.926  0.00  0.00    +0.000 A 
ATOM      5  C   UNL     1       2.235   5.196  18.122  0.00  0.00    +0.000 A 
ATOM      6  C   UNL     1       1.863   3.992  17.572  0.00  0.00    +0.000 A 
ATOM      7  O   UNL     1       2.943   3.354  17.054  0.00  0.00    +0.000 OA
ENDBRANCH   1   3
BRANCH   1   8
ATOM      8  C   UNL     1       6.115   4.486  16.093  0.00  0.00    +0.000 C 
ATOM      9  C   UNL     1       6.174   3.964  14.658  0.00  0.00    +0.000 C 
BRANCH   8  10
ATOM     10  O   UNL     1       7.415   4.388  16.678  0.00  0.00    +0.000 OA
BRANCH  10  12
ATOM     11  C   UNL     1       7.230   6.557  17.541  0.00  0.00    +0.000 C 
ATOM     12  C   UNL     1       7.589   5.126  17.802  0.00  0.00    +0.000 C 
ATOM     13  O   UNL     1       8.006   4.710  18.873  0.00  0.00    +0.000 OA
ENDBRANCH  10  12
ENDBRANCH   8  10
ENDBRANCH   1   8
TORSDOF 4
ENDMDL
MODEL 3
REMARK VINA RESULT:      -5.3      1.752      2.029
REMARK  Name = 
REMARK  6 active torsions:
REMARK  status: ('A' for Active; 'I' for Inactive)
REMARK    1  A    between atoms: C_1  and  C_2
REMARK    2  A    between atoms: C_2  and  O_4
REMARK    3  A    between atoms: O_4  and  C_5
REMARK    4  A    between atoms: C_5  and  C_6
REMARK    5  A    between atoms: C_5  and  N_7
REMARK    6  A    between atoms: N_7  and  C_8
REMARK                            x       y       z     vdW  Elec       q    Type
REMARK                         _______ _______ _______ _____ _____    ______ ____
ROOT
ATOM      1  N   UNL     1       4.986   3.432  16.839  0.00  0.00    +0.000 N 
ATOM      2  H   UNL     1       5.481   2.831  17.489  0.00  0.00    +0.000 HD
ENDROOT
BRANCH   1   3
ATOM      3  C   UNL     1       3.760   3.795  17.264  0.00  0.00    +0.000 A 
ATOM      4  C   UNL     1       2.549   3.150  17.394  0.00  0.00    +0.000 A 
ATOM      5  C   UNL     1       1.631   4.119  17.872  0.00  0.00    +0.000 A 
ATOM      6  C   UNL     1       2.346   5.284  18.011  0.00  0.00    +0.000 A 
ATOM      7  O   UNL     1       3.640   5.092  17.648  0.00  0.00    +0.000 OA
ENDBRANCH   1   3
BRANCH   1   8
ATOM      8  C   UNL     1       5.846   4.401  16.178  0.00  0.00    +0.000 C 
ATOM      9  C   UNL     1       6.146   3.902  14.765  0.00  0.00    +0.000 C 
BRANCH   8  10
ATOM     10  O   UNL     1       7.071   4.496  16.908  0.00  0.00    +0.000 OA
BRANCH  10  12
ATOM     11  C   UNL     1       7.463   5.772  18.832  0.00  0.00    +0.000 C 
ATOM     12  C   UNL     1       7.381   5.745  17.337  0.00  0.00    +0.000 C 
ATOM     13  O   UNL     1       7.543   6.726  16.624  0.00  0.00    +0.000 OA
ENDBRANCH  10  12
ENDBRANCH   8  10
ENDBRANCH   1   8
TORSDOF 4
ENDMDL
MODEL 4
REMARK VINA RESULT:      -5.3      3.884      5.075
REMARK  Name = 
REMARK  6 active torsions:
REMARK  status: ('A' for Active; 'I' for Inactive)
REMARK    1  A    between atoms: C_1  and  C_2
REMARK    2  A    between atoms: C_2  and  O_4
REMARK    3  A    between atoms: O_4  and  C_5
REMARK    4  A    between atoms: C_5  and  C_6
REMARK    5  A    between atoms: C_5  and  N_7
REMARK    6  A    between atoms: N_7  and  C_8
REMARK                            x       y       z     vdW  Elec       q    Type
REMARK                         _______ _______ _______ _____ _____    ______ ____
ROOT
ATOM      1  N   UNL     1       7.228   5.555  15.006  0.00  0.00    +0.000 N 
ATOM      2  H   UNL     1       8.225   5.533  15.194  0.00  0.00    +0.000 HD
ENDROOT
BRANCH   1   3
ATOM      3  C   UNL     1       6.857   4.780  13.968  0.00  0.00    +0.000 A 
ATOM      4  C   UNL     1       5.878   3.832  13.767  0.00  0.00    +0.000 A 
ATOM      5  C   UNL     1       6.049   3.357  12.442  0.00  0.00    +0.000 A 
ATOM      6  C   UNL     1       7.113   4.055  11.923  0.00  0.00    +0.000 A 
ATOM      7  O   UNL     1       7.604   4.924  12.843  0.00  0.00    +0.000 OA
ENDBRANCH   1   3
BRANCH   1   8
ATOM      8  C   UNL     1       6.414   5.602  16.210  0.00  0.00    +0.000 C 
ATOM      9  C   UNL     1       5.246   6.559  15.971  0.00  0.00    +0.000 C 
BRANCH   8  10
ATOM     10  O   UNL     1       7.214   6.104  17.283  0.00  0.00    +0.000 OA
BRANCH  10  12
ATOM     11  C   UNL     1       7.604   5.564  19.528  0.00  0.00    +0.000 C 
ATOM     12  C   UNL     1       7.736   5.151  18.095  0.00  0.00    +0.000 C 
ATOM     13  O   UNL     1       8.270   4.114  17.728  0.00  0.00    +0.000 OA
ENDBRANCH  10  12
ENDBRANCH   8  10
ENDBRANCH   1   8
TORSDOF 4
ENDMDL
MODEL 5
REMARK VINA RESULT:      -5.2      1.729      4.506
REMARK  Name = 
REMARK  6 active torsions:
REMARK  status: ('A' for Active; 'I' for Inactive)
REMARK    1  A    between atoms: C_1  and  C_2
REMARK    2  A    between atoms: C_2  and  O_4
REMARK    3  A    between atoms: O_4  and  C_5
REMARK    4  A    between atoms: C_5  and  C_6
REMARK    5  A    between atoms: C_5  and  N_7
REMARK    6  A    between atoms: N_7  and  C_8
REMARK                            x       y       z     vdW  Elec       q    Type
REMARK                         _______ _______ _______ _____ _____    ______ ____
ROOT
ATOM      1  N   UNL     1       5.369   3.201  19.015  0.00  0.00    +0.000 N 
ATOM      2  H   UNL     1       6.074   2.536  18.716  0.00  0.00    +0.000 HD
ENDROOT
BRANCH   1   3
ATOM      3  C   UNL     1       5.196   4.227  18.159  0.00  0.00    +0.000 A 
ATOM      4  C   UNL     1       4.727   4.345  16.869  0.00  0.00    +0.000 A 
ATOM      5  C   UNL     1       4.841   5.716  16.527  0.00  0.00    +0.000 A 
ATOM      6  C   UNL     1       5.362   6.342  17.634  0.00  0.00    +0.000 A 
ATOM      7  O   UNL     1       5.575   5.444  18.629  0.00  0.00    +0.000 OA
ENDBRANCH   1   3
BRANCH   1   8
ATOM      8  C   UNL     1       4.219   2.578  19.651  0.00  0.00    +0.000 C 
ATOM      9  C   UNL     1       3.534   1.668  18.632  0.00  0.00    +0.000 C 
BRANCH   8  10
ATOM     10  O   UNL     1       3.305   3.603  20.047  0.00  0.00    +0.000 OA
BRANCH  10  12
ATOM     11  C   UNL     1       1.024   3.652  20.572  0.00  0.00    +0.000 C 
ATOM     12  C   UNL     1       2.399   3.225  20.982  0.00  0.00    +0.000 C 
ATOM     13  O   UNL     1       2.652   2.647  22.030  0.00  0.00    +0.000 OA
ENDBRANCH  10  12
ENDBRANCH   8  10
ENDBRANCH   1   8
TORSDOF 4
ENDMDL
MODEL 6
REMARK VINA RESULT:      -5.1      1.677      4.776
REMARK  Name = 
REMARK  6 active torsions:
REMARK  status: ('A' for Active; 'I' for Inactive)
REMARK    1  A    between atoms: C_1  and  C_2
REMARK    2  A    between atoms: C_2  and  O_4
REMARK    3  A    between atoms: O_4  and  C_5
REMARK    4  A    between atoms: C_5  and  C_6
REMARK    5  A    between atoms: C_5  and  N_7
REMARK    6  A    between atoms: N_7  and  C_8
REMARK                            x       y       z     vdW  Elec       q    Type
REMARK                         _______ _______ _______ _____ _____    ______ ____
ROOT
ATOM      1  N   UNL     1       4.573   4.934  18.909  0.00  0.00    +0.000 N 
ATOM      2  H   UNL     1       4.168   5.069  19.830  0.00  0.00    +0.000 HD
ENDROOT
BRANCH   1   3
ATOM      3  C   UNL     1       5.792   5.489  18.768  0.00  0.00    +0.000 A 
ATOM      4  C   UNL     1       6.373   6.333  17.847  0.00  0.00    +0.000 A 
ATOM      5  C   UNL     1       7.718   6.509  18.259  0.00  0.00    +0.000 A 
ATOM      6  C   UNL     1       7.863   5.768  19.408  0.00  0.00    +0.000 A 
ATOM      7  O   UNL     1       6.696   5.151  19.724  0.00  0.00    +0.000 OA
ENDBRANCH   1   3
BRANCH   1   8
ATOM      8  C   UNL     1       4.295   3.624  18.341  0.00  0.00    +0.000 C 
ATOM      9  C   UNL     1       3.757   3.812  16.923  0.00  0.00    +0.000 C 
BRANCH   8  10
ATOM     10  O   UNL     1       3.296   2.984  19.138  0.00  0.00    +0.000 OA
BRANCH  10  12
ATOM     11  C   UNL     1       2.666   2.655  21.369  0.00  0.00    +0.000 C 
ATOM     12  C   UNL     1       3.736   2.514  20.331  0.00  0.00    +0.000 C 
ATOM     13  O   UNL     1       4.851   2.064  20.554  0.00  0.00    +0.000 OA
ENDBRANCH  10  12
ENDBRANCH   8  10
ENDBRANCH   1   8
TORSDOF 4
ENDMDL
MODEL 7
REMARK VINA RESULT:      -5.1      1.435      1.740
REMARK  Name = 
REMARK  6 active torsions:
REMARK  status: ('A' for Active; 'I' for Inactive)
REMARK    1  A    between atoms: C_1  and  C_2
REMARK    2  A    between atoms: C_2  and  O_4
REMARK    3  A    between atoms: O_4  and  C_5
REMARK    4  A    between atoms: C_5  and  C_6
REMARK    5  A    between atoms: C_5  and  N_7
REMARK    6  A    between atoms: N_7  and  C_8
REMARK                            x       y       z     vdW  Elec       q    Type
REMARK                         _______ _______ _______ _____ _____    ______ ____
ROOT
ATOM      1  N   UNL     1       4.355   3.721  19.202  0.00  0.00    +0.000 N 
ATOM      2  H   UNL     1       4.992   2.989  19.499  0.00  0.00    +0.000 HD
ENDROOT
BRANCH   1   3
ATOM      3  C   UNL     1       3.099   3.564  19.665  0.00  0.00    +0.000 A 
ATOM      4  C   UNL     1       2.451   3.885  20.838  0.00  0.00    +0.000 A 
ATOM      5  C   UNL     1       1.123   3.407  20.703  0.00  0.00    +0.000 A 
ATOM      6  C   UNL     1       1.049   2.836  19.455  0.00  0.00    +0.000 A 
ATOM      7  O   UNL     1       2.244   2.933  18.819  0.00  0.00    +0.000 OA
ENDBRANCH   1   3
BRANCH   1   8
ATOM      8  C   UNL     1       4.963   5.041  19.172  0.00  0.00    +0.000 C 
ATOM      9  C   UNL     1       4.081   5.965  18.333  0.00  0.00    +0.000 C 
BRANCH   8  10
ATOM     10  O   UNL     1       6.248   4.938  18.555  0.00  0.00    +0.000 OA
BRANCH  10  12
ATOM     11  C   UNL     1       7.754   6.711  18.285  0.00  0.00    +0.000 C 
ATOM     12  C   UNL     1       7.234   5.628  19.180  0.00  0.00    +0.000 C 
ATOM     13  O   UNL     1       7.672   5.397  20.298  0.00  0.00    +0.000 OA
ENDBRANCH  10  12
ENDBRANCH   8  10
ENDBRANCH   1   8
TORSDOF 4
ENDMDL
MODEL 8
REMARK VINA RESULT:      -5.1      1.732      2.189
REMARK  Name = 
REMARK  6 active torsions:
REMARK  status: ('A' for Active; 'I' for Inactive)
REMARK    1  A    between atoms: C_1  and  C_2
REMARK    2  A    between atoms: C_2  and  O_4
REMARK    3  A    between atoms: O_4  and  C_5
REMARK    4  A    between atoms: C_5  and  C_6
REMARK    5  A    between atoms: C_5  and  N_7
REMARK    6  A    between atoms: N_7  and  C_8
REMARK                            x       y       z     vdW  Elec       q    Type
REMARK                         _______ _______ _______ _____ _____    ______ ____
ROOT
ATOM      1  N   UNL     1       5.294   3.160  19.216  0.00  0.00    +0.000 N 
ATOM      2  H   UNL     1       5.851   2.899  20.023  0.00  0.00    +0.000 HD
ENDROOT
BRANCH   1   3
ATOM      3  C   UNL     1       3.988   2.852  19.338  0.00  0.00    +0.000 A 
ATOM      4  C   UNL     1       3.099   2.795  20.389  0.00  0.00    +0.000 A 
ATOM      5  C   UNL     1       1.866   2.358  19.844  0.00  0.00    +0.000 A 
ATOM      6  C   UNL     1       2.083   2.188  18.498  0.00  0.00    +0.000 A 
ATOM      7  O   UNL     1       3.368   2.491  18.184  0.00  0.00    +0.000 OA
ENDBRANCH   1   3
BRANCH   1   8
ATOM      8  C   UNL     1       5.694   4.426  18.623  0.00  0.00    +0.000 C 
ATOM      9  C   UNL     1       4.641   5.479  18.969  0.00  0.00    +0.000 C 
BRANCH   8  10
ATOM     10  O   UNL     1       5.746   4.269  17.204  0.00  0.00    +0.000 OA
BRANCH  10  12
ATOM     11  C   UNL     1       6.827   4.854  15.210  0.00  0.00    +0.000 C 
ATOM     12  C   UNL     1       6.968   4.482  16.654  0.00  0.00    +0.000 C 
ATOM     13  O   UNL     1       8.041   4.363  17.228  0.00  0.00    +0.000 OA
ENDBRANCH  10  12
ENDBRANCH   8  10
ENDBRANCH   1   8
TORSDOF 4
ENDMDL
MODEL 9
REMARK VINA RESULT:      -5.1      1.834      2.106
REMARK  Name = 
REMARK  6 active torsions:
REMARK  status: ('A' for Active; 'I' for Inactive)
REMARK    1  A    between atoms: C_1  and  C_2
REMARK    2  A    between atoms: C_2  and  O_4
REMARK    3  A    between atoms: O_4  and  C_5
REMARK    4  A    between atoms: C_5  and  C_6
REMARK    5  A    between atoms: C_5  and  N_7
REMARK    6  A    between atoms: N_7  and  C_8
REMARK                            x       y       z     vdW  Elec       q    Type
REMARK                         _______ _______ _______ _____ _____    ______ ____
ROOT
ATOM      1  N   UNL     1       3.831   4.810  17.378  0.00  0.00    +0.000 N 
ATOM      2  H   UNL     1       4.601   4.346  16.907  0.00  0.00    +0.000 HD
ENDROOT
BRANCH   1   3
ATOM      3  C   UNL     1       2.886   3.964  17.831  0.00  0.00    +0.000 A 
ATOM      4  C   UNL     1       1.514   4.014  17.947  0.00  0.00    +0.000 A 
ATOM      5  C   UNL     1       1.120   2.792  18.548  0.00  0.00    +0.000 A 
ATOM      6  C   UNL     1       2.276   2.076  18.747  0.00  0.00    +0.000 A 
ATOM      7  O   UNL     1       3.350   2.780  18.310  0.00  0.00    +0.000 OA
ENDBRANCH   1   3
BRANCH   1   8
ATOM      8  C   UNL     1       4.247   5.944  18.188  0.00  0.00    +0.000 C 
ATOM      9  C   UNL     1       3.495   7.186  17.711  0.00  0.00    +0.000 C 
BRANCH   8  10
ATOM     10  O   UNL     1       5.649   6.148  18.001  0.00  0.00    +0.000 OA
BRANCH  10  12
ATOM     11  C   UNL     1       7.807   6.014  18.902  0.00  0.00    +0.000 C 
ATOM     12  C   UNL     1       6.444   5.400  18.806  0.00  0.00    +0.000 C 
ATOM     13  O   UNL     1       6.124   4.357  19.358  0.00  0.00    +0.000 OA
ENDBRANCH  10  12
ENDBRANCH   8  10
ENDBRANCH   1   8
TORSDOF 4
ENDMDL
