MODEL 1
REMARK VINA RESULT:      -6.5      0.000      0.000
REMARK  Name = 
REMARK  2 active torsions:
REMARK  status: ('A' for Active; 'I' for Inactive)
REMARK    1  A    between atoms: C_2  and  C_4
REMARK    2  A    between atoms: C_6  and  C_7
REMARK                            x       y       z     vdW  Elec       q    Type
REMARK                         _______ _______ _______ _____ _____    ______ ____
ROOT
ATOM      1  C   UNL     1       6.662   4.985  15.603  0.00  0.00    +0.000 A 
ATOM      2  C   UNL     1       5.749   4.223  16.292  0.00  0.00    +0.000 A 
ATOM      3  C   UNL     1       5.601   4.562  17.616  0.00  0.00    +0.000 A 
ATOM      4  N   UNL     1       6.275   5.565  18.227  0.00  0.00    +0.000 NA
ATOM      5  C   UNL     1       7.124   6.225  17.438  0.00  0.00    +0.000 A 
ATOM      6 CL   UNL     1       7.996   7.499  18.164  0.00  0.00    +0.000 Cl
ATOM      7  N   UNL     1       7.374   5.999  16.147  0.00  0.00    +0.000 NA
ENDROOT
BRANCH   1   9
ATOM      8  N   UNL     1       6.302   3.577  13.661  0.00  0.00    +0.000 N 
ATOM      9  C   UNL     1       6.914   4.692  14.160  0.00  0.00    +0.000 C 
ATOM     10  O   UNL     1       7.619   5.408  13.463  0.00  0.00    +0.000 OA
ATOM     11  H   UNL     1       6.428   3.340  12.686  0.00  0.00    +0.000 HD
ATOM     12  H   UNL     1       5.710   3.001  14.248  0.00  0.00    +0.000 HD
ENDBRANCH   1   9
BRANCH   3  13
ATOM     13  C   UNL     1       4.651   3.785  18.466  0.00  0.00    +0.000 C 
ATOM     14  N   UNL     1       5.212   3.051  19.474  0.00  0.00    +0.000 N 
ATOM     15  O   UNL     1       3.442   3.798  18.273  0.00  0.00    +0.000 OA
ATOM     16  H   UNL     1       6.216   3.046  19.617  0.00  0.00    +0.000 HD
ATOM     17  H   UNL     1       4.614   2.499  20.073  0.00  0.00    +0.000 HD
ENDBRANCH   3  13
TORSDOF 2
ENDMDL
MODEL 2
REMARK VINA RESULT:      -6.4      0.461      4.176
REMARK  Name = 
REMARK  2 active torsions:
REMARK  status: ('A' for Active; 'I' for Inactive)
REMARK    1  A    between atoms: C_2  and  C_4
REMARK    2  A    between atoms: C_6  and  C_7
REMARK                            x       y       z     vdW  Elec       q    Type
REMARK                         _______ _______ _______ _____ _____    ______ ____
ROOT
ATOM      1  C   UNL     1       5.725   4.783  17.951  0.00  0.00    +0.000 A 
ATOM      2  C   UNL     1       5.832   4.356  16.650  0.00  0.00    +0.000 A 
ATOM      3  C   UNL     1       6.712   5.077  15.879  0.00  0.00    +0.000 A 
ATOM      4  N   UNL     1       7.440   6.125  16.330  0.00  0.00    +0.000 NA
ATOM      5  C   UNL     1       7.241   6.429  17.614  0.00  0.00    +0.000 A 
ATOM      6 CL   UNL     1       8.138   7.743  18.229  0.00  0.00    +0.000 Cl
ATOM      7  N   UNL     1       6.416   5.824  18.472  0.00  0.00    +0.000 NA
ENDROOT
BRANCH   1   9
ATOM      8  N   UNL     1       5.229   2.894  19.389  0.00  0.00    +0.000 N 
ATOM      9  C   UNL     1       4.785   4.080  18.875  0.00  0.00    +0.000 C 
ATOM     10  O   UNL     1       3.686   4.537  19.160  0.00  0.00    +0.000 OA
ATOM     11  H   UNL     1       4.637   2.383  20.030  0.00  0.00    +0.000 HD
ATOM     12  H   UNL     1       6.146   2.535  19.153  0.00  0.00    +0.000 HD
ENDBRANCH   1   9
BRANCH   3  13
ATOM     13  C   UNL     1       6.891   4.713  14.442  0.00  0.00    +0.000 C 
ATOM     14  N   UNL     1       6.282   3.556  14.038  0.00  0.00    +0.000 N 
ATOM     15  O   UNL     1       7.545   5.401  13.670  0.00  0.00    +0.000 OA
ATOM     16  H   UNL     1       5.748   2.994  14.691  0.00  0.00    +0.000 HD
ATOM     17  H   UNL     1       6.379   3.259  13.077  0.00  0.00    +0.000 HD
ENDBRANCH   3  13
TORSDOF 2
ENDMDL
MODEL 3
REMARK VINA RESULT:      -6.3      1.169      1.169
REMARK  Name = 
REMARK  2 active torsions:
REMARK  status: ('A' for Active; 'I' for Inactive)
REMARK    1  A    between atoms: C_2  and  C_4
REMARK    2  A    between atoms: C_6  and  C_7
REMARK                            x       y       z     vdW  Elec       q    Type
REMARK                         _______ _______ _______ _____ _____    ______ ____
ROOT
ATOM      1  C   UNL     1       6.559   4.527  15.999  0.00  0.00    +0.000 A 
ATOM      2  C   UNL     1       5.391   3.891  16.343  0.00  0.00    +0.000 A 
ATOM      3  C   UNL     1       5.131   3.858  17.692  0.00  0.00    +0.000 A 
ATOM      4  N   UNL     1       5.931   4.404  18.637  0.00  0.00    +0.000 NA
ATOM      5  C   UNL     1       7.030   4.994  18.162  0.00  0.00    +0.000 A 
ATOM      6 CL   UNL     1       8.070   5.697  19.316  0.00  0.00    +0.000 Cl
ATOM      7  N   UNL     1       7.411   5.092  16.887  0.00  0.00    +0.000 NA
ENDROOT
BRANCH   1   9
ATOM      8  N   UNL     1       6.389   3.672  13.735  0.00  0.00    +0.000 N 
ATOM      9  C   UNL     1       6.949   4.608  14.559  0.00  0.00    +0.000 C 
ATOM     10  O   UNL     1       7.717   5.462  14.138  0.00  0.00    +0.000 OA
ATOM     11  H   UNL     1       6.608   3.690  12.749  0.00  0.00    +0.000 HD
ATOM     12  H   UNL     1       5.744   2.979  14.097  0.00  0.00    +0.000 HD
ENDBRANCH   1   9
BRANCH   3  13
ATOM     13  C   UNL     1       3.897   3.173  18.180  0.00  0.00    +0.000 C 
ATOM     14  N   UNL     1       3.943   1.806  18.206  0.00  0.00    +0.000 N 
ATOM     15  O   UNL     1       2.902   3.793  18.532  0.00  0.00    +0.000 OA
ATOM     16  H   UNL     1       4.772   1.307  17.906  0.00  0.00    +0.000 HD
ATOM     17  H   UNL     1       3.131   1.293  18.520  0.00  0.00    +0.000 HD
ENDBRANCH   3  13
TORSDOF 2
ENDMDL
MODEL 4
REMARK VINA RESULT:      -6.3      2.583      3.128
REMARK  Name = 
REMARK  2 active torsions:
REMARK  status: ('A' for Active; 'I' for Inactive)
REMARK    1  A    between atoms: C_2  and  C_4
REMARK    2  A    between atoms: C_6  and  C_7
REMARK                            x       y       z     vdW  Elec       q    Type
REMARK                         _______ _______ _______ _____ _____    ______ ____
ROOT
ATOM      1  C   UNL     1       6.468   4.584  15.958  0.00  0.00    +0.000 A 
ATOM      2  C   UNL     1       7.296   5.173  16.883  0.00  0.00    +0.000 A 
ATOM      3  C   UNL     1       6.827   5.141  18.174  0.00  0.00    +0.000 A 
ATOM      4  N   UNL     1       5.655   4.576  18.547  0.00  0.00    +0.000 NA
ATOM      5  C   UNL     1       4.955   4.037  17.548  0.00  0.00    +0.000 A 
ATOM      6 CL   UNL     1       3.470   3.312  17.969  0.00  0.00    +0.000 Cl
ATOM      7  N   UNL     1       5.282   4.004  16.254  0.00  0.00    +0.000 NA
ENDROOT
BRANCH   1   9
ATOM      8  N   UNL     1       6.304   3.602  13.745  0.00  0.00    +0.000 N 
ATOM      9  C   UNL     1       6.872   4.575  14.519  0.00  0.00    +0.000 C 
ATOM     10  O   UNL     1       7.659   5.390  14.057  0.00  0.00    +0.000 OA
ATOM     11  H   UNL     1       6.532   3.559  12.761  0.00  0.00    +0.000 HD
ATOM     12  H   UNL     1       5.644   2.942  14.140  0.00  0.00    +0.000 HD
ENDBRANCH   1   9
BRANCH   3  13
ATOM     13  C   UNL     1       7.636   5.771  19.260  0.00  0.00    +0.000 C 
ATOM     14  N   UNL     1       8.291   6.925  18.924  0.00  0.00    +0.000 N 
ATOM     15  O   UNL     1       7.715   5.287  20.381  0.00  0.00    +0.000 OA
ATOM     16  H   UNL     1       8.220   7.310  17.989  0.00  0.00    +0.000 HD
ATOM     17  H   UNL     1       8.860   7.387  19.620  0.00  0.00    +0.000 HD
ENDBRANCH   3  13
TORSDOF 2
ENDMDL
MODEL 5
REMARK VINA RESULT:      -6.3      2.583      4.734
REMARK  Name = 
REMARK  2 active torsions:
REMARK  status: ('A' for Active; 'I' for Inactive)
REMARK    1  A    between atoms: C_2  and  C_4
REMARK    2  A    between atoms: C_6  and  C_7
REMARK                            x       y       z     vdW  Elec       q    Type
REMARK                         _______ _______ _______ _____ _____    ______ ____
ROOT
ATOM      1  C   UNL     1       6.819   5.160  18.195  0.00  0.00    +0.000 A 
ATOM      2  C   UNL     1       7.277   5.206  16.900  0.00  0.00    +0.000 A 
ATOM      3  C   UNL     1       6.453   4.606  15.978  0.00  0.00    +0.000 A 
ATOM      4  N   UNL     1       5.272   4.016  16.279  0.00  0.00    +0.000 NA
ATOM      5  C   UNL     1       4.949   4.048  17.573  0.00  0.00    +0.000 A 
ATOM      6 CL   UNL     1       3.469   3.317  18.002  0.00  0.00    +0.000 Cl
ATOM      7  N   UNL     1       5.654   4.584  18.572  0.00  0.00    +0.000 NA
ENDROOT
BRANCH   1   9
ATOM      8  N   UNL     1       8.310   6.916  18.954  0.00  0.00    +0.000 N 
ATOM      9  C   UNL     1       7.644   5.768  19.282  0.00  0.00    +0.000 C 
ATOM     10  O   UNL     1       7.717   5.275  20.399  0.00  0.00    +0.000 OA
ATOM     11  H   UNL     1       8.872   7.377  19.657  0.00  0.00    +0.000 HD
ATOM     12  H   UNL     1       8.228   7.319  18.028  0.00  0.00    +0.000 HD
ENDBRANCH   1   9
BRANCH   3  13
ATOM     13  C   UNL     1       6.863   4.579  14.542  0.00  0.00    +0.000 C 
ATOM     14  N   UNL     1       6.302   3.592  13.779  0.00  0.00    +0.000 N 
ATOM     15  O   UNL     1       7.656   5.385  14.074  0.00  0.00    +0.000 OA
ATOM     16  H   UNL     1       5.651   2.928  14.183  0.00  0.00    +0.000 HD
ATOM     17  H   UNL     1       6.552   3.523  12.802  0.00  0.00    +0.000 HD
ENDBRANCH   3  13
TORSDOF 2
ENDMDL
MODEL 6
REMARK VINA RESULT:      -6.1      1.257      4.304
REMARK  Name = 
REMARK  2 active torsions:
REMARK  status: ('A' for Active; 'I' for Inactive)
REMARK    1  A    between atoms: C_2  and  C_4
REMARK    2  A    between atoms: C_6  and  C_7
REMARK                            x       y       z     vdW  Elec       q    Type
REMARK                         _______ _______ _______ _____ _____    ______ ____
ROOT
ATOM      1  C   UNL     1       5.119   3.922  17.778  0.00  0.00    +0.000 A 
ATOM      2  C   UNL     1       5.374   3.913  16.428  0.00  0.00    +0.000 A 
ATOM      3  C   UNL     1       6.552   4.518  16.062  0.00  0.00    +0.000 A 
ATOM      4  N   UNL     1       7.424   5.080  16.932  0.00  0.00    +0.000 NA
ATOM      5  C   UNL     1       7.053   5.013  18.212  0.00  0.00    +0.000 A 
ATOM      6 CL   UNL     1       8.120   5.708  19.346  0.00  0.00    +0.000 Cl
ATOM      7  N   UNL     1       5.940   4.468  18.706  0.00  0.00    +0.000 NA
ENDROOT
BRANCH   1   9
ATOM      8  N   UNL     1       3.174   4.027  19.225  0.00  0.00    +0.000 N 
ATOM      9  C   UNL     1       3.857   3.305  18.286  0.00  0.00    +0.000 C 
ATOM     10  O   UNL     1       3.452   2.222  17.885  0.00  0.00    +0.000 OA
ATOM     11  H   UNL     1       2.307   3.661  19.593  0.00  0.00    +0.000 HD
ATOM     12  H   UNL     1       3.516   4.928  19.537  0.00  0.00    +0.000 HD
ENDBRANCH   1   9
BRANCH   3  13
ATOM     13  C   UNL     1       6.919   4.585  14.616  0.00  0.00    +0.000 C 
ATOM     14  N   UNL     1       6.342   3.644  13.809  0.00  0.00    +0.000 N 
ATOM     15  O   UNL     1       7.692   5.427  14.177  0.00  0.00    +0.000 OA
ATOM     16  H   UNL     1       5.709   2.950  14.189  0.00  0.00    +0.000 HD
ATOM     17  H   UNL     1       6.564   3.639  12.823  0.00  0.00    +0.000 HD
ENDBRANCH   3  13
TORSDOF 2
ENDMDL
MODEL 7
REMARK VINA RESULT:      -6.1      1.312      4.243
REMARK  Name = 
REMARK  2 active torsions:
REMARK  status: ('A' for Active; 'I' for Inactive)
REMARK    1  A    between atoms: C_2  and  C_4
REMARK    2  A    between atoms: C_6  and  C_7
REMARK                            x       y       z     vdW  Elec       q    Type
REMARK                         _______ _______ _______ _____ _____    ______ ____
ROOT
ATOM      1  C   UNL     1       5.242   3.866  17.798  0.00  0.00    +0.000 A 
ATOM      2  C   UNL     1       5.430   3.847  16.437  0.00  0.00    +0.000 A 
ATOM      3  C   UNL     1       6.537   4.534  16.001  0.00  0.00    +0.000 A 
ATOM      4  N   UNL     1       7.404   5.181  16.815  0.00  0.00    +0.000 NA
ATOM      5  C   UNL     1       7.103   5.113  18.113  0.00  0.00    +0.000 A 
ATOM      6 CL   UNL     1       8.167   5.914  19.179  0.00  0.00    +0.000 Cl
ATOM      7  N   UNL     1       6.062   4.494  18.673  0.00  0.00    +0.000 NA
ENDROOT
BRANCH   1   9
ATOM      8  N   UNL     1       4.337   2.162  19.269  0.00  0.00    +0.000 N 
ATOM      9  C   UNL     1       4.059   3.164  18.381  0.00  0.00    +0.000 C 
ATOM     10  O   UNL     1       2.911   3.467  18.087  0.00  0.00    +0.000 OA
ATOM     11  H   UNL     1       3.572   1.663  19.703  0.00  0.00    +0.000 HD
ATOM     12  H   UNL     1       5.293   1.932  19.511  0.00  0.00    +0.000 HD
ENDBRANCH   1   9
BRANCH   3  13
ATOM     13  C   UNL     1       6.826   4.597  14.537  0.00  0.00    +0.000 C 
ATOM     14  N   UNL     1       7.783   5.497  14.155  0.00  0.00    +0.000 N 
ATOM     15  O   UNL     1       6.242   3.892  13.725  0.00  0.00    +0.000 OA
ATOM     16  H   UNL     1       8.254   6.078  14.839  0.00  0.00    +0.000 HD
ATOM     17  H   UNL     1       8.011   5.586  13.174  0.00  0.00    +0.000 HD
ENDBRANCH   3  13
TORSDOF 2
ENDMDL
MODEL 8
REMARK VINA RESULT:      -6.1      2.328      3.283
REMARK  Name = 
REMARK  2 active torsions:
REMARK  status: ('A' for Active; 'I' for Inactive)
REMARK    1  A    between atoms: C_2  and  C_4
REMARK    2  A    between atoms: C_6  and  C_7
REMARK                            x       y       z     vdW  Elec       q    Type
REMARK                         _______ _______ _______ _____ _____    ______ ____
ROOT
ATOM      1  C   UNL     1       6.924   6.027  17.265  0.00  0.00    +0.000 A 
ATOM      2  C   UNL     1       6.098   5.332  18.115  0.00  0.00    +0.000 A 
ATOM      3  C   UNL     1       5.422   4.288  17.532  0.00  0.00    +0.000 A 
ATOM      4  N   UNL     1       5.540   3.934  16.231  0.00  0.00    +0.000 NA
ATOM      5  C   UNL     1       6.379   4.691  15.522  0.00  0.00    +0.000 A 
ATOM      6 CL   UNL     1       6.560   4.283  13.877  0.00  0.00    +0.000 Cl
ATOM      7  N   UNL     1       7.089   5.736  15.953  0.00  0.00    +0.000 NA
ENDROOT
BRANCH   1   9
ATOM      8  N   UNL     1       8.345   6.994  18.977  0.00  0.00    +0.000 N 
ATOM      9  C   UNL     1       7.696   7.193  17.790  0.00  0.00    +0.000 C 
ATOM     10  O   UNL     1       7.752   8.261  17.195  0.00  0.00    +0.000 OA
ATOM     11  H   UNL     1       8.894   7.747  19.370  0.00  0.00    +0.000 HD
ATOM     12  H   UNL     1       8.300   6.100  19.451  0.00  0.00    +0.000 HD
ENDBRANCH   1   9
BRANCH   3  13
ATOM     13  C   UNL     1       4.480   3.476  18.360  0.00  0.00    +0.000 C 
ATOM     14  N   UNL     1       5.018   2.879  19.466  0.00  0.00    +0.000 N 
ATOM     15  O   UNL     1       3.299   3.348  18.067  0.00  0.00    +0.000 OA
ATOM     16  H   UNL     1       6.000   2.990  19.692  0.00  0.00    +0.000 HD
ATOM     17  H   UNL     1       4.426   2.311  20.056  0.00  0.00    +0.000 HD
ENDBRANCH   3  13
TORSDOF 2
ENDMDL
MODEL 9
REMARK VINA RESULT:      -6.1      2.522      4.413
REMARK  Name = 
REMARK  2 active torsions:
REMARK  status: ('A' for Active; 'I' for Inactive)
REMARK    1  A    between atoms: C_2  and  C_4
REMARK    2  A    between atoms: C_6  and  C_7
REMARK                            x       y       z     vdW  Elec       q    Type
REMARK                         _______ _______ _______ _____ _____    ______ ____
ROOT
ATOM      1  C   UNL     1       3.754   4.070  17.616  0.00  0.00    +0.000 A 
ATOM      2  C   UNL     1       5.090   4.082  17.294  0.00  0.00    +0.000 A 
ATOM      3  C   UNL     1       5.643   5.335  17.186  0.00  0.00    +0.000 A 
ATOM      4  N   UNL     1       4.964   6.490  17.382  0.00  0.00    +0.000 NA
ATOM      5  C   UNL     1       3.676   6.330  17.693  0.00  0.00    +0.000 A 
ATOM      6 CL   UNL     1       2.778   7.757  17.951  0.00  0.00    +0.000 Cl
ATOM      7  N   UNL     1       3.009   5.182  17.822  0.00  0.00    +0.000 NA
ENDROOT
BRANCH   1   9
ATOM      8  N   UNL     1       3.839   1.677  18.003  0.00  0.00    +0.000 N 
ATOM      9  C   UNL     1       3.046   2.761  17.744  0.00  0.00    +0.000 C 
ATOM     10  O   UNL     1       1.832   2.661  17.632  0.00  0.00    +0.000 OA
ATOM     11  H   UNL     1       3.409   0.768  18.112  0.00  0.00    +0.000 HD
ATOM     12  H   UNL     1       4.841   1.778  18.106  0.00  0.00    +0.000 HD
ENDBRANCH   1   9
BRANCH   3  13
ATOM     13  C   UNL     1       7.085   5.466  16.819  0.00  0.00    +0.000 C 
ATOM     14  N   UNL     1       7.857   4.355  17.020  0.00  0.00    +0.000 N 
ATOM     15  O   UNL     1       7.552   6.504  16.369  0.00  0.00    +0.000 OA
ATOM     16  H   UNL     1       7.456   3.505  17.399  0.00  0.00    +0.000 HD
ATOM     17  H   UNL     1       8.841   4.393  16.796  0.00  0.00    +0.000 HD
ENDBRANCH   3  13
TORSDOF 2
ENDMDL
