MODEL 1
REMARK VINA RESULT:      -7.3      0.000      0.000
REMARK  Name = 
REMARK  7 active torsions:
REMARK  status: ('A' for Active; 'I' for Inactive)
REMARK    1  A    between atoms: C_1  and  O_2
REMARK    2  A    between atoms: O_2  and  C_3
REMARK    3  A    between atoms: C_6  and  C_7
REMARK    4  A    between atoms: N_11  and  C_12
REMARK    5  A    between atoms: N_15  and  C_16
REMARK    6  A    between atoms: N_19  and  C_20
REMARK    7  A    between atoms: C_24  and  N_25
REMARK                            x       y       z     vdW  Elec       q    Type
REMARK                         _______ _______ _______ _____ _____    ______ ____
ROOT
ATOM      1  C   UNL     1       2.785   6.503  19.011  0.00  0.00    +0.000 A 
ATOM      2  C   UNL     1       2.221   7.792  19.094  0.00  0.00    +0.000 A 
ATOM      3  C   UNL     1       2.345   8.970  18.258  0.00  0.00    +0.000 A 
ATOM      4  O   UNL     1       3.085   9.037  17.278  0.00  0.00    +0.000 OA
ATOM      5  N   UNL     1       1.543  10.043  18.652  0.00  0.00    +0.000 N 
ATOM      6  C   UNL     1       1.552  11.224  17.811  0.00  0.00    +0.000 C 
ATOM      7  C   UNL     1       0.795  10.128  19.839  0.00  0.00    +0.000 A 
ATOM      8  O   UNL     1       0.206  11.169  20.140  0.00  0.00    +0.000 OA
ATOM      9  N   UNL     1       0.761   8.993  20.655  0.00  0.00    +0.000 N 
ATOM     10  C   UNL     1       0.021   9.043  21.908  0.00  0.00    +0.000 C 
ATOM     11  C   UNL     1       1.450   7.854  20.264  0.00  0.00    +0.000 A 
ATOM     12  C   UNL     1       1.528   6.647  20.894  0.00  0.00    +0.000 A 
ATOM     13  N   UNL     1       2.303   5.789  20.129  0.00  0.00    +0.000 N 
ENDROOT
BRANCH   1  17
ATOM     14  C   UNL     1       5.649   4.956  16.168  0.00  0.00    +0.000 A 
ATOM     15  C   UNL     1       6.000   6.002  17.014  0.00  0.00    +0.000 A 
ATOM     16  C   UNL     1       5.054   6.555  17.884  0.00  0.00    +0.000 A 
ATOM     17  C   UNL     1       3.773   5.998  18.019  0.00  0.00    +0.000 A 
ATOM     18  C   UNL     1       3.459   4.920  17.184  0.00  0.00    +0.000 A 
ATOM     19  C   UNL     1       4.361   4.441  16.227  0.00  0.00    +0.000 A 
BRANCH  14  21
ATOM     20  C   UNL     1       6.186   3.951  14.105  0.00  0.00    +0.000 C 
ATOM     21  O   UNL     1       6.634   4.546  15.317  0.00  0.00    +0.000 OA
ENDBRANCH  14  21
ENDBRANCH   1  17
BRANCH  13  22
ATOM     22  C   UNL     1       2.522   4.420  20.492  0.00  0.00    +0.000 A 
ATOM     23  C   UNL     1       1.575   3.746  21.274  0.00  0.00    +0.000 A 
ATOM     24  C   UNL     1       1.814   2.431  21.673  0.00  0.00    +0.000 A 
ATOM     25  C   UNL     1       3.011   1.798  21.330  0.00  0.00    +0.000 A 
ATOM     26  C   UNL     1       3.984   2.471  20.594  0.00  0.00    +0.000 A 
ATOM     27  C   UNL     1       3.686   3.744  20.102  0.00  0.00    +0.000 A 
BRANCH  26  28
ATOM     28  N   UNL     1       5.145   1.814  20.165  0.00  0.00    +0.000 N 
ATOM     29  H   UNL     1       5.853   2.430  19.780  0.00  0.00    +0.000 HD
ATOM     30  H   UNL     1       4.954   1.027  19.549  0.00  0.00    +0.000 HD
ENDBRANCH  26  28
ENDBRANCH  13  22
TORSDOF 4
ENDMDL
MODEL 2
REMARK VINA RESULT:      -7.3      7.062      9.912
REMARK  Name = 
REMARK  7 active torsions:
REMARK  status: ('A' for Active; 'I' for Inactive)
REMARK    1  A    between atoms: C_1  and  O_2
REMARK    2  A    between atoms: O_2  and  C_3
REMARK    3  A    between atoms: C_6  and  C_7
REMARK    4  A    between atoms: N_11  and  C_12
REMARK    5  A    between atoms: N_15  and  C_16
REMARK    6  A    between atoms: N_19  and  C_20
REMARK    7  A    between atoms: C_24  and  N_25
REMARK                            x       y       z     vdW  Elec       q    Type
REMARK                         _______ _______ _______ _____ _____    ______ ____
ROOT
ATOM      1  C   UNL     1       0.169  13.392  20.572  0.00  0.00    +0.000 A 
ATOM      2  C   UNL     1       1.200  14.338  20.743  0.00  0.00    +0.000 A 
ATOM      3  C   UNL     1       1.596  15.160  21.869  0.00  0.00    +0.000 A 
ATOM      4  O   UNL     1       0.988  15.195  22.937  0.00  0.00    +0.000 OA
ATOM      5  N   UNL     1       2.744  15.923  21.648  0.00  0.00    +0.000 N 
ATOM      6  C   UNL     1       3.248  16.705  22.761  0.00  0.00    +0.000 C 
ATOM      7  C   UNL     1       3.413  16.082  20.422  0.00  0.00    +0.000 A 
ATOM      8  O   UNL     1       4.358  16.869  20.316  0.00  0.00    +0.000 OA
ATOM      9  N   UNL     1       2.952  15.325  19.341  0.00  0.00    +0.000 N 
ATOM     10  C   UNL     1       3.595  15.478  18.044  0.00  0.00    +0.000 C 
ATOM     11  C   UNL     1       1.880  14.464  19.523  0.00  0.00    +0.000 A 
ATOM     12  C   UNL     1       1.296  13.627  18.618  0.00  0.00    +0.000 A 
ATOM     13  N   UNL     1       0.274  12.929  19.243  0.00  0.00    +0.000 N 
ENDROOT
BRANCH   1  17
ATOM     14  C   UNL     1      -2.933  12.215  23.342  0.00  0.00    +0.000 A 
ATOM     15  C   UNL     1      -3.086  13.358  22.567  0.00  0.00    +0.000 A 
ATOM     16  C   UNL     1      -2.055  13.784  21.724  0.00  0.00    +0.000 A 
ATOM     17  C   UNL     1      -0.896  13.013  21.540  0.00  0.00    +0.000 A 
ATOM     18  C   UNL     1      -0.785  11.845  22.303  0.00  0.00    +0.000 A 
ATOM     19  C   UNL     1      -1.760  11.478  23.237  0.00  0.00    +0.000 A 
BRANCH  14  21
ATOM     20  C   UNL     1      -5.061  12.857  24.126  0.00  0.00    +0.000 C 
ATOM     21  O   UNL     1      -3.977  11.937  24.176  0.00  0.00    +0.000 OA
ENDBRANCH  14  21
ENDBRANCH   1  17
BRANCH  13  22
ATOM     22  C   UNL     1      -0.493  11.922  18.572  0.00  0.00    +0.000 A 
ATOM     23  C   UNL     1      -0.011  10.608  18.505  0.00  0.00    +0.000 A 
ATOM     24  C   UNL     1      -0.729   9.639  17.804  0.00  0.00    +0.000 A 
ATOM     25  C   UNL     1      -1.907   9.983  17.137  0.00  0.00    +0.000 A 
ATOM     26  C   UNL     1      -2.375  11.296  17.153  0.00  0.00    +0.000 A 
ATOM     27  C   UNL     1      -1.710  12.231  17.952  0.00  0.00    +0.000 A 
BRANCH  26  28
ATOM     28  N   UNL     1      -3.603  11.631  16.568  0.00  0.00    +0.000 N 
ATOM     29  H   UNL     1      -3.813  12.623  16.581  0.00  0.00    +0.000 HD
ATOM     30  H   UNL     1      -4.378  11.076  16.922  0.00  0.00    +0.000 HD
ENDBRANCH  26  28
ENDBRANCH  13  22
TORSDOF 4
ENDMDL
MODEL 3
REMARK VINA RESULT:      -7.0      7.179      9.975
REMARK  Name = 
REMARK  7 active torsions:
REMARK  status: ('A' for Active; 'I' for Inactive)
REMARK    1  A    between atoms: C_1  and  O_2
REMARK    2  A    between atoms: O_2  and  C_3
REMARK    3  A    between atoms: C_6  and  C_7
REMARK    4  A    between atoms: N_11  and  C_12
REMARK    5  A    between atoms: N_15  and  C_16
REMARK    6  A    between atoms: N_19  and  C_20
REMARK    7  A    between atoms: C_24  and  N_25
REMARK                            x       y       z     vdW  Elec       q    Type
REMARK                         _______ _______ _______ _____ _____    ______ ____
ROOT
ATOM      1  C   UNL     1      -0.210  13.247  20.475  0.00  0.00    +0.000 A 
ATOM      2  C   UNL     1       0.850  14.161  20.635  0.00  0.00    +0.000 A 
ATOM      3  C   UNL     1       1.278  14.979  21.753  0.00  0.00    +0.000 A 
ATOM      4  O   UNL     1       0.675  15.041  22.823  0.00  0.00    +0.000 OA
ATOM      5  N   UNL     1       2.448  15.704  21.522  0.00  0.00    +0.000 N 
ATOM      6  C   UNL     1       2.981  16.477  22.627  0.00  0.00    +0.000 C 
ATOM      7  C   UNL     1       3.116  15.833  20.292  0.00  0.00    +0.000 A 
ATOM      8  O   UNL     1       4.085  16.588  20.176  0.00  0.00    +0.000 OA
ATOM      9  N   UNL     1       2.627  15.083  19.218  0.00  0.00    +0.000 N 
ATOM     10  C   UNL     1       3.269  15.205  17.917  0.00  0.00    +0.000 C 
ATOM     11  C   UNL     1       1.529  14.256  19.411  0.00  0.00    +0.000 A 
ATOM     12  C   UNL     1       0.915  13.433  18.514  0.00  0.00    +0.000 A 
ATOM     13  N   UNL     1      -0.126  12.771  19.149  0.00  0.00    +0.000 N 
ENDROOT
BRANCH   1  17
ATOM     14  C   UNL     1      -3.320  12.346  23.339  0.00  0.00    +0.000 A 
ATOM     15  C   UNL     1      -2.129  11.629  23.353  0.00  0.00    +0.000 A 
ATOM     16  C   UNL     1      -1.150  11.867  22.382  0.00  0.00    +0.000 A 
ATOM     17  C   UNL     1      -1.282  12.909  21.450  0.00  0.00    +0.000 A 
ATOM     18  C   UNL     1      -2.474  13.641  21.485  0.00  0.00    +0.000 A 
ATOM     19  C   UNL     1      -3.507  13.329  22.376  0.00  0.00    +0.000 A 
BRANCH  14  21
ATOM     20  C   UNL     1      -5.454  12.696  24.273  0.00  0.00    +0.000 C 
ATOM     21  O   UNL     1      -4.226  11.980  24.292  0.00  0.00    +0.000 OA
ENDBRANCH  14  21
ENDBRANCH   1  17
BRANCH  13  22
ATOM     22  C   UNL     1      -0.927  11.784  18.489  0.00  0.00    +0.000 A 
ATOM     23  C   UNL     1      -0.397  10.512  18.236  0.00  0.00    +0.000 A 
ATOM     24  C   UNL     1      -1.156   9.568  17.544  0.00  0.00    +0.000 A 
ATOM     25  C   UNL     1      -2.427   9.900  17.069  0.00  0.00    +0.000 A 
ATOM     26  C   UNL     1      -2.949  11.176  17.269  0.00  0.00    +0.000 A 
ATOM     27  C   UNL     1      -2.229  12.074  18.061  0.00  0.00    +0.000 A 
BRANCH  26  28
ATOM     28  N   UNL     1      -4.258  11.489  16.879  0.00  0.00    +0.000 N 
ATOM     29  H   UNL     1      -4.885  11.688  17.651  0.00  0.00    +0.000 HD
ATOM     30  H   UNL     1      -4.656  10.809  16.235  0.00  0.00    +0.000 HD
ENDBRANCH  26  28
ENDBRANCH  13  22
TORSDOF 4
ENDMDL
MODEL 4
REMARK VINA RESULT:      -7.0      6.021      9.550
REMARK  Name = 
REMARK  7 active torsions:
REMARK  status: ('A' for Active; 'I' for Inactive)
REMARK    1  A    between atoms: C_1  and  O_2
REMARK    2  A    between atoms: O_2  and  C_3
REMARK    3  A    between atoms: C_6  and  C_7
REMARK    4  A    between atoms: N_11  and  C_12
REMARK    5  A    between atoms: N_15  and  C_16
REMARK    6  A    between atoms: N_19  and  C_20
REMARK    7  A    between atoms: C_24  and  N_25
REMARK                            x       y       z     vdW  Elec       q    Type
REMARK                         _______ _______ _______ _____ _____    ______ ____
ROOT
ATOM      1  C   UNL     1      -0.473  13.594  20.164  0.00  0.00    +0.000 A 
ATOM      2  C   UNL     1       0.022  14.783  19.591  0.00  0.00    +0.000 A 
ATOM      3  C   UNL     1      -0.558  16.100  19.414  0.00  0.00    +0.000 A 
ATOM      4  O   UNL     1      -1.713  16.384  19.724  0.00  0.00    +0.000 OA
ATOM      5  N   UNL     1       0.310  17.041  18.858  0.00  0.00    +0.000 N 
ATOM      6  C   UNL     1      -0.176  18.401  18.732  0.00  0.00    +0.000 C 
ATOM      7  C   UNL     1       1.583  16.782  18.321  0.00  0.00    +0.000 A 
ATOM      8  O   UNL     1       2.222  17.673  17.755  0.00  0.00    +0.000 OA
ATOM      9  N   UNL     1       2.076  15.479  18.446  0.00  0.00    +0.000 N 
ATOM     10  C   UNL     1       3.378  15.157  17.880  0.00  0.00    +0.000 C 
ATOM     11  C   UNL     1       1.305  14.520  19.087  0.00  0.00    +0.000 A 
ATOM     12  C   UNL     1       1.604  13.213  19.335  0.00  0.00    +0.000 A 
ATOM     13  N   UNL     1       0.553  12.634  20.029  0.00  0.00    +0.000 N 
ENDROOT
BRANCH   1  17
ATOM     14  C   UNL     1      -4.386  12.806  21.821  0.00  0.00    +0.000 A 
ATOM     15  C   UNL     1      -4.089  12.422  20.519  0.00  0.00    +0.000 A 
ATOM     16  C   UNL     1      -2.850  12.741  19.953  0.00  0.00    +0.000 A 
ATOM     17  C   UNL     1      -1.832  13.339  20.713  0.00  0.00    +0.000 A 
ATOM     18  C   UNL     1      -2.145  13.679  22.034  0.00  0.00    +0.000 A 
ATOM     19  C   UNL     1      -3.422  13.471  22.567  0.00  0.00    +0.000 A 
BRANCH  14  21
ATOM     20  C   UNL     1      -6.605  12.304  21.206  0.00  0.00    +0.000 C 
ATOM     21  O   UNL     1      -5.648  12.500  22.240  0.00  0.00    +0.000 OA
ENDBRANCH  14  21
ENDBRANCH   1  17
BRANCH  13  22
ATOM     22  C   UNL     1       0.590  11.279  20.494  0.00  0.00    +0.000 A 
ATOM     23  C   UNL     1       0.967  10.252  19.618  0.00  0.00    +0.000 A 
ATOM     24  C   UNL     1       0.951   8.927  20.054  0.00  0.00    +0.000 A 
ATOM     25  C   UNL     1       0.523   8.617  21.347  0.00  0.00    +0.000 A 
ATOM     26  C   UNL     1       0.100   9.622  22.215  0.00  0.00    +0.000 A 
ATOM     27  C   UNL     1       0.229  10.953  21.807  0.00  0.00    +0.000 A 
BRANCH  26  28
ATOM     28  N   UNL     1      -0.240   9.332  23.542  0.00  0.00    +0.000 N 
ATOM     29  H   UNL     1      -0.320  10.149  24.139  0.00  0.00    +0.000 HD
ATOM     30  H   UNL     1       0.352   8.617  23.959  0.00  0.00    +0.000 HD
ENDBRANCH  26  28
ENDBRANCH  13  22
TORSDOF 4
ENDMDL
MODEL 5
REMARK VINA RESULT:      -7.0      4.796      7.829
REMARK  Name = 
REMARK  7 active torsions:
REMARK  status: ('A' for Active; 'I' for Inactive)
REMARK    1  A    between atoms: C_1  and  O_2
REMARK    2  A    between atoms: O_2  and  C_3
REMARK    3  A    between atoms: C_6  and  C_7
REMARK    4  A    between atoms: N_11  and  C_12
REMARK    5  A    between atoms: N_15  and  C_16
REMARK    6  A    between atoms: N_19  and  C_20
REMARK    7  A    between atoms: C_24  and  N_25
REMARK                            x       y       z     vdW  Elec       q    Type
REMARK                         _______ _______ _______ _____ _____    ______ ____
ROOT
ATOM      1  C   UNL     1      -1.975  11.422  19.498  0.00  0.00    +0.000 A 
ATOM      2  C   UNL     1      -2.613  12.331  20.365  0.00  0.00    +0.000 A 
ATOM      3  C   UNL     1      -3.904  12.990  20.315  0.00  0.00    +0.000 A 
ATOM      4  O   UNL     1      -4.691  12.879  19.377  0.00  0.00    +0.000 OA
ATOM      5  N   UNL     1      -4.195  13.772  21.435  0.00  0.00    +0.000 N 
ATOM      6  C   UNL     1      -5.505  14.391  21.491  0.00  0.00    +0.000 C 
ATOM      7  C   UNL     1      -3.307  14.096  22.475  0.00  0.00    +0.000 A 
ATOM      8  O   UNL     1      -3.637  14.886  23.363  0.00  0.00    +0.000 OA
ATOM      9  N   UNL     1      -2.044  13.496  22.446  0.00  0.00    +0.000 N 
ATOM     10  C   UNL     1      -1.081  13.823  23.488  0.00  0.00    +0.000 C 
ATOM     11  C   UNL     1      -1.731  12.621  21.416  0.00  0.00    +0.000 A 
ATOM     12  C   UNL     1      -0.579  11.920  21.215  0.00  0.00    +0.000 A 
ATOM     13  N   UNL     1      -0.716  11.145  20.073  0.00  0.00    +0.000 N 
ENDROOT
BRANCH   1  17
ATOM     14  C   UNL     1      -3.426  10.027  15.673  0.00  0.00    +0.000 A 
ATOM     15  C   UNL     1      -3.656   9.279  16.822  0.00  0.00    +0.000 A 
ATOM     16  C   UNL     1      -3.125   9.688  18.049  0.00  0.00    +0.000 A 
ATOM     17  C   UNL     1      -2.458  10.917  18.184  0.00  0.00    +0.000 A 
ATOM     18  C   UNL     1      -2.276  11.669  17.019  0.00  0.00    +0.000 A 
ATOM     19  C   UNL     1      -2.699  11.207  15.768  0.00  0.00    +0.000 A 
BRANCH  14  21
ATOM     20  C   UNL     1      -3.367   9.989  13.318  0.00  0.00    +0.000 C 
ATOM     21  O   UNL     1      -3.934   9.494  14.524  0.00  0.00    +0.000 OA
ENDBRANCH  14  21
ENDBRANCH   1  17
BRANCH  13  22
ATOM     22  C   UNL     1       0.303  10.243  19.628  0.00  0.00    +0.000 A 
ATOM     23  C   UNL     1       0.867  10.401  18.355  0.00  0.00    +0.000 A 
ATOM     24  C   UNL     1       1.820   9.490  17.899  0.00  0.00    +0.000 A 
ATOM     25  C   UNL     1       2.185   8.398  18.691  0.00  0.00    +0.000 A 
ATOM     26  C   UNL     1       1.598   8.199  19.940  0.00  0.00    +0.000 A 
ATOM     27  C   UNL     1       0.732   9.179  20.433  0.00  0.00    +0.000 A 
BRANCH  26  28
ATOM     28  N   UNL     1       2.025   7.163  20.780  0.00  0.00    +0.000 N 
ATOM     29  H   UNL     1       2.842   6.665  20.442  0.00  0.00    +0.000 HD
ATOM     30  H   UNL     1       1.276   6.527  21.042  0.00  0.00    +0.000 HD
ENDBRANCH  26  28
ENDBRANCH  13  22
TORSDOF 4
ENDMDL
MODEL 6
REMARK VINA RESULT:      -7.0      5.851      9.215
REMARK  Name = 
REMARK  7 active torsions:
REMARK  status: ('A' for Active; 'I' for Inactive)
REMARK    1  A    between atoms: C_1  and  O_2
REMARK    2  A    between atoms: O_2  and  C_3
REMARK    3  A    between atoms: C_6  and  C_7
REMARK    4  A    between atoms: N_11  and  C_12
REMARK    5  A    between atoms: N_15  and  C_16
REMARK    6  A    between atoms: N_19  and  C_20
REMARK    7  A    between atoms: C_24  and  N_25
REMARK                            x       y       z     vdW  Elec       q    Type
REMARK                         _______ _______ _______ _____ _____    ______ ____
ROOT
ATOM      1  C   UNL     1      -0.116  13.395  19.865  0.00  0.00    +0.000 A 
ATOM      2  C   UNL     1       0.502  14.535  19.312  0.00  0.00    +0.000 A 
ATOM      3  C   UNL     1       0.004  15.857  18.987  0.00  0.00    +0.000 A 
ATOM      4  O   UNL     1      -1.172  16.193  19.110  0.00  0.00    +0.000 OA
ATOM      5  N   UNL     1       0.980  16.740  18.519  0.00  0.00    +0.000 N 
ATOM      6  C   UNL     1       0.569  18.106  18.255  0.00  0.00    +0.000 C 
ATOM      7  C   UNL     1       2.305  16.413  18.187  0.00  0.00    +0.000 A 
ATOM      8  O   UNL     1       3.054  17.251  17.678  0.00  0.00    +0.000 OA
ATOM      9  N   UNL     1       2.725  15.104  18.448  0.00  0.00    +0.000 N 
ATOM     10  C   UNL     1       4.082  14.711  18.096  0.00  0.00    +0.000 C 
ATOM     11  C   UNL     1       1.833  14.206  19.016  0.00  0.00    +0.000 A 
ATOM     12  C   UNL     1       2.043  12.906  19.370  0.00  0.00    +0.000 A 
ATOM     13  N   UNL     1       0.880  12.398  19.930  0.00  0.00    +0.000 N 
ENDROOT
BRANCH   1  17
ATOM     14  C   UNL     1      -4.302  12.904  20.823  0.00  0.00    +0.000 A 
ATOM     15  C   UNL     1      -3.474  13.635  21.667  0.00  0.00    +0.000 A 
ATOM     16  C   UNL     1      -2.105  13.734  21.401  0.00  0.00    +0.000 A 
ATOM     17  C   UNL     1      -1.550  13.213  20.221  0.00  0.00    +0.000 A 
ATOM     18  C   UNL     1      -2.414  12.517  19.368  0.00  0.00    +0.000 A 
ATOM     19  C   UNL     1      -3.760  12.311  19.691  0.00  0.00    +0.000 A 
BRANCH  14  21
ATOM     20  C   UNL     1      -6.395  11.861  20.531  0.00  0.00    +0.000 C 
ATOM     21  O   UNL     1      -5.605  12.821  21.222  0.00  0.00    +0.000 OA
ENDBRANCH  14  21
ENDBRANCH   1  17
BRANCH  13  22
ATOM     22  C   UNL     1       0.798  11.070  20.462  0.00  0.00    +0.000 A 
ATOM     23  C   UNL     1       1.190   9.979  19.675  0.00  0.00    +0.000 A 
ATOM     24  C   UNL     1       1.058   8.682  20.172  0.00  0.00    +0.000 A 
ATOM     25  C   UNL     1       0.502   8.466  21.435  0.00  0.00    +0.000 A 
ATOM     26  C   UNL     1       0.063   9.537  22.211  0.00  0.00    +0.000 A 
ATOM     27  C   UNL     1       0.305  10.835  21.752  0.00  0.00    +0.000 A 
BRANCH  26  28
ATOM     28  N   UNL     1      -0.407   9.338  23.515  0.00  0.00    +0.000 N 
ATOM     29  H   UNL     1      -0.975  10.098  23.873  0.00  0.00    +0.000 HD
ATOM     30  H   UNL     1       0.326   9.074  24.168  0.00  0.00    +0.000 HD
ENDBRANCH  26  28
ENDBRANCH  13  22
TORSDOF 4
ENDMDL
MODEL 7
REMARK VINA RESULT:      -6.9      6.665     10.736
REMARK  Name = 
REMARK  7 active torsions:
REMARK  status: ('A' for Active; 'I' for Inactive)
REMARK    1  A    between atoms: C_1  and  O_2
REMARK    2  A    between atoms: O_2  and  C_3
REMARK    3  A    between atoms: C_6  and  C_7
REMARK    4  A    between atoms: N_11  and  C_12
REMARK    5  A    between atoms: N_15  and  C_16
REMARK    6  A    between atoms: N_19  and  C_20
REMARK    7  A    between atoms: C_24  and  N_25
REMARK                            x       y       z     vdW  Elec       q    Type
REMARK                         _______ _______ _______ _____ _____    ______ ____
ROOT
ATOM      1  C   UNL     1      -2.953  13.656  22.561  0.00  0.00    +0.000 A 
ATOM      2  C   UNL     1      -3.018  14.748  23.449  0.00  0.00    +0.000 A 
ATOM      3  C   UNL     1      -2.079  15.278  24.418  0.00  0.00    +0.000 A 
ATOM      4  O   UNL     1      -0.994  14.759  24.673  0.00  0.00    +0.000 OA
ATOM      5  N   UNL     1      -2.505  16.447  25.053  0.00  0.00    +0.000 N 
ATOM      6  C   UNL     1      -1.579  17.080  25.972  0.00  0.00    +0.000 C 
ATOM      7  C   UNL     1      -3.782  17.025  24.959  0.00  0.00    +0.000 A 
ATOM      8  O   UNL     1      -4.086  18.002  25.649  0.00  0.00    +0.000 OA
ATOM      9  N   UNL     1      -4.684  16.438  24.065  0.00  0.00    +0.000 N 
ATOM     10  C   UNL     1      -6.029  16.985  23.954  0.00  0.00    +0.000 C 
ATOM     11  C   UNL     1      -4.285  15.337  23.322  0.00  0.00    +0.000 A 
ATOM     12  C   UNL     1      -4.991  14.637  22.389  0.00  0.00    +0.000 A 
ATOM     13  N   UNL     1      -4.188  13.630  21.877  0.00  0.00    +0.000 N 
ENDROOT
BRANCH   1  17
ATOM     14  C   UNL     1       0.190  10.728  22.077  0.00  0.00    +0.000 A 
ATOM     15  C   UNL     1      -0.855  10.491  22.962  0.00  0.00    +0.000 A 
ATOM     16  C   UNL     1      -1.834  11.466  23.178  0.00  0.00    +0.000 A 
ATOM     17  C   UNL     1      -1.865  12.651  22.424  0.00  0.00    +0.000 A 
ATOM     18  C   UNL     1      -0.823  12.846  21.510  0.00  0.00    +0.000 A 
ATOM     19  C   UNL     1       0.225  11.928  21.378  0.00  0.00    +0.000 A 
BRANCH  14  21
ATOM     20  C   UNL     1       0.853   8.718  21.042  0.00  0.00    +0.000 C 
ATOM     21  O   UNL     1       1.121   9.734  22.001  0.00  0.00    +0.000 OA
ENDBRANCH  14  21
ENDBRANCH   1  17
BRANCH  13  22
ATOM     22  C   UNL     1      -4.622  12.757  20.828  0.00  0.00    +0.000 A 
ATOM     23  C   UNL     1      -3.785  12.515  19.730  0.00  0.00    +0.000 A 
ATOM     24  C   UNL     1      -4.229  11.710  18.682  0.00  0.00    +0.000 A 
ATOM     25  C   UNL     1      -5.520  11.175  18.703  0.00  0.00    +0.000 A 
ATOM     26  C   UNL     1      -6.383  11.446  19.764  0.00  0.00    +0.000 A 
ATOM     27  C   UNL     1      -5.888  12.157  20.861  0.00  0.00    +0.000 A 
BRANCH  26  28
ATOM     28  N   UNL     1      -7.643  10.838  19.841  0.00  0.00    +0.000 N 
ATOM     29  H   UNL     1      -8.379  11.451  20.173  0.00  0.00    +0.000 HD
ATOM     30  H   UNL     1      -7.630   9.955  20.345  0.00  0.00    +0.000 HD
ENDBRANCH  26  28
ENDBRANCH  13  22
TORSDOF 4
ENDMDL
MODEL 8
REMARK VINA RESULT:      -6.9      5.805      8.510
REMARK  Name = 
REMARK  7 active torsions:
REMARK  status: ('A' for Active; 'I' for Inactive)
REMARK    1  A    between atoms: C_1  and  O_2
REMARK    2  A    between atoms: O_2  and  C_3
REMARK    3  A    between atoms: C_6  and  C_7
REMARK    4  A    between atoms: N_11  and  C_12
REMARK    5  A    between atoms: N_15  and  C_16
REMARK    6  A    between atoms: N_19  and  C_20
REMARK    7  A    between atoms: C_24  and  N_25
REMARK                            x       y       z     vdW  Elec       q    Type
REMARK                         _______ _______ _______ _____ _____    ______ ____
ROOT
ATOM      1  C   UNL     1      -0.073  13.053  19.837  0.00  0.00    +0.000 A 
ATOM      2  C   UNL     1       0.634  14.234  19.536  0.00  0.00    +0.000 A 
ATOM      3  C   UNL     1       0.278  15.425  18.790  0.00  0.00    +0.000 A 
ATOM      4  O   UNL     1      -0.791  15.567  18.200  0.00  0.00    +0.000 OA
ATOM      5  N   UNL     1       1.258  16.421  18.794  0.00  0.00    +0.000 N 
ATOM      6  C   UNL     1       0.935  17.674  18.139  0.00  0.00    +0.000 C 
ATOM      7  C   UNL     1       2.566  16.296  19.291  0.00  0.00    +0.000 A 
ATOM      8  O   UNL     1       3.386  17.207  19.145  0.00  0.00    +0.000 OA
ATOM      9  N   UNL     1       2.892  15.101  19.940  0.00  0.00    +0.000 N 
ATOM     10  C   UNL     1       4.244  14.916  20.448  0.00  0.00    +0.000 C 
ATOM     11  C   UNL     1       1.927  14.112  20.066  0.00  0.00    +0.000 A 
ATOM     12  C   UNL     1       2.028  12.897  20.676  0.00  0.00    +0.000 A 
ATOM     13  N   UNL     1       0.807  12.245  20.588  0.00  0.00    +0.000 N 
ENDROOT
BRANCH   1  17
ATOM     14  C   UNL     1      -4.037  11.867  18.587  0.00  0.00    +0.000 A 
ATOM     15  C   UNL     1      -2.930  11.513  17.825  0.00  0.00    +0.000 A 
ATOM     16  C   UNL     1      -1.653  11.957  18.185  0.00  0.00    +0.000 A 
ATOM     17  C   UNL     1      -1.434  12.660  19.381  0.00  0.00    +0.000 A 
ATOM     18  C   UNL     1      -2.562  12.968  20.150  0.00  0.00    +0.000 A 
ATOM     19  C   UNL     1      -3.854  12.631  19.732  0.00  0.00    +0.000 A 
BRANCH  14  21
ATOM     20  C   UNL     1      -5.939  12.366  17.288  0.00  0.00    +0.000 C 
ATOM     21  O   UNL     1      -5.236  11.434  18.100  0.00  0.00    +0.000 OA
ENDBRANCH  14  21
ENDBRANCH   1  17
BRANCH  13  22
ATOM     22  C   UNL     1       0.571  10.968  21.191  0.00  0.00    +0.000 A 
ATOM     23  C   UNL     1      -0.249  10.872  22.323  0.00  0.00    +0.000 A 
ATOM     24  C   UNL     1      -0.435   9.637  22.944  0.00  0.00    +0.000 A 
ATOM     25  C   UNL     1       0.225   8.503  22.465  0.00  0.00    +0.000 A 
ATOM     26  C   UNL     1       1.082   8.589  21.370  0.00  0.00    +0.000 A 
ATOM     27  C   UNL     1       1.171   9.806  20.687  0.00  0.00    +0.000 A 
BRANCH  26  28
ATOM     28  N   UNL     1       1.673   7.442  20.825  0.00  0.00    +0.000 N 
ATOM     29  H   UNL     1       1.160   7.039  20.048  0.00  0.00    +0.000 HD
ATOM     30  H   UNL     1       1.909   6.744  21.525  0.00  0.00    +0.000 HD
ENDBRANCH  26  28
ENDBRANCH  13  22
TORSDOF 4
ENDMDL
MODEL 9
REMARK VINA RESULT:      -6.9      7.145      9.208
REMARK  Name = 
REMARK  7 active torsions:
REMARK  status: ('A' for Active; 'I' for Inactive)
REMARK    1  A    between atoms: C_1  and  O_2
REMARK    2  A    between atoms: O_2  and  C_3
REMARK    3  A    between atoms: C_6  and  C_7
REMARK    4  A    between atoms: N_11  and  C_12
REMARK    5  A    between atoms: N_15  and  C_16
REMARK    6  A    between atoms: N_19  and  C_20
REMARK    7  A    between atoms: C_24  and  N_25
REMARK                            x       y       z     vdW  Elec       q    Type
REMARK                         _______ _______ _______ _____ _____    ______ ____
ROOT
ATOM      1  C   UNL     1      -0.771  13.491  21.005  0.00  0.00    +0.000 A 
ATOM      2  C   UNL     1      -1.145  13.991  22.268  0.00  0.00    +0.000 A 
ATOM      3  C   UNL     1      -0.562  14.997  23.134  0.00  0.00    +0.000 A 
ATOM      4  O   UNL     1       0.491  15.583  22.888  0.00  0.00    +0.000 OA
ATOM      5  N   UNL     1      -1.300  15.260  24.290  0.00  0.00    +0.000 N 
ATOM      6  C   UNL     1      -0.820  16.316  25.160  0.00  0.00    +0.000 C 
ATOM      7  C   UNL     1      -2.416  14.537  24.745  0.00  0.00    +0.000 A 
ATOM      8  O   UNL     1      -2.928  14.789  25.839  0.00  0.00    +0.000 OA
ATOM      9  N   UNL     1      -2.903  13.525  23.912  0.00  0.00    +0.000 N 
ATOM     10  C   UNL     1      -4.041  12.731  24.354  0.00  0.00    +0.000 C 
ATOM     11  C   UNL     1      -2.280  13.286  22.697  0.00  0.00    +0.000 A 
ATOM     12  C   UNL     1      -2.605  12.373  21.737  0.00  0.00    +0.000 A 
ATOM     13  N   UNL     1      -1.725  12.505  20.673  0.00  0.00    +0.000 N 
ENDROOT
BRANCH   1  17
ATOM     14  C   UNL     1       2.687  14.479  18.609  0.00  0.00    +0.000 A 
ATOM     15  C   UNL     1       2.697  13.348  19.416  0.00  0.00    +0.000 A 
ATOM     16  C   UNL     1       1.610  13.065  20.249  0.00  0.00    +0.000 A 
ATOM     17  C   UNL     1       0.436  13.833  20.205  0.00  0.00    +0.000 A 
ATOM     18  C   UNL     1       0.437  14.943  19.353  0.00  0.00    +0.000 A 
ATOM     19  C   UNL     1       1.567  15.300  18.608  0.00  0.00    +0.000 A 
BRANCH  14  21
ATOM     20  C   UNL     1       4.900  15.289  18.612  0.00  0.00    +0.000 C 
ATOM     21  O   UNL     1       3.829  14.689  17.893  0.00  0.00    +0.000 OA
ENDBRANCH  14  21
ENDBRANCH   1  17
BRANCH  13  22
ATOM     22  C   UNL     1      -1.844  11.727  19.476  0.00  0.00    +0.000 A 
ATOM     23  C   UNL     1      -0.913  10.715  19.207  0.00  0.00    +0.000 A 
ATOM     24  C   UNL     1      -0.995   9.995  18.015  0.00  0.00    +0.000 A 
ATOM     25  C   UNL     1      -1.978  10.305  17.072  0.00  0.00    +0.000 A 
ATOM     26  C   UNL     1      -2.882  11.341  17.303  0.00  0.00    +0.000 A 
ATOM     27  C   UNL     1      -2.862  11.978  18.547  0.00  0.00    +0.000 A 
BRANCH  26  28
ATOM     28  N   UNL     1      -3.928  11.597  16.407  0.00  0.00    +0.000 N 
ATOM     29  H   UNL     1      -4.487  12.409  16.643  0.00  0.00    +0.000 HD
ATOM     30  H   UNL     1      -4.506  10.780  16.225  0.00  0.00    +0.000 HD
ENDBRANCH  26  28
ENDBRANCH  13  22
TORSDOF 4
ENDMDL
