MODEL 1
REMARK VINA RESULT:      -5.1      0.000      0.000
REMARK  Name = 
REMARK  5 active torsions:
REMARK  status: ('A' for Active; 'I' for Inactive)
REMARK    1  A    between atoms: C_1  and  C_2
REMARK    2  A    between atoms: C_2  and  C_3
REMARK    3  A    between atoms: C_3  and  C_4
REMARK    4  A    between atoms: C_4  and  N_5
REMARK    5  A    between atoms: C_10  and  C_11
REMARK                            x       y       z     vdW  Elec       q    Type
REMARK                         _______ _______ _______ _____ _____    ______ ____
ROOT
ATOM      1  N   UNL     1       6.099   4.549  17.942  0.00  0.00    +0.000 N 
ATOM      2  C   UNL     1       5.412   4.599  19.113  0.00  0.00    +0.000 A 
ATOM      3  C   UNL     1       4.057   4.313  19.172  0.00  0.00    +0.000 A 
ATOM      4  C   UNL     1       3.385   3.973  18.012  0.00  0.00    +0.000 A 
ATOM      5  C   UNL     1       4.088   3.912  16.816  0.00  0.00    +0.000 A 
ATOM      6  C   UNL     1       5.465   4.195  16.784  0.00  0.00    +0.000 A 
ATOM      7  C   UNL     1       6.207   4.076  15.483  0.00  0.00    +0.000 C 
ENDROOT
BRANCH   1   8
ATOM      8  C   UNL     1       7.552   4.876  17.979  0.00  0.00    +0.000 C 
BRANCH   8   9
ATOM      9  C   UNL     1       7.755   6.266  18.576  0.00  0.00    +0.000 C 
BRANCH   9  11
ATOM     10  C   UNL     1       8.130   8.678  17.921  0.00  0.00    +0.000 C 
ATOM     11  C   UNL     1       7.487   7.355  17.535  0.00  0.00    +0.000 C 
ENDBRANCH   9  11
ENDBRANCH   8   9
ENDBRANCH   1   8
TORSDOF 3
ENDMDL
MODEL 2
REMARK VINA RESULT:      -5.0      2.467      4.034
REMARK  Name = 
REMARK  5 active torsions:
REMARK  status: ('A' for Active; 'I' for Inactive)
REMARK    1  A    between atoms: C_1  and  C_2
REMARK    2  A    between atoms: C_2  and  C_3
REMARK    3  A    between atoms: C_3  and  C_4
REMARK    4  A    between atoms: C_4  and  N_5
REMARK    5  A    between atoms: C_10  and  C_11
REMARK                            x       y       z     vdW  Elec       q    Type
REMARK                         _______ _______ _______ _____ _____    ______ ____
ROOT
ATOM      1  N   UNL     1       3.140   3.244  19.208  0.00  0.00    +0.000 N 
ATOM      2  C   UNL     1       3.465   2.686  20.403  0.00  0.00    +0.000 A 
ATOM      3  C   UNL     1       2.557   2.630  21.448  0.00  0.00    +0.000 A 
ATOM      4  C   UNL     1       1.289   3.156  21.274  0.00  0.00    +0.000 A 
ATOM      5  C   UNL     1       0.953   3.717  20.049  0.00  0.00    +0.000 A 
ATOM      6  C   UNL     1       1.888   3.753  19.000  0.00  0.00    +0.000 A 
ATOM      7  C   UNL     1       1.478   4.326  17.673  0.00  0.00    +0.000 C 
ENDROOT
BRANCH   1   8
ATOM      8  C   UNL     1       4.186   3.261  18.146  0.00  0.00    +0.000 C 
BRANCH   8   9
ATOM      9  C   UNL     1       5.090   4.477  18.330  0.00  0.00    +0.000 C 
BRANCH   9  11
ATOM     10  C   UNL     1       5.143   4.318  15.808  0.00  0.00    +0.000 C 
ATOM     11  C   UNL     1       5.262   5.238  17.014  0.00  0.00    +0.000 C 
ENDBRANCH   9  11
ENDBRANCH   8   9
ENDBRANCH   1   8
TORSDOF 3
ENDMDL
MODEL 3
REMARK VINA RESULT:      -4.9      2.381      3.650
REMARK  Name = 
REMARK  5 active torsions:
REMARK  status: ('A' for Active; 'I' for Inactive)
REMARK    1  A    between atoms: C_1  and  C_2
REMARK    2  A    between atoms: C_2  and  C_3
REMARK    3  A    between atoms: C_3  and  C_4
REMARK    4  A    between atoms: C_4  and  N_5
REMARK    5  A    between atoms: C_10  and  C_11
REMARK                            x       y       z     vdW  Elec       q    Type
REMARK                         _______ _______ _______ _____ _____    ______ ____
ROOT
ATOM      1  N   UNL     1       4.205   4.367  17.385  0.00  0.00    +0.000 N 
ATOM      2  C   UNL     1       3.723   3.097  17.371  0.00  0.00    +0.000 A 
ATOM      3  C   UNL     1       2.400   2.820  17.679  0.00  0.00    +0.000 A 
ATOM      4  C   UNL     1       1.550   3.859  18.013  0.00  0.00    +0.000 A 
ATOM      5  C   UNL     1       2.039   5.158  18.018  0.00  0.00    +0.000 A 
ATOM      6  C   UNL     1       3.383   5.415  17.691  0.00  0.00    +0.000 A 
ATOM      7  C   UNL     1       3.870   6.836  17.661  0.00  0.00    +0.000 C 
ENDROOT
BRANCH   1   8
ATOM      8  C   UNL     1       5.642   4.564  17.044  0.00  0.00    +0.000 C 
BRANCH   8   9
ATOM      9  C   UNL     1       5.993   3.760  15.795  0.00  0.00    +0.000 C 
BRANCH   9  11
ATOM     10  C   UNL     1       5.993   3.758  13.268  0.00  0.00    +0.000 C 
ATOM     11  C   UNL     1       5.697   4.560  14.525  0.00  0.00    +0.000 C 
ENDBRANCH   9  11
ENDBRANCH   8   9
ENDBRANCH   1   8
TORSDOF 3
ENDMDL
MODEL 4
REMARK VINA RESULT:      -4.9      2.427      5.222
REMARK  Name = 
REMARK  5 active torsions:
REMARK  status: ('A' for Active; 'I' for Inactive)
REMARK    1  A    between atoms: C_1  and  C_2
REMARK    2  A    between atoms: C_2  and  C_3
REMARK    3  A    between atoms: C_3  and  C_4
REMARK    4  A    between atoms: C_4  and  N_5
REMARK    5  A    between atoms: C_10  and  C_11
REMARK                            x       y       z     vdW  Elec       q    Type
REMARK                         _______ _______ _______ _____ _____    ______ ____
ROOT
ATOM      1  N   UNL     1       3.873   4.509  17.790  0.00  0.00    +0.000 N 
ATOM      2  C   UNL     1       4.649   4.075  16.762  0.00  0.00    +0.000 A 
ATOM      3  C   UNL     1       5.286   4.963  15.909  0.00  0.00    +0.000 A 
ATOM      4  C   UNL     1       5.126   6.324  16.104  0.00  0.00    +0.000 A 
ATOM      5  C   UNL     1       4.342   6.768  17.160  0.00  0.00    +0.000 A 
ATOM      6  C   UNL     1       3.715   5.847  18.019  0.00  0.00    +0.000 A 
ATOM      7  C   UNL     1       2.910   6.360  19.179  0.00  0.00    +0.000 C 
ENDROOT
BRANCH   1   8
ATOM      8  C   UNL     1       3.226   3.478  18.650  0.00  0.00    +0.000 C 
BRANCH   8   9
ATOM      9  C   UNL     1       2.056   2.842  17.905  0.00  0.00    +0.000 C 
BRANCH   9  11
ATOM     10  C   UNL     1       1.035   3.302  20.170  0.00  0.00    +0.000 C 
ATOM     11  C   UNL     1       0.893   2.551  18.855  0.00  0.00    +0.000 C 
ENDBRANCH   9  11
ENDBRANCH   8   9
ENDBRANCH   1   8
TORSDOF 3
ENDMDL
MODEL 5
REMARK VINA RESULT:      -4.9      2.333      3.742
REMARK  Name = 
REMARK  5 active torsions:
REMARK  status: ('A' for Active; 'I' for Inactive)
REMARK    1  A    between atoms: C_1  and  C_2
REMARK    2  A    between atoms: C_2  and  C_3
REMARK    3  A    between atoms: C_3  and  C_4
REMARK    4  A    between atoms: C_4  and  N_5
REMARK    5  A    between atoms: C_10  and  C_11
REMARK                            x       y       z     vdW  Elec       q    Type
REMARK                         _______ _______ _______ _____ _____    ______ ____
ROOT
ATOM      1  N   UNL     1       3.213   3.482  19.312  0.00  0.00    +0.000 N 
ATOM      2  C   UNL     1       3.536   2.921  20.507  0.00  0.00    +0.000 A 
ATOM      3  C   UNL     1       2.569   2.638  21.460  0.00  0.00    +0.000 A 
ATOM      4  C   UNL     1       1.245   2.936  21.192  0.00  0.00    +0.000 A 
ATOM      5  C   UNL     1       0.914   3.500  19.967  0.00  0.00    +0.000 A 
ATOM      6  C   UNL     1       1.910   3.767  19.012  0.00  0.00    +0.000 A 
ATOM      7  C   UNL     1       1.513   4.336  17.680  0.00  0.00    +0.000 C 
ENDROOT
BRANCH   1   8
ATOM      8  C   UNL     1       4.322   3.753  18.354  0.00  0.00    +0.000 C 
BRANCH   8   9
ATOM      9  C   UNL     1       4.814   5.187  18.524  0.00  0.00    +0.000 C 
BRANCH   9  11
ATOM     10  C   UNL     1       7.321   5.205  18.204  0.00  0.00    +0.000 C 
ATOM     11  C   UNL     1       6.181   5.220  19.211  0.00  0.00    +0.000 C 
ENDBRANCH   9  11
ENDBRANCH   8   9
ENDBRANCH   1   8
TORSDOF 3
ENDMDL
MODEL 6
REMARK VINA RESULT:      -4.9      2.388      3.485
REMARK  Name = 
REMARK  5 active torsions:
REMARK  status: ('A' for Active; 'I' for Inactive)
REMARK    1  A    between atoms: C_1  and  C_2
REMARK    2  A    between atoms: C_2  and  C_3
REMARK    3  A    between atoms: C_3  and  C_4
REMARK    4  A    between atoms: C_4  and  N_5
REMARK    5  A    between atoms: C_10  and  C_11
REMARK                            x       y       z     vdW  Elec       q    Type
REMARK                         _______ _______ _______ _____ _____    ______ ____
ROOT
ATOM      1  N   UNL     1       3.546   3.902  19.447  0.00  0.00    +0.000 N 
ATOM      2  C   UNL     1       2.963   4.899  20.163  0.00  0.00    +0.000 A 
ATOM      3  C   UNL     1       1.637   4.827  20.559  0.00  0.00    +0.000 A 
ATOM      4  C   UNL     1       0.885   3.718  20.214  0.00  0.00    +0.000 A 
ATOM      5  C   UNL     1       1.483   2.695  19.490  0.00  0.00    +0.000 A 
ATOM      6  C   UNL     1       2.834   2.785  19.111  0.00  0.00    +0.000 A 
ATOM      7  C   UNL     1       3.463   1.641  18.367  0.00  0.00    +0.000 C 
ENDROOT
BRANCH   1   8
ATOM      8  C   UNL     1       4.977   4.071  19.065  0.00  0.00    +0.000 C 
BRANCH   8   9
ATOM      9  C   UNL     1       5.156   5.375  18.293  0.00  0.00    +0.000 C 
BRANCH   9  11
ATOM     10  C   UNL     1       5.111   6.431  15.998  0.00  0.00    +0.000 C 
ATOM     11  C   UNL     1       4.767   5.202  16.824  0.00  0.00    +0.000 C 
ENDBRANCH   9  11
ENDBRANCH   8   9
ENDBRANCH   1   8
TORSDOF 3
ENDMDL
MODEL 7
REMARK VINA RESULT:      -4.9      1.421      4.380
REMARK  Name = 
REMARK  5 active torsions:
REMARK  status: ('A' for Active; 'I' for Inactive)
REMARK    1  A    between atoms: C_1  and  C_2
REMARK    2  A    between atoms: C_2  and  C_3
REMARK    3  A    between atoms: C_3  and  C_4
REMARK    4  A    between atoms: C_4  and  N_5
REMARK    5  A    between atoms: C_10  and  C_11
REMARK                            x       y       z     vdW  Elec       q    Type
REMARK                         _______ _______ _______ _____ _____    ______ ____
ROOT
ATOM      1  N   UNL     1       5.080   4.310  17.601  0.00  0.00    +0.000 N 
ATOM      2  C   UNL     1       5.207   4.804  18.860  0.00  0.00    +0.000 A 
ATOM      3  C   UNL     1       6.399   5.353  19.307  0.00  0.00    +0.000 A 
ATOM      4  C   UNL     1       7.487   5.397  18.454  0.00  0.00    +0.000 A 
ATOM      5  C   UNL     1       7.355   4.902  17.164  0.00  0.00    +0.000 A 
ATOM      6  C   UNL     1       6.132   4.360  16.729  0.00  0.00    +0.000 A 
ATOM      7  C   UNL     1       6.009   3.874  15.313  0.00  0.00    +0.000 C 
ENDROOT
BRANCH   1   8
ATOM      8  C   UNL     1       3.760   3.736  17.213  0.00  0.00    +0.000 C 
BRANCH   8   9
ATOM      9  C   UNL     1       2.635   4.600  17.776  0.00  0.00    +0.000 C 
BRANCH   9  11
ATOM     10  C   UNL     1       1.166   3.772  19.657  0.00  0.00    +0.000 C 
ATOM     11  C   UNL     1       1.426   3.746  18.159  0.00  0.00    +0.000 C 
ENDBRANCH   9  11
ENDBRANCH   8   9
ENDBRANCH   1   8
TORSDOF 3
ENDMDL
MODEL 8
REMARK VINA RESULT:      -4.9      2.479      5.267
REMARK  Name = 
REMARK  5 active torsions:
REMARK  status: ('A' for Active; 'I' for Inactive)
REMARK    1  A    between atoms: C_1  and  C_2
REMARK    2  A    between atoms: C_2  and  C_3
REMARK    3  A    between atoms: C_3  and  C_4
REMARK    4  A    between atoms: C_4  and  N_5
REMARK    5  A    between atoms: C_10  and  C_11
REMARK                            x       y       z     vdW  Elec       q    Type
REMARK                         _______ _______ _______ _____ _____    ______ ____
ROOT
ATOM      1  N   UNL     1       3.355   3.266  18.256  0.00  0.00    +0.000 N 
ATOM      2  C   UNL     1       3.230   4.249  17.327  0.00  0.00    +0.000 A 
ATOM      3  C   UNL     1       4.127   5.304  17.263  0.00  0.00    +0.000 A 
ATOM      4  C   UNL     1       5.171   5.363  18.169  0.00  0.00    +0.000 A 
ATOM      5  C   UNL     1       5.305   4.353  19.112  0.00  0.00    +0.000 A 
ATOM      6  C   UNL     1       4.389   3.286  19.150  0.00  0.00    +0.000 A 
ATOM      7  C   UNL     1       4.588   2.186  20.154  0.00  0.00    +0.000 C 
ENDROOT
BRANCH   1   8
ATOM      8  C   UNL     1       2.340   2.174  18.248  0.00  0.00    +0.000 C 
BRANCH   8   9
ATOM      9  C   UNL     1       0.984   2.725  18.682  0.00  0.00    +0.000 C 
BRANCH   9  11
ATOM     10  C   UNL     1       1.122   4.456  20.517  0.00  0.00    +0.000 C 
ATOM     11  C   UNL     1       0.952   2.981  20.189  0.00  0.00    +0.000 C 
ENDBRANCH   9  11
ENDBRANCH   8   9
ENDBRANCH   1   8
TORSDOF 3
ENDMDL
MODEL 9
REMARK VINA RESULT:      -4.9      2.335      4.830
REMARK  Name = 
REMARK  5 active torsions:
REMARK  status: ('A' for Active; 'I' for Inactive)
REMARK    1  A    between atoms: C_1  and  C_2
REMARK    2  A    between atoms: C_2  and  C_3
REMARK    3  A    between atoms: C_3  and  C_4
REMARK    4  A    between atoms: C_4  and  N_5
REMARK    5  A    between atoms: C_10  and  C_11
REMARK                            x       y       z     vdW  Elec       q    Type
REMARK                         _______ _______ _______ _____ _____    ______ ____
ROOT
ATOM      1  N   UNL     1       3.924   4.746  18.565  0.00  0.00    +0.000 N 
ATOM      2  C   UNL     1       4.315   6.018  18.292  0.00  0.00    +0.000 A 
ATOM      3  C   UNL     1       4.898   6.353  17.080  0.00  0.00    +0.000 A 
ATOM      4  C   UNL     1       5.091   5.371  16.126  0.00  0.00    +0.000 A 
ATOM      5  C   UNL     1       4.682   4.072  16.400  0.00  0.00    +0.000 A 
ATOM      6  C   UNL     1       4.082   3.759  17.633  0.00  0.00    +0.000 A 
ATOM      7  C   UNL     1       3.611   2.355  17.881  0.00  0.00    +0.000 C 
ENDROOT
BRANCH   1   8
ATOM      8  C   UNL     1       3.310   4.483  19.898  0.00  0.00    +0.000 C 
BRANCH   8   9
ATOM      9  C   UNL     1       1.837   4.880  19.877  0.00  0.00    +0.000 C 
BRANCH   9  11
ATOM     10  C   UNL     1       1.747   2.892  21.434  0.00  0.00    +0.000 C 
ATOM     11  C   UNL     1       0.963   3.780  20.480  0.00  0.00    +0.000 C 
ENDBRANCH   9  11
ENDBRANCH   8   9
ENDBRANCH   1   8
TORSDOF 3
ENDMDL
