MODEL 1
REMARK VINA RESULT:      -8.4      0.000      0.000
REMARK  Name = 
REMARK  11 active torsions:
REMARK  status: ('A' for Active; 'I' for Inactive)
REMARK    1  A    between atoms: C_1  and  C_2
REMARK    2  A    between atoms: C_5  and  C_6
REMARK    3  A    between atoms: C_6  and  C_7
REMARK    4  A    between atoms: C_6  and  C_8
REMARK    5  A    between atoms: C_9  and  O_10
REMARK    6  A    between atoms: O_10  and  C_11
REMARK    7  A    between atoms: N_15  and  CA_16
REMARK    8  A    between atoms: CA_16  and  C_17
REMARK    9  A    between atoms: CA_16  and  C_19
REMARK   10  A    between atoms: C_17  and  O_18
REMARK   11  A    between atoms: C_26  and  N_27
REMARK                            x       y       z     vdW  Elec       q    Type
REMARK                         _______ _______ _______ _____ _____    ______ ____
ROOT
ATOM      1  C   UNL     1       2.644   7.503  18.964  0.00  0.00    +0.000 A 
ATOM      2  C   UNL     1       2.741   8.174  17.764  0.00  0.00    +0.000 A 
ATOM      3  N   UNL     1       2.015   9.268  17.450  0.00  0.00    +0.000 NA
ATOM      4  C   UNL     1       1.202   9.741  18.399  0.00  0.00    +0.000 A 
ATOM      5  N   UNL     1       0.457  10.850  18.058  0.00  0.00    +0.000 N 
ATOM      6  N   UNL     1       1.061   9.186  19.612  0.00  0.00    +0.000 NA
ATOM      7  C   UNL     1       1.774   8.078  19.876  0.00  0.00    +0.000 A 
ATOM      8  H   UNL     1       0.760  11.186  17.152  0.00  0.00    +0.000 HD
ENDROOT
BRANCH   7   9
ATOM      9  N   UNL     1       1.617   7.573  21.172  0.00  0.00    +0.000 N 
ATOM     10  H   UNL     1       0.743   7.059  21.201  0.00  0.00    +0.000 HD
ATOM     11  H   UNL     1       2.417   7.018  21.457  0.00  0.00    +0.000 HD
ENDBRANCH   7   9
BRANCH   1  12
ATOM     12  O   UNL     1       3.356   6.386  19.318  0.00  0.00    +0.000 OA
BRANCH  12  18
ATOM     13  C   UNL     1       0.606   2.308  18.813  0.00  0.00    +0.000 C 
ATOM     14  C   UNL     1       1.800   3.134  18.436  0.00  0.00    +0.000 A 
ATOM     15  C   UNL     1       2.700   2.697  17.466  0.00  0.00    +0.000 A 
ATOM     16  C   UNL     1       3.805   3.481  17.122  0.00  0.00    +0.000 A 
ATOM     17  C   UNL     1       4.025   4.740  17.710  0.00  0.00    +0.000 A 
ATOM     18  C   UNL     1       3.109   5.179  18.689  0.00  0.00    +0.000 A 
ATOM     19  C   UNL     1       2.032   4.359  19.070  0.00  0.00    +0.000 A 
BRANCH  17  20
ATOM     20  C   UNL     1       5.248   5.571  17.332  0.00  0.00    +0.000 C 
ATOM     21  C   UNL     1       6.534   4.783  17.597  0.00  0.00    +0.000 C 
ATOM     22  C   UNL     1       5.246   6.075  15.879  0.00  0.00    +0.000 C 
ENDBRANCH  17  20
ENDBRANCH  12  18
ENDBRANCH   1  12
BRANCH   5  23
ATOM     23  CA  UNL     1       0.317  11.879  19.083  0.00  0.00    +0.000 C 
BRANCH  23  24
ATOM     24  C   UNL     1       1.545  12.781  19.211  0.00  0.00    +0.000 A 
ATOM     25  C   UNL     1       2.249  13.276  18.099  0.00  0.00    +0.000 A 
ATOM     26  C   UNL     1       3.364  14.101  18.263  0.00  0.00    +0.000 A 
ATOM     27  C   UNL     1       3.786  14.460  19.541  0.00  0.00    +0.000 A 
ATOM     28  C   UNL     1       3.091  13.997  20.655  0.00  0.00    +0.000 A 
ATOM     29  C   UNL     1       1.980  13.165  20.492  0.00  0.00    +0.000 A 
ENDBRANCH  23  24
BRANCH  23  30
ATOM     30  C   UNL     1      -0.953  12.719  18.779  0.00  0.00    +0.000 C 
BRANCH  30  31
ATOM     31  O   UNL     1      -1.364  12.641  17.411  0.00  0.00    +0.000 OA
ATOM     32  H   UNL     1      -2.328  12.499  17.416  0.00  0.00    +0.000 HD
ENDBRANCH  30  31
ENDBRANCH  23  30
ENDBRANCH   5  23
TORSDOF 8
ENDMDL
MODEL 2
REMARK VINA RESULT:      -8.0      0.700      2.513
REMARK  Name = 
REMARK  11 active torsions:
REMARK  status: ('A' for Active; 'I' for Inactive)
REMARK    1  A    between atoms: C_1  and  C_2
REMARK    2  A    between atoms: C_5  and  C_6
REMARK    3  A    between atoms: C_6  and  C_7
REMARK    4  A    between atoms: C_6  and  C_8
REMARK    5  A    between atoms: C_9  and  O_10
REMARK    6  A    between atoms: O_10  and  C_11
REMARK    7  A    between atoms: N_15  and  CA_16
REMARK    8  A    between atoms: CA_16  and  C_17
REMARK    9  A    between atoms: CA_16  and  C_19
REMARK   10  A    between atoms: C_17  and  O_18
REMARK   11  A    between atoms: C_26  and  N_27
REMARK                            x       y       z     vdW  Elec       q    Type
REMARK                         _______ _______ _______ _____ _____    ______ ____
ROOT
ATOM      1  C   UNL     1       2.541   7.530  19.157  0.00  0.00    +0.000 A 
ATOM      2  C   UNL     1       2.696   8.157  17.940  0.00  0.00    +0.000 A 
ATOM      3  N   UNL     1       2.006   9.255  17.563  0.00  0.00    +0.000 NA
ATOM      4  C   UNL     1       1.171   9.778  18.466  0.00  0.00    +0.000 A 
ATOM      5  N   UNL     1       0.463  10.889  18.061  0.00  0.00    +0.000 N 
ATOM      6  N   UNL     1       0.975   9.267  19.690  0.00  0.00    +0.000 NA
ATOM      7  C   UNL     1       1.652   8.154  20.017  0.00  0.00    +0.000 A 
ATOM      8  H   UNL     1       0.806  11.188  17.156  0.00  0.00    +0.000 HD
ENDROOT
BRANCH   7   9
ATOM      9  N   UNL     1       1.439   7.697  21.323  0.00  0.00    +0.000 N 
ATOM     10  H   UNL     1       1.111   8.483  21.876  0.00  0.00    +0.000 HD
ATOM     11  H   UNL     1       0.807   6.903  21.344  0.00  0.00    +0.000 HD
ENDBRANCH   7   9
BRANCH   1  12
ATOM     12  O   UNL     1       3.216   6.411  19.574  0.00  0.00    +0.000 OA
BRANCH  12  18
ATOM     13  C   UNL     1       5.524   4.528  15.628  0.00  0.00    +0.000 C 
ATOM     14  C   UNL     1       4.514   4.411  16.730  0.00  0.00    +0.000 A 
ATOM     15  C   UNL     1       3.746   3.258  16.882  0.00  0.00    +0.000 A 
ATOM     16  C   UNL     1       2.812   3.162  17.918  0.00  0.00    +0.000 A 
ATOM     17  C   UNL     1       2.642   4.199  18.853  0.00  0.00    +0.000 A 
ATOM     18  C   UNL     1       3.425   5.362  18.697  0.00  0.00    +0.000 A 
ATOM     19  C   UNL     1       4.321   5.474  17.619  0.00  0.00    +0.000 A 
BRANCH  17  20
ATOM     20  C   UNL     1       1.605   4.080  19.966  0.00  0.00    +0.000 C 
ATOM     21  C   UNL     1       0.597   2.972  19.641  0.00  0.00    +0.000 C 
ATOM     22  C   UNL     1       2.199   3.838  21.363  0.00  0.00    +0.000 C 
ENDBRANCH  17  20
ENDBRANCH  12  18
ENDBRANCH   1  12
BRANCH   5  23
ATOM     23  CA  UNL     1       0.309  11.956  19.045  0.00  0.00    +0.000 C 
BRANCH  23  24
ATOM     24  C   UNL     1       1.551  12.836  19.187  0.00  0.00    +0.000 A 
ATOM     25  C   UNL     1       2.264  13.335  18.082  0.00  0.00    +0.000 A 
ATOM     26  C   UNL     1       3.392  14.141  18.258  0.00  0.00    +0.000 A 
ATOM     27  C   UNL     1       3.819  14.475  19.541  0.00  0.00    +0.000 A 
ATOM     28  C   UNL     1       3.116  14.007  20.648  0.00  0.00    +0.000 A 
ATOM     29  C   UNL     1       1.992  13.195  20.473  0.00  0.00    +0.000 A 
ENDBRANCH  23  24
BRANCH  23  30
ATOM     30  C   UNL     1      -0.930  12.810  18.668  0.00  0.00    +0.000 C 
BRANCH  30  31
ATOM     31  O   UNL     1      -1.289  12.703  17.288  0.00  0.00    +0.000 OA
ATOM     32  H   UNL     1      -0.992  11.825  16.988  0.00  0.00    +0.000 HD
ENDBRANCH  30  31
ENDBRANCH  23  30
ENDBRANCH   5  23
TORSDOF 8
ENDMDL
MODEL 3
REMARK VINA RESULT:      -7.5      1.168      2.832
REMARK  Name = 
REMARK  11 active torsions:
REMARK  status: ('A' for Active; 'I' for Inactive)
REMARK    1  A    between atoms: C_1  and  C_2
REMARK    2  A    between atoms: C_5  and  C_6
REMARK    3  A    between atoms: C_6  and  C_7
REMARK    4  A    between atoms: C_6  and  C_8
REMARK    5  A    between atoms: C_9  and  O_10
REMARK    6  A    between atoms: O_10  and  C_11
REMARK    7  A    between atoms: N_15  and  CA_16
REMARK    8  A    between atoms: CA_16  and  C_17
REMARK    9  A    between atoms: CA_16  and  C_19
REMARK   10  A    between atoms: C_17  and  O_18
REMARK   11  A    between atoms: C_26  and  N_27
REMARK                            x       y       z     vdW  Elec       q    Type
REMARK                         _______ _______ _______ _____ _____    ______ ____
ROOT
ATOM      1  C   UNL     1       2.257   7.756  19.224  0.00  0.00    +0.000 A 
ATOM      2  C   UNL     1       2.442   8.376  18.008  0.00  0.00    +0.000 A 
ATOM      3  N   UNL     1       1.885   9.559  17.671  0.00  0.00    +0.000 NA
ATOM      4  C   UNL     1       1.164  10.172  18.614  0.00  0.00    +0.000 A 
ATOM      5  N   UNL     1       0.590  11.373  18.250  0.00  0.00    +0.000 N 
ATOM      6  N   UNL     1       0.954   9.673  19.841  0.00  0.00    +0.000 NA
ATOM      7  C   UNL     1       1.493   8.477  20.127  0.00  0.00    +0.000 A 
ATOM      8  H   UNL     1       0.931  11.638  17.334  0.00  0.00    +0.000 HD
ENDROOT
BRANCH   7   9
ATOM      9  N   UNL     1       1.277   8.033  21.437  0.00  0.00    +0.000 N 
ATOM     10  H   UNL     1       0.277   8.056  21.611  0.00  0.00    +0.000 HD
ATOM     11  H   UNL     1       1.689   7.119  21.596  0.00  0.00    +0.000 HD
ENDBRANCH   7   9
BRANCH   1  12
ATOM     12  O   UNL     1       2.797   6.553  19.601  0.00  0.00    +0.000 OA
BRANCH  12  18
ATOM     13  C   UNL     1       5.826   5.570  15.819  0.00  0.00    +0.000 C 
ATOM     14  C   UNL     1       4.719   5.164  16.746  0.00  0.00    +0.000 A 
ATOM     15  C   UNL     1       4.123   3.908  16.649  0.00  0.00    +0.000 A 
ATOM     16  C   UNL     1       3.096   3.543  17.524  0.00  0.00    +0.000 A 
ATOM     17  C   UNL     1       2.658   4.406  18.545  0.00  0.00    +0.000 A 
ATOM     18  C   UNL     1       3.268   5.675  18.641  0.00  0.00    +0.000 A 
ATOM     19  C   UNL     1       4.260   6.056  17.721  0.00  0.00    +0.000 A 
BRANCH  17  20
ATOM     20  C   UNL     1       1.524   3.994  19.479  0.00  0.00    +0.000 C 
ATOM     21  C   UNL     1       0.778   2.782  18.910  0.00  0.00    +0.000 C 
ATOM     22  C   UNL     1       1.968   3.692  20.920  0.00  0.00    +0.000 C 
ENDBRANCH  17  20
ENDBRANCH  12  18
ENDBRANCH   1  12
BRANCH   5  23
ATOM     23  CA  UNL     1       0.618  12.435  19.250  0.00  0.00    +0.000 C 
BRANCH  23  24
ATOM     24  C   UNL     1       1.411  13.665  18.809  0.00  0.00    +0.000 A 
ATOM     25  C   UNL     1       0.909  14.975  18.909  0.00  0.00    +0.000 A 
ATOM     26  C   UNL     1       1.671  16.071  18.497  0.00  0.00    +0.000 A 
ATOM     27  C   UNL     1       2.955  15.880  17.994  0.00  0.00    +0.000 A 
ATOM     28  C   UNL     1       3.479  14.593  17.905  0.00  0.00    +0.000 A 
ATOM     29  C   UNL     1       2.715  13.495  18.309  0.00  0.00    +0.000 A 
ENDBRANCH  23  24
BRANCH  23  30
ATOM     30  C   UNL     1      -0.841  12.822  19.610  0.00  0.00    +0.000 C 
BRANCH  30  31
ATOM     31  O   UNL     1      -1.636  11.704  20.017  0.00  0.00    +0.000 OA
ATOM     32  H   UNL     1      -1.045  10.930  20.031  0.00  0.00    +0.000 HD
ENDBRANCH  30  31
ENDBRANCH  23  30
ENDBRANCH   5  23
TORSDOF 8
ENDMDL
MODEL 4
REMARK VINA RESULT:      -7.3      5.012      8.731
REMARK  Name = 
REMARK  11 active torsions:
REMARK  status: ('A' for Active; 'I' for Inactive)
REMARK    1  A    between atoms: C_1  and  C_2
REMARK    2  A    between atoms: C_5  and  C_6
REMARK    3  A    between atoms: C_6  and  C_7
REMARK    4  A    between atoms: C_6  and  C_8
REMARK    5  A    between atoms: C_9  and  O_10
REMARK    6  A    between atoms: O_10  and  C_11
REMARK    7  A    between atoms: N_15  and  CA_16
REMARK    8  A    between atoms: CA_16  and  C_17
REMARK    9  A    between atoms: CA_16  and  C_19
REMARK   10  A    between atoms: C_17  and  O_18
REMARK   11  A    between atoms: C_26  and  N_27
REMARK                            x       y       z     vdW  Elec       q    Type
REMARK                         _______ _______ _______ _____ _____    ______ ____
ROOT
ATOM      1  C   UNL     1       5.466   5.203  17.966  0.00  0.00    +0.000 A 
ATOM      2  C   UNL     1       4.579   5.642  17.006  0.00  0.00    +0.000 A 
ATOM      3  N   UNL     1       4.900   5.818  15.706  0.00  0.00    +0.000 NA
ATOM      4  C   UNL     1       6.142   5.483  15.344  0.00  0.00    +0.000 A 
ATOM      5  N   UNL     1       6.457   5.682  14.016  0.00  0.00    +0.000 N 
ATOM      6  N   UNL     1       7.068   5.012  16.190  0.00  0.00    +0.000 NA
ATOM      7  C   UNL     1       6.724   4.884  17.482  0.00  0.00    +0.000 A 
ATOM      8  H   UNL     1       5.619   5.947  13.513  0.00  0.00    +0.000 HD
ENDROOT
BRANCH   7   9
ATOM      9  N   UNL     1       7.720   4.344  18.305  0.00  0.00    +0.000 N 
ATOM     10  H   UNL     1       7.389   3.445  18.643  0.00  0.00    +0.000 HD
ATOM     11  H   UNL     1       8.612   4.286  17.825  0.00  0.00    +0.000 HD
ENDBRANCH   7   9
BRANCH   1  12
ATOM     12  O   UNL     1       5.183   5.019  19.294  0.00  0.00    +0.000 OA
BRANCH  12  18
ATOM     13  C   UNL     1       0.986   6.998  21.003  0.00  0.00    +0.000 C 
ATOM     14  C   UNL     1       1.794   5.804  20.590  0.00  0.00    +0.000 A 
ATOM     15  C   UNL     1       1.256   4.519  20.637  0.00  0.00    +0.000 A 
ATOM     16  C   UNL     1       2.022   3.417  20.243  0.00  0.00    +0.000 A 
ATOM     17  C   UNL     1       3.333   3.568  19.758  0.00  0.00    +0.000 A 
ATOM     18  C   UNL     1       3.871   4.871  19.709  0.00  0.00    +0.000 A 
ATOM     19  C   UNL     1       3.115   5.968  20.160  0.00  0.00    +0.000 A 
BRANCH  17  20
ATOM     20  C   UNL     1       4.156   2.350  19.350  0.00  0.00    +0.000 C 
ATOM     21  C   UNL     1       4.720   1.647  20.588  0.00  0.00    +0.000 C 
ATOM     22  C   UNL     1       3.394   1.332  18.485  0.00  0.00    +0.000 C 
ENDBRANCH  17  20
ENDBRANCH  12  18
ENDBRANCH   1  12
BRANCH   5  23
ATOM     23  CA  UNL     1       7.258   4.643  13.376  0.00  0.00    +0.000 C 
BRANCH  23  24
ATOM     24  C   UNL     1       6.434   3.678  12.524  0.00  0.00    +0.000 A 
ATOM     25  C   UNL     1       5.054   3.840  12.305  0.00  0.00    +0.000 A 
ATOM     26  C   UNL     1       4.340   2.935  11.515  0.00  0.00    +0.000 A 
ATOM     27  C   UNL     1       4.995   1.863  10.915  0.00  0.00    +0.000 A 
ATOM     28  C   UNL     1       6.365   1.696  11.103  0.00  0.00    +0.000 A 
ATOM     29  C   UNL     1       7.078   2.596  11.900  0.00  0.00    +0.000 A 
ENDBRANCH  23  24
BRANCH  23  30
ATOM     30  C   UNL     1       8.367   5.319  12.526  0.00  0.00    +0.000 C 
BRANCH  30  31
ATOM     31  O   UNL     1       9.265   6.116  13.303  0.00  0.00    +0.000 OA
ATOM     32  H   UNL     1       8.863   7.000  13.376  0.00  0.00    +0.000 HD
ENDBRANCH  30  31
ENDBRANCH  23  30
ENDBRANCH   5  23
TORSDOF 8
ENDMDL
MODEL 5
REMARK VINA RESULT:      -7.3      1.008      2.765
REMARK  Name = 
REMARK  11 active torsions:
REMARK  status: ('A' for Active; 'I' for Inactive)
REMARK    1  A    between atoms: C_1  and  C_2
REMARK    2  A    between atoms: C_5  and  C_6
REMARK    3  A    between atoms: C_6  and  C_7
REMARK    4  A    between atoms: C_6  and  C_8
REMARK    5  A    between atoms: C_9  and  O_10
REMARK    6  A    between atoms: O_10  and  C_11
REMARK    7  A    between atoms: N_15  and  CA_16
REMARK    8  A    between atoms: CA_16  and  C_17
REMARK    9  A    between atoms: CA_16  and  C_19
REMARK   10  A    between atoms: C_17  and  O_18
REMARK   11  A    between atoms: C_26  and  N_27
REMARK                            x       y       z     vdW  Elec       q    Type
REMARK                         _______ _______ _______ _____ _____    ______ ____
ROOT
ATOM      1  C   UNL     1       2.446   7.497  19.041  0.00  0.00    +0.000 A 
ATOM      2  C   UNL     1       2.543   8.135  17.823  0.00  0.00    +0.000 A 
ATOM      3  N   UNL     1       1.895   9.280  17.518  0.00  0.00    +0.000 NA
ATOM      4  C   UNL     1       1.170   9.837  18.491  0.00  0.00    +0.000 A 
ATOM      5  N   UNL     1       0.503  10.998  18.159  0.00  0.00    +0.000 N 
ATOM      6  N   UNL     1       1.040   9.318  19.721  0.00  0.00    +0.000 NA
ATOM      7  C   UNL     1       1.670   8.159  19.977  0.00  0.00    +0.000 A 
ATOM      8  H   UNL     1       0.791  11.291  17.233  0.00  0.00    +0.000 HD
ENDROOT
BRANCH   7   9
ATOM      9  N   UNL     1       1.532   7.694  21.290  0.00  0.00    +0.000 N 
ATOM     10  H   UNL     1       2.458   7.659  21.705  0.00  0.00    +0.000 HD
ATOM     11  H   UNL     1       0.878   8.259  21.822  0.00  0.00    +0.000 HD
ENDBRANCH   7   9
BRANCH   1  12
ATOM     12  O   UNL     1       3.080   6.331  19.387  0.00  0.00    +0.000 OA
BRANCH  12  18
ATOM     13  C   UNL     1       7.378   6.648  16.966  0.00  0.00    +0.000 C 
ATOM     14  C   UNL     1       6.116   5.909  17.295  0.00  0.00    +0.000 A 
ATOM     15  C   UNL     1       5.846   4.661  16.737  0.00  0.00    +0.000 A 
ATOM     16  C   UNL     1       4.666   3.983  17.058  0.00  0.00    +0.000 A 
ATOM     17  C   UNL     1       3.738   4.513  17.972  0.00  0.00    +0.000 A 
ATOM     18  C   UNL     1       4.019   5.775  18.538  0.00  0.00    +0.000 A 
ATOM     19  C   UNL     1       5.179   6.476  18.166  0.00  0.00    +0.000 A 
BRANCH  17  20
ATOM     20  C   UNL     1       2.450   3.763  18.296  0.00  0.00    +0.000 C 
ATOM     21  C   UNL     1       1.284   4.326  17.477  0.00  0.00    +0.000 C 
ATOM     22  C   UNL     1       2.533   2.242  18.089  0.00  0.00    +0.000 C 
ENDBRANCH  17  20
ENDBRANCH  12  18
ENDBRANCH   1  12
BRANCH   5  23
ATOM     23  CA  UNL     1       0.496  12.054  19.166  0.00  0.00    +0.000 C 
BRANCH  23  24
ATOM     24  C   UNL     1       1.411  13.230  18.821  0.00  0.00    +0.000 A 
ATOM     25  C   UNL     1       2.718  13.062  18.332  0.00  0.00    +0.000 A 
ATOM     26  C   UNL     1       3.518  14.166  18.025  0.00  0.00    +0.000 A 
ATOM     27  C   UNL     1       3.020  15.456  18.185  0.00  0.00    +0.000 A 
ATOM     28  C   UNL     1       1.721  15.644  18.650  0.00  0.00    +0.000 A 
ATOM     29  C   UNL     1       0.923  14.541  18.965  0.00  0.00    +0.000 A 
ENDBRANCH  23  24
BRANCH  23  30
ATOM     30  C   UNL     1      -0.964  12.536  19.375  0.00  0.00    +0.000 C 
BRANCH  30  31
ATOM     31  O   UNL     1      -1.756  12.465  18.186  0.00  0.00    +0.000 OA
ATOM     32  H   UNL     1      -1.196  12.060  17.500  0.00  0.00    +0.000 HD
ENDBRANCH  30  31
ENDBRANCH  23  30
ENDBRANCH   5  23
TORSDOF 8
ENDMDL
MODEL 6
REMARK VINA RESULT:      -7.1      1.574      3.054
REMARK  Name = 
REMARK  11 active torsions:
REMARK  status: ('A' for Active; 'I' for Inactive)
REMARK    1  A    between atoms: C_1  and  C_2
REMARK    2  A    between atoms: C_5  and  C_6
REMARK    3  A    between atoms: C_6  and  C_7
REMARK    4  A    between atoms: C_6  and  C_8
REMARK    5  A    between atoms: C_9  and  O_10
REMARK    6  A    between atoms: O_10  and  C_11
REMARK    7  A    between atoms: N_15  and  CA_16
REMARK    8  A    between atoms: CA_16  and  C_17
REMARK    9  A    between atoms: CA_16  and  C_19
REMARK   10  A    between atoms: C_17  and  O_18
REMARK   11  A    between atoms: C_26  and  N_27
REMARK                            x       y       z     vdW  Elec       q    Type
REMARK                         _______ _______ _______ _____ _____    ______ ____
ROOT
ATOM      1  C   UNL     1       1.869   7.933  19.402  0.00  0.00    +0.000 A 
ATOM      2  C   UNL     1       1.995   8.501  18.152  0.00  0.00    +0.000 A 
ATOM      3  N   UNL     1       1.692   9.787  17.874  0.00  0.00    +0.000 NA
ATOM      4  C   UNL     1       1.305  10.549  18.902  0.00  0.00    +0.000 A 
ATOM      5  N   UNL     1       0.986  11.855  18.598  0.00  0.00    +0.000 N 
ATOM      6  N   UNL     1       1.186  10.104  20.161  0.00  0.00    +0.000 NA
ATOM      7  C   UNL     1       1.461   8.810  20.393  0.00  0.00    +0.000 A 
ATOM      8  H   UNL     1       1.225  12.038  17.631  0.00  0.00    +0.000 HD
ENDROOT
BRANCH   7   9
ATOM      9  N   UNL     1       1.362   8.420  21.734  0.00  0.00    +0.000 N 
ATOM     10  H   UNL     1       2.277   8.096  22.031  0.00  0.00    +0.000 HD
ATOM     11  H   UNL     1       0.994   9.166  22.316  0.00  0.00    +0.000 HD
ENDBRANCH   7   9
BRANCH   1  12
ATOM     12  O   UNL     1       2.157   6.632  19.723  0.00  0.00    +0.000 OA
BRANCH  12  18
ATOM     13  C   UNL     1       5.549   6.051  16.174  0.00  0.00    +0.000 C 
ATOM     14  C   UNL     1       4.445   5.503  17.027  0.00  0.00    +0.000 A 
ATOM     15  C   UNL     1       4.032   4.178  16.907  0.00  0.00    +0.000 A 
ATOM     16  C   UNL     1       3.004   3.681  17.714  0.00  0.00    +0.000 A 
ATOM     17  C   UNL     1       2.383   4.482  18.690  0.00  0.00    +0.000 A 
ATOM     18  C   UNL     1       2.808   5.822  18.811  0.00  0.00    +0.000 A 
ATOM     19  C   UNL     1       3.803   6.330  17.956  0.00  0.00    +0.000 A 
BRANCH  17  20
ATOM     20  C   UNL     1       1.252   3.923  19.549  0.00  0.00    +0.000 C 
ATOM     21  C   UNL     1       0.666   2.663  18.906  0.00  0.00    +0.000 C 
ATOM     22  C   UNL     1       1.651   3.620  21.002  0.00  0.00    +0.000 C 
ENDBRANCH  17  20
ENDBRANCH  12  18
ENDBRANCH   1  12
BRANCH   5  23
ATOM     23  CA  UNL     1       1.433  12.870  19.547  0.00  0.00    +0.000 C 
BRANCH  23  24
ATOM     24  C   UNL     1       1.976  14.133  18.877  0.00  0.00    +0.000 A 
ATOM     25  C   UNL     1       3.178  14.154  18.148  0.00  0.00    +0.000 A 
ATOM     26  C   UNL     1       3.635  15.330  17.548  0.00  0.00    +0.000 A 
ATOM     27  C   UNL     1       2.890  16.502  17.650  0.00  0.00    +0.000 A 
ATOM     28  C   UNL     1       1.686  16.497  18.351  0.00  0.00    +0.000 A 
ATOM     29  C   UNL     1       1.233  15.324  18.958  0.00  0.00    +0.000 A 
ENDBRANCH  23  24
BRANCH  23  30
ATOM     30  C   UNL     1       0.258  13.215  20.501  0.00  0.00    +0.000 C 
BRANCH  30  31
ATOM     31  O   UNL     1       0.316  12.510  21.744  0.00  0.00    +0.000 OA
ATOM     32  H   UNL     1       0.345  13.184  22.447  0.00  0.00    +0.000 HD
ENDBRANCH  30  31
ENDBRANCH  23  30
ENDBRANCH   5  23
TORSDOF 8
ENDMDL
MODEL 7
REMARK VINA RESULT:      -7.1      1.697      2.789
REMARK  Name = 
REMARK  11 active torsions:
REMARK  status: ('A' for Active; 'I' for Inactive)
REMARK    1  A    between atoms: C_1  and  C_2
REMARK    2  A    between atoms: C_5  and  C_6
REMARK    3  A    between atoms: C_6  and  C_7
REMARK    4  A    between atoms: C_6  and  C_8
REMARK    5  A    between atoms: C_9  and  O_10
REMARK    6  A    between atoms: O_10  and  C_11
REMARK    7  A    between atoms: N_15  and  CA_16
REMARK    8  A    between atoms: CA_16  and  C_17
REMARK    9  A    between atoms: CA_16  and  C_19
REMARK   10  A    between atoms: C_17  and  O_18
REMARK   11  A    between atoms: C_26  and  N_27
REMARK                            x       y       z     vdW  Elec       q    Type
REMARK                         _______ _______ _______ _____ _____    ______ ____
ROOT
ATOM      1  C   UNL     1       2.269   7.748  19.186  0.00  0.00    +0.000 A 
ATOM      2  C   UNL     1       2.115   8.256  17.914  0.00  0.00    +0.000 A 
ATOM      3  N   UNL     1       1.376   9.347  17.621  0.00  0.00    +0.000 NA
ATOM      4  C   UNL     1       0.818   9.988  18.652  0.00  0.00    +0.000 A 
ATOM      5  N   UNL     1       0.055  11.092  18.334  0.00  0.00    +0.000 N 
ATOM      6  N   UNL     1       0.936   9.599  19.929  0.00  0.00    +0.000 NA
ATOM      7  C   UNL     1       1.649   8.489  20.179  0.00  0.00    +0.000 A 
ATOM      8  H   UNL     1       0.157  11.292  17.347  0.00  0.00    +0.000 HD
ENDROOT
BRANCH   7   9
ATOM      9  N   UNL     1       1.773   8.162  21.535  0.00  0.00    +0.000 N 
ATOM     10  H   UNL     1       2.277   7.283  21.597  0.00  0.00    +0.000 HD
ATOM     11  H   UNL     1       2.209   8.911  22.062  0.00  0.00    +0.000 HD
ENDBRANCH   7   9
BRANCH   1  12
ATOM     12  O   UNL     1       3.002   6.640  19.523  0.00  0.00    +0.000 OA
BRANCH  12  18
ATOM     13  C   UNL     1       0.544   2.419  18.757  0.00  0.00    +0.000 C 
ATOM     14  C   UNL     1       1.676   3.349  18.435  0.00  0.00    +0.000 A 
ATOM     15  C   UNL     1       2.601   3.038  17.441  0.00  0.00    +0.000 A 
ATOM     16  C   UNL     1       3.648   3.918  17.149  0.00  0.00    +0.000 A 
ATOM     17  C   UNL     1       3.781   5.150  17.816  0.00  0.00    +0.000 A 
ATOM     18  C   UNL     1       2.839   5.461  18.819  0.00  0.00    +0.000 A 
ATOM     19  C   UNL     1       1.823   4.545  19.146  0.00  0.00    +0.000 A 
BRANCH  17  20
ATOM     20  C   UNL     1       4.940   6.087  17.493  0.00  0.00    +0.000 C 
ATOM     21  C   UNL     1       6.234   5.581  18.139  0.00  0.00    +0.000 C 
ATOM     22  C   UNL     1       5.173   6.313  15.990  0.00  0.00    +0.000 C 
ENDBRANCH  17  20
ENDBRANCH  12  18
ENDBRANCH   1  12
BRANCH   5  23
ATOM     23  CA  UNL     1       0.188  12.249  19.215  0.00  0.00    +0.000 C 
BRANCH  23  24
ATOM     24  C   UNL     1      -0.766  12.217  20.409  0.00  0.00    +0.000 A 
ATOM     25  C   UNL     1      -0.346  11.912  21.715  0.00  0.00    +0.000 A 
ATOM     26  C   UNL     1      -1.253  11.899  22.778  0.00  0.00    +0.000 A 
ATOM     27  C   UNL     1      -2.592  12.207  22.558  0.00  0.00    +0.000 A 
ATOM     28  C   UNL     1      -3.026  12.531  21.274  0.00  0.00    +0.000 A 
ATOM     29  C   UNL     1      -2.121  12.537  20.209  0.00  0.00    +0.000 A 
ENDBRANCH  23  24
BRANCH  23  30
ATOM     30  C   UNL     1       1.662  12.348  19.691  0.00  0.00    +0.000 C 
BRANCH  30  31
ATOM     31  O   UNL     1       2.499  13.072  18.785  0.00  0.00    +0.000 OA
ATOM     32  H   UNL     1       3.090  12.420  18.368  0.00  0.00    +0.000 HD
ENDBRANCH  30  31
ENDBRANCH  23  30
ENDBRANCH   5  23
TORSDOF 8
ENDMDL
MODEL 8
REMARK VINA RESULT:      -7.1      1.930      8.511
REMARK  Name = 
REMARK  11 active torsions:
REMARK  status: ('A' for Active; 'I' for Inactive)
REMARK    1  A    between atoms: C_1  and  C_2
REMARK    2  A    between atoms: C_5  and  C_6
REMARK    3  A    between atoms: C_6  and  C_7
REMARK    4  A    between atoms: C_6  and  C_8
REMARK    5  A    between atoms: C_9  and  O_10
REMARK    6  A    between atoms: O_10  and  C_11
REMARK    7  A    between atoms: N_15  and  CA_16
REMARK    8  A    between atoms: CA_16  and  C_17
REMARK    9  A    between atoms: CA_16  and  C_19
REMARK   10  A    between atoms: C_17  and  O_18
REMARK   11  A    between atoms: C_26  and  N_27
REMARK                            x       y       z     vdW  Elec       q    Type
REMARK                         _______ _______ _______ _____ _____    ______ ____
ROOT
ATOM      1  C   UNL     1       1.016   8.895  19.392  0.00  0.00    +0.000 A 
ATOM      2  C   UNL     1       1.339   8.520  18.105  0.00  0.00    +0.000 A 
ATOM      3  N   UNL     1       2.332   7.659  17.797  0.00  0.00    +0.000 NA
ATOM      4  C   UNL     1       2.988   7.107  18.822  0.00  0.00    +0.000 A 
ATOM      5  N   UNL     1       4.008   6.241  18.490  0.00  0.00    +0.000 N 
ATOM      6  N   UNL     1       2.727   7.375  20.110  0.00  0.00    +0.000 NA
ATOM      7  C   UNL     1       1.756   8.264  20.377  0.00  0.00    +0.000 A 
ATOM      8  H   UNL     1       3.997   6.085  17.489  0.00  0.00    +0.000 HD
ENDROOT
BRANCH   7   9
ATOM      9  N   UNL     1       1.503   8.465  21.739  0.00  0.00    +0.000 N 
ATOM     10  H   UNL     1       0.584   8.086  21.943  0.00  0.00    +0.000 HD
ATOM     11  H   UNL     1       2.236   8.069  22.320  0.00  0.00    +0.000 HD
ENDBRANCH   7   9
BRANCH   1  12
ATOM     12  O   UNL     1       0.022   9.771  19.745  0.00  0.00    +0.000 OA
BRANCH  12  18
ATOM     13  C   UNL     1       2.317  14.149  19.635  0.00  0.00    +0.000 C 
ATOM     14  C   UNL     1       1.155  13.274  19.271  0.00  0.00    +0.000 A 
ATOM     15  C   UNL     1       0.091  13.766  18.518  0.00  0.00    +0.000 A 
ATOM     16  C   UNL     1      -0.983  12.935  18.183  0.00  0.00    +0.000 A 
ATOM     17  C   UNL     1      -1.009  11.580  18.559  0.00  0.00    +0.000 A 
ATOM     18  C   UNL     1       0.073  11.085  19.318  0.00  0.00    +0.000 A 
ATOM     19  C   UNL     1       1.121  11.942  19.699  0.00  0.00    +0.000 A 
BRANCH  17  20
ATOM     20  C   UNL     1      -2.198  10.695  18.196  0.00  0.00    +0.000 C 
ATOM     21  C   UNL     1      -3.493  11.514  18.201  0.00  0.00    +0.000 C 
ATOM     22  C   UNL     1      -2.058   9.965  16.851  0.00  0.00    +0.000 C 
ENDBRANCH  17  20
ENDBRANCH  12  18
ENDBRANCH   1  12
BRANCH   5  23
ATOM     23  CA  UNL     1       4.124   5.033  19.301  0.00  0.00    +0.000 C 
BRANCH  23  24
ATOM     24  C   UNL     1       2.854   4.182  19.311  0.00  0.00    +0.000 A 
ATOM     25  C   UNL     1       2.274   3.663  18.140  0.00  0.00    +0.000 A 
ATOM     26  C   UNL     1       1.114   2.886  18.196  0.00  0.00    +0.000 A 
ATOM     27  C   UNL     1       0.523   2.600  19.423  0.00  0.00    +0.000 A 
ATOM     28  C   UNL     1       1.093   3.088  20.596  0.00  0.00    +0.000 A 
ATOM     29  C   UNL     1       2.248   3.872  20.541  0.00  0.00    +0.000 A 
ENDBRANCH  23  24
BRANCH  23  30
ATOM     30  C   UNL     1       5.337   4.207  18.796  0.00  0.00    +0.000 C 
BRANCH  30  31
ATOM     31  O   UNL     1       5.408   2.900  19.375  0.00  0.00    +0.000 OA
ATOM     32  H   UNL     1       4.631   2.409  19.054  0.00  0.00    +0.000 HD
ENDBRANCH  30  31
ENDBRANCH  23  30
ENDBRANCH   5  23
TORSDOF 8
ENDMDL
MODEL 9
REMARK VINA RESULT:      -7.0      2.209      3.185
REMARK  Name = 
REMARK  11 active torsions:
REMARK  status: ('A' for Active; 'I' for Inactive)
REMARK    1  A    between atoms: C_1  and  C_2
REMARK    2  A    between atoms: C_5  and  C_6
REMARK    3  A    between atoms: C_6  and  C_7
REMARK    4  A    between atoms: C_6  and  C_8
REMARK    5  A    between atoms: C_9  and  O_10
REMARK    6  A    between atoms: O_10  and  C_11
REMARK    7  A    between atoms: N_15  and  CA_16
REMARK    8  A    between atoms: CA_16  and  C_17
REMARK    9  A    between atoms: CA_16  and  C_19
REMARK   10  A    between atoms: C_17  and  O_18
REMARK   11  A    between atoms: C_26  and  N_27
REMARK                            x       y       z     vdW  Elec       q    Type
REMARK                         _______ _______ _______ _____ _____    ______ ____
ROOT
ATOM      1  C   UNL     1       3.658   6.420  18.138  0.00  0.00    +0.000 A 
ATOM      2  C   UNL     1       3.505   7.424  17.206  0.00  0.00    +0.000 A 
ATOM      3  N   UNL     1       2.635   8.448  17.336  0.00  0.00    +0.000 NA
ATOM      4  C   UNL     1       1.933   8.500  18.472  0.00  0.00    +0.000 A 
ATOM      5  N   UNL     1       1.039   9.543  18.582  0.00  0.00    +0.000 N 
ATOM      6  N   UNL     1       2.034   7.595  19.457  0.00  0.00    +0.000 NA
ATOM      7  C   UNL     1       2.884   6.571  19.277  0.00  0.00    +0.000 A 
ATOM      8  H   UNL     1       1.167  10.172  17.799  0.00  0.00    +0.000 HD
ENDROOT
BRANCH   7   9
ATOM      9  N   UNL     1       2.977   5.688  20.359  0.00  0.00    +0.000 N 
ATOM     10  H   UNL     1       3.914   5.765  20.742  0.00  0.00    +0.000 HD
ATOM     11  H   UNL     1       2.249   5.858  21.046  0.00  0.00    +0.000 HD
ENDBRANCH   7   9
BRANCH   1  12
ATOM     12  O   UNL     1       4.523   5.361  18.040  0.00  0.00    +0.000 OA
BRANCH  12  18
ATOM     13  C   UNL     1       5.270   3.598  13.482  0.00  0.00    +0.000 C 
ATOM     14  C   UNL     1       5.754   4.342  14.691  0.00  0.00    +0.000 A 
ATOM     15  C   UNL     1       7.034   4.893  14.732  0.00  0.00    +0.000 A 
ATOM     16  C   UNL     1       7.468   5.588  15.865  0.00  0.00    +0.000 A 
ATOM     17  C   UNL     1       6.627   5.784  16.975  0.00  0.00    +0.000 A 
ATOM     18  C   UNL     1       5.331   5.228  16.926  0.00  0.00    +0.000 A 
ATOM     19  C   UNL     1       4.922   4.481  15.807  0.00  0.00    +0.000 A 
BRANCH  17  20
ATOM     20  C   UNL     1       7.128   6.532  18.207  0.00  0.00    +0.000 C 
ATOM     21  C   UNL     1       7.977   5.607  19.085  0.00  0.00    +0.000 C 
ATOM     22  C   UNL     1       7.921   7.811  17.893  0.00  0.00    +0.000 C 
ENDBRANCH  17  20
ENDBRANCH  12  18
ENDBRANCH   1  12
BRANCH   5  23
ATOM     23  CA  UNL     1       0.956  10.192  19.887  0.00  0.00    +0.000 C 
BRANCH  23  24
ATOM     24  C   UNL     1       1.217  11.697  19.836  0.00  0.00    +0.000 A 
ATOM     25  C   UNL     1       1.835  12.328  18.742  0.00  0.00    +0.000 A 
ATOM     26  C   UNL     1       2.051  13.709  18.736  0.00  0.00    +0.000 A 
ATOM     27  C   UNL     1       1.639  14.486  19.815  0.00  0.00    +0.000 A 
ATOM     28  C   UNL     1       1.007  13.882  20.900  0.00  0.00    +0.000 A 
ATOM     29  C   UNL     1       0.798  12.501  20.911  0.00  0.00    +0.000 A 
ENDBRANCH  23  24
BRANCH  23  30
ATOM     30  C   UNL     1      -0.437   9.896  20.504  0.00  0.00    +0.000 C 
BRANCH  30  31
ATOM     31  O   UNL     1      -0.374   9.055  21.659  0.00  0.00    +0.000 OA
ATOM     32  H   UNL     1       0.315   9.426  22.238  0.00  0.00    +0.000 HD
ENDBRANCH  30  31
ENDBRANCH  23  30
ENDBRANCH   5  23
TORSDOF 8
ENDMDL
