MODEL 1
REMARK VINA RESULT:      -7.4      0.000      0.000
REMARK  Name = 
REMARK  12 active torsions:
REMARK  status: ('A' for Active; 'I' for Inactive)
REMARK    1  A    between atoms: C_1  and  O_2
REMARK    2  A    between atoms: O_2  and  C_3
REMARK    3  A    between atoms: C_3  and  C_4
REMARK    4  A    between atoms: C_4  and  N_5
REMARK    5  A    between atoms: N_5  and  C_6
REMARK    6  A    between atoms: N_10  and  C_11
REMARK    7  A    between atoms: C_11  and  C_12
REMARK    8  A    between atoms: C_12  and  O_13
REMARK    9  A    between atoms: C_17  and  C_19
REMARK   10  A    between atoms: C_19  and  C_20
REMARK   11  A    between atoms: C_20  and  C_21
REMARK   12  A    between atoms: C_20  and  C_22
REMARK                            x       y       z     vdW  Elec       q    Type
REMARK                         _______ _______ _______ _____ _____    ______ ____
ROOT
ATOM      1  C   UNL     1       4.844   3.734  17.658  0.00  0.00    +0.000 C 
ATOM      2  C   UNL     1       4.980   3.503  19.181  0.00  0.00    +0.000 C 
ATOM      3  C   UNL     1       3.613   3.282  19.841  0.00  0.00    +0.000 C 
ATOM      4  N   UNL     1       2.700   4.373  19.503  0.00  0.00    +0.000 N 
ATOM      5  C   UNL     1       2.152   5.158  20.508  0.00  0.00    +0.000 C 
ATOM      6  O   UNL     1       2.391   4.941  21.695  0.00  0.00    +0.000 OA
ATOM      7  C   UNL     1       2.485   4.554  18.072  0.00  0.00    +0.000 C 
ATOM      8  C   UNL     1       3.818   4.853  17.399  0.00  0.00    +0.000 C 
ENDROOT
BRANCH   1   9
ATOM      9  O   UNL     1       4.340   2.522  17.082  0.00  0.00    +0.000 OA
ATOM     10  H   UNL     1       4.605   2.490  16.141  0.00  0.00    +0.000 HD
ENDBRANCH   1   9
BRANCH   1  11
ATOM     11  C   UNL     1       6.222   4.093  17.029  0.00  0.00    +0.000 C 
BRANCH  11  16
ATOM     12  C   UNL     1       7.485   8.031  17.718  0.00  0.00    +0.000 A 
ATOM     13  C   UNL     1       8.007   7.070  18.493  0.00  0.00    +0.000 A 
ATOM     14  C   UNL     1       7.600   5.675  18.295  0.00  0.00    +0.000 A 
ATOM     15  O   UNL     1       8.094   4.779  18.986  0.00  0.00    +0.000 OA
ATOM     16  N   UNL     1       6.664   5.463  17.310  0.00  0.00    +0.000 N 
ATOM     17  C   UNL     1       6.185   6.534  16.601  0.00  0.00    +0.000 A 
ATOM     18  N   UNL     1       6.538   7.763  16.767  0.00  0.00    +0.000 NA
BRANCH  12  19
ATOM     19  N   UNL     1       7.925   9.335  17.885  0.00  0.00    +0.000 N 
ATOM     20  H   UNL     1       8.248   9.661  16.967  0.00  0.00    +0.000 HD
BRANCH  19  21
ATOM     21  C   UNL     1       9.043   9.587  18.815  0.00  0.00    +0.000 C 
BRANCH  21  22
ATOM     22  C   UNL     1       9.217  11.090  19.076  0.00  0.00    +0.000 C 
BRANCH  22  24
ATOM     23  C   UNL     1      11.106  11.874  20.253  0.00  0.00    +0.000 C 
ATOM     24  O   UNL     1       9.823  11.273  20.362  0.00  0.00    +0.000 OA
ENDBRANCH  22  24
ENDBRANCH  21  22
ENDBRANCH  19  21
ENDBRANCH  12  19
ENDBRANCH  11  16
ENDBRANCH   1  11
BRANCH   5  25
ATOM     25  C   UNL     1       1.246   6.308  20.067  0.00  0.00    +0.000 C 
BRANCH  25  26
ATOM     26  C   UNL     1       1.939   7.684  20.037  0.00  0.00    +0.000 C 
ATOM     27  C   UNL     1       2.295   8.119  18.607  0.00  0.00    +0.000 C 
BRANCH  26  28
ATOM     28  C   UNL     1       1.086   8.748  20.735  0.00  0.00    +0.000 A 
ATOM     29  C   UNL     1       1.019   8.785  22.136  0.00  0.00    +0.000 A 
ATOM     30  C   UNL     1       0.229   9.731  22.795  0.00  0.00    +0.000 A 
ATOM     31  C   UNL     1      -0.507  10.661  22.066  0.00  0.00    +0.000 A 
ATOM     32  C   UNL     1      -0.443  10.651  20.676  0.00  0.00    +0.000 A 
ATOM     33  C   UNL     1       0.350   9.700  20.013  0.00  0.00    +0.000 A 
ENDBRANCH  26  28
ENDBRANCH  25  26
ENDBRANCH   5  25
TORSDOF 10
ENDMDL
MODEL 2
REMARK VINA RESULT:      -7.1      4.821      9.649
REMARK  Name = 
REMARK  12 active torsions:
REMARK  status: ('A' for Active; 'I' for Inactive)
REMARK    1  A    between atoms: C_1  and  O_2
REMARK    2  A    between atoms: O_2  and  C_3
REMARK    3  A    between atoms: C_3  and  C_4
REMARK    4  A    between atoms: C_4  and  N_5
REMARK    5  A    between atoms: N_5  and  C_6
REMARK    6  A    between atoms: N_10  and  C_11
REMARK    7  A    between atoms: C_11  and  C_12
REMARK    8  A    between atoms: C_12  and  O_13
REMARK    9  A    between atoms: C_17  and  C_19
REMARK   10  A    between atoms: C_19  and  C_20
REMARK   11  A    between atoms: C_20  and  C_21
REMARK   12  A    between atoms: C_20  and  C_22
REMARK                            x       y       z     vdW  Elec       q    Type
REMARK                         _______ _______ _______ _____ _____    ______ ____
ROOT
ATOM      1  C   UNL     1       0.776  10.089  20.141  0.00  0.00    +0.000 C 
ATOM      2  C   UNL     1       1.312  10.464  18.740  0.00  0.00    +0.000 C 
ATOM      3  C   UNL     1       1.311   9.257  17.794  0.00  0.00    +0.000 C 
ATOM      4  N   UNL     1       2.022   8.131  18.401  0.00  0.00    +0.000 N 
ATOM      5  C   UNL     1       3.139   7.595  17.775  0.00  0.00    +0.000 C 
ATOM      6  O   UNL     1       3.536   8.024  16.693  0.00  0.00    +0.000 OA
ATOM      7  C   UNL     1       1.479   7.700  19.683  0.00  0.00    +0.000 C 
ATOM      8  C   UNL     1       1.539   8.859  20.670  0.00  0.00    +0.000 C 
ENDROOT
BRANCH   1   9
ATOM      9  O   UNL     1      -0.604   9.729  19.992  0.00  0.00    +0.000 OA
ATOM     10  H   UNL     1      -0.752   8.871  20.436  0.00  0.00    +0.000 HD
ENDBRANCH   1   9
BRANCH   1  11
ATOM     11  C   UNL     1       0.914  11.287  21.124  0.00  0.00    +0.000 C 
BRANCH  11  16
ATOM     12  C   UNL     1      -2.720  12.899  22.456  0.00  0.00    +0.000 A 
ATOM     13  C   UNL     1      -2.171  11.922  23.193  0.00  0.00    +0.000 A 
ATOM     14  C   UNL     1      -0.899  11.323  22.772  0.00  0.00    +0.000 A 
ATOM     15  O   UNL     1      -0.371  10.441  23.456  0.00  0.00    +0.000 OA
ATOM     16  N   UNL     1      -0.369  11.813  21.602  0.00  0.00    +0.000 N 
ATOM     17  C   UNL     1      -1.041  12.798  20.924  0.00  0.00    +0.000 A 
ATOM     18  N   UNL     1      -2.157  13.332  21.287  0.00  0.00    +0.000 NA
BRANCH  12  19
ATOM     19  N   UNL     1      -3.893  13.490  22.901  0.00  0.00    +0.000 N 
ATOM     20  H   UNL     1      -4.247  12.908  23.668  0.00  0.00    +0.000 HD
BRANCH  19  21
ATOM     21  C   UNL     1      -5.015  13.629  21.953  0.00  0.00    +0.000 C 
BRANCH  21  22
ATOM     22  C   UNL     1      -6.241  12.836  22.427  0.00  0.00    +0.000 C 
BRANCH  22  24
ATOM     23  C   UNL     1      -6.049  12.026  20.218  0.00  0.00    +0.000 C 
ATOM     24  O   UNL     1      -6.445  11.722  21.549  0.00  0.00    +0.000 OA
ENDBRANCH  22  24
ENDBRANCH  21  22
ENDBRANCH  19  21
ENDBRANCH  12  19
ENDBRANCH  11  16
ENDBRANCH   1  11
BRANCH   5  25
ATOM     25  C   UNL     1       3.852   6.454  18.499  0.00  0.00    +0.000 C 
BRANCH  25  26
ATOM     26  C   UNL     1       3.495   5.049  17.974  0.00  0.00    +0.000 C 
ATOM     27  C   UNL     1       4.746   4.233  17.616  0.00  0.00    +0.000 C 
BRANCH  26  28
ATOM     28  C   UNL     1       2.616   4.292  18.974  0.00  0.00    +0.000 A 
ATOM     29  C   UNL     1       2.857   4.413  20.352  0.00  0.00    +0.000 A 
ATOM     30  C   UNL     1       2.084   3.713  21.283  0.00  0.00    +0.000 A 
ATOM     31  C   UNL     1       1.053   2.881  20.855  0.00  0.00    +0.000 A 
ATOM     32  C   UNL     1       0.788   2.758  19.494  0.00  0.00    +0.000 A 
ATOM     33  C   UNL     1       1.565   3.460  18.559  0.00  0.00    +0.000 A 
ENDBRANCH  26  28
ENDBRANCH  25  26
ENDBRANCH   5  25
TORSDOF 10
ENDMDL
MODEL 3
REMARK VINA RESULT:      -7.0      4.866     10.168
REMARK  Name = 
REMARK  12 active torsions:
REMARK  status: ('A' for Active; 'I' for Inactive)
REMARK    1  A    between atoms: C_1  and  O_2
REMARK    2  A    between atoms: O_2  and  C_3
REMARK    3  A    between atoms: C_3  and  C_4
REMARK    4  A    between atoms: C_4  and  N_5
REMARK    5  A    between atoms: N_5  and  C_6
REMARK    6  A    between atoms: N_10  and  C_11
REMARK    7  A    between atoms: C_11  and  C_12
REMARK    8  A    between atoms: C_12  and  O_13
REMARK    9  A    between atoms: C_17  and  C_19
REMARK   10  A    between atoms: C_19  and  C_20
REMARK   11  A    between atoms: C_20  and  C_21
REMARK   12  A    between atoms: C_20  and  C_22
REMARK                            x       y       z     vdW  Elec       q    Type
REMARK                         _______ _______ _______ _____ _____    ______ ____
ROOT
ATOM      1  C   UNL     1       0.761   9.938  20.212  0.00  0.00    +0.000 C 
ATOM      2  C   UNL     1       1.488  10.160  18.865  0.00  0.00    +0.000 C 
ATOM      3  C   UNL     1       1.527   8.876  18.028  0.00  0.00    +0.000 C 
ATOM      4  N   UNL     1       2.086   7.773  18.809  0.00  0.00    +0.000 N 
ATOM      5  C   UNL     1       3.235   7.127  18.376  0.00  0.00    +0.000 C 
ATOM      6  O   UNL     1       3.788   7.438  17.322  0.00  0.00    +0.000 OA
ATOM      7  C   UNL     1       1.364   7.485  20.043  0.00  0.00    +0.000 C 
ATOM      8  C   UNL     1       1.375   8.722  20.931  0.00  0.00    +0.000 C 
ENDROOT
BRANCH   1   9
ATOM      9  O   UNL     1      -0.610   9.639  19.918  0.00  0.00    +0.000 OA
ATOM     10  H   UNL     1      -0.674   8.700  19.655  0.00  0.00    +0.000 HD
ENDBRANCH   1   9
BRANCH   1  11
ATOM     11  C   UNL     1       0.852  11.210  21.104  0.00  0.00    +0.000 C 
BRANCH  11  16
ATOM     12  C   UNL     1      -2.835  12.692  22.442  0.00  0.00    +0.000 A 
ATOM     13  C   UNL     1      -2.213  11.791  23.217  0.00  0.00    +0.000 A 
ATOM     14  C   UNL     1      -0.920  11.240  22.797  0.00  0.00    +0.000 A 
ATOM     15  O   UNL     1      -0.326  10.430  23.514  0.00  0.00    +0.000 OA
ATOM     16  N   UNL     1      -0.447  11.691  21.587  0.00  0.00    +0.000 N 
ATOM     17  C   UNL     1      -1.190  12.596  20.872  0.00  0.00    +0.000 A 
ATOM     18  N   UNL     1      -2.326  13.087  21.235  0.00  0.00    +0.000 NA
BRANCH  12  19
ATOM     19  N   UNL     1      -4.028  13.241  22.885  0.00  0.00    +0.000 N 
ATOM     20  H   UNL     1      -3.875  14.251  22.979  0.00  0.00    +0.000 HD
BRANCH  19  21
ATOM     21  C   UNL     1      -4.569  12.795  24.184  0.00  0.00    +0.000 C 
BRANCH  21  22
ATOM     22  C   UNL     1      -6.101  12.703  24.143  0.00  0.00    +0.000 C 
BRANCH  22  24
ATOM     23  C   UNL     1      -7.537  12.325  22.308  0.00  0.00    +0.000 C 
ATOM     24  O   UNL     1      -6.564  13.191  22.877  0.00  0.00    +0.000 OA
ENDBRANCH  22  24
ENDBRANCH  21  22
ENDBRANCH  19  21
ENDBRANCH  12  19
ENDBRANCH  11  16
ENDBRANCH   1  11
BRANCH   5  25
ATOM     25  C   UNL     1       3.782   6.018  19.275  0.00  0.00    +0.000 C 
BRANCH  25  26
ATOM     26  C   UNL     1       3.823   4.627  18.612  0.00  0.00    +0.000 C 
ATOM     27  C   UNL     1       2.489   4.272  17.938  0.00  0.00    +0.000 C 
BRANCH  26  28
ATOM     28  C   UNL     1       4.983   4.523  17.616  0.00  0.00    +0.000 A 
ATOM     29  C   UNL     1       4.729   4.193  16.276  0.00  0.00    +0.000 A 
ATOM     30  C   UNL     1       5.773   4.070  15.355  0.00  0.00    +0.000 A 
ATOM     31  C   UNL     1       7.091   4.276  15.755  0.00  0.00    +0.000 A 
ATOM     32  C   UNL     1       7.363   4.618  17.076  0.00  0.00    +0.000 A 
ATOM     33  C   UNL     1       6.314   4.742  18.002  0.00  0.00    +0.000 A 
ENDBRANCH  26  28
ENDBRANCH  25  26
ENDBRANCH   5  25
TORSDOF 10
ENDMDL
MODEL 4
REMARK VINA RESULT:      -7.0      4.928      9.544
REMARK  Name = 
REMARK  12 active torsions:
REMARK  status: ('A' for Active; 'I' for Inactive)
REMARK    1  A    between atoms: C_1  and  O_2
REMARK    2  A    between atoms: O_2  and  C_3
REMARK    3  A    between atoms: C_3  and  C_4
REMARK    4  A    between atoms: C_4  and  N_5
REMARK    5  A    between atoms: N_5  and  C_6
REMARK    6  A    between atoms: N_10  and  C_11
REMARK    7  A    between atoms: C_11  and  C_12
REMARK    8  A    between atoms: C_12  and  O_13
REMARK    9  A    between atoms: C_17  and  C_19
REMARK   10  A    between atoms: C_19  and  C_20
REMARK   11  A    between atoms: C_20  and  C_21
REMARK   12  A    between atoms: C_20  and  C_22
REMARK                            x       y       z     vdW  Elec       q    Type
REMARK                         _______ _______ _______ _____ _____    ______ ____
ROOT
ATOM      1  C   UNL     1       0.500  10.235  19.047  0.00  0.00    +0.000 C 
ATOM      2  C   UNL     1       0.380   9.321  20.288  0.00  0.00    +0.000 C 
ATOM      3  C   UNL     1       1.688   8.566  20.560  0.00  0.00    +0.000 C 
ATOM      4  N   UNL     1       2.125   7.854  19.360  0.00  0.00    +0.000 N 
ATOM      5  C   UNL     1       2.271   6.474  19.384  0.00  0.00    +0.000 C 
ATOM      6  O   UNL     1       2.070   5.826  20.410  0.00  0.00    +0.000 OA
ATOM      7  C   UNL     1       2.331   8.709  18.197  0.00  0.00    +0.000 C 
ATOM      8  C   UNL     1       1.025   9.414  17.854  0.00  0.00    +0.000 C 
ENDROOT
BRANCH   1   9
ATOM      9  O   UNL     1       1.464  11.251  19.351  0.00  0.00    +0.000 OA
ATOM     10  H   UNL     1       2.109  11.299  18.618  0.00  0.00    +0.000 HD
ENDBRANCH   1   9
BRANCH   1  11
ATOM     11  C   UNL     1      -0.873  10.885  18.706  0.00  0.00    +0.000 C 
BRANCH  11  16
ATOM     12  C   UNL     1      -2.081  13.925  21.327  0.00  0.00    +0.000 A 
ATOM     13  C   UNL     1      -1.385  14.288  20.240  0.00  0.00    +0.000 A 
ATOM     14  C   UNL     1      -0.937  13.264  19.289  0.00  0.00    +0.000 A 
ATOM     15  O   UNL     1      -0.317  13.588  18.272  0.00  0.00    +0.000 OA
ATOM     16  N   UNL     1      -1.260  11.968  19.616  0.00  0.00    +0.000 N 
ATOM     17  C   UNL     1      -1.955  11.722  20.773  0.00  0.00    +0.000 A 
ATOM     18  N   UNL     1      -2.354  12.615  21.612  0.00  0.00    +0.000 NA
BRANCH  12  19
ATOM     19  N   UNL     1      -2.542  14.914  22.183  0.00  0.00    +0.000 N 
ATOM     20  H   UNL     1      -1.814  15.636  22.225  0.00  0.00    +0.000 HD
BRANCH  19  21
ATOM     21  C   UNL     1      -2.829  14.554  23.585  0.00  0.00    +0.000 C 
BRANCH  21  22
ATOM     22  C   UNL     1      -4.305  14.801  23.928  0.00  0.00    +0.000 C 
BRANCH  22  24
ATOM     23  C   UNL     1      -4.271  12.550  24.638  0.00  0.00    +0.000 C 
ATOM     24  O   UNL     1      -4.999  13.546  23.934  0.00  0.00    +0.000 OA
ENDBRANCH  22  24
ENDBRANCH  21  22
ENDBRANCH  19  21
ENDBRANCH  12  19
ENDBRANCH  11  16
ENDBRANCH   1  11
BRANCH   5  25
ATOM     25  C   UNL     1       2.684   5.802  18.075  0.00  0.00    +0.000 C 
BRANCH  25  26
ATOM     26  C   UNL     1       3.846   4.799  18.217  0.00  0.00    +0.000 C 
ATOM     27  C   UNL     1       3.800   3.707  17.138  0.00  0.00    +0.000 C 
BRANCH  26  28
ATOM     28  C   UNL     1       5.200   5.517  18.210  0.00  0.00    +0.000 A 
ATOM     29  C   UNL     1       5.440   6.553  17.294  0.00  0.00    +0.000 A 
ATOM     30  C   UNL     1       6.675   7.207  17.253  0.00  0.00    +0.000 A 
ATOM     31  C   UNL     1       7.693   6.839  18.129  0.00  0.00    +0.000 A 
ATOM     32  C   UNL     1       7.471   5.823  19.054  0.00  0.00    +0.000 A 
ATOM     33  C   UNL     1       6.231   5.166  19.096  0.00  0.00    +0.000 A 
ENDBRANCH  26  28
ENDBRANCH  25  26
ENDBRANCH   5  25
TORSDOF 10
ENDMDL
MODEL 5
REMARK VINA RESULT:      -7.0      0.754      1.145
REMARK  Name = 
REMARK  12 active torsions:
REMARK  status: ('A' for Active; 'I' for Inactive)
REMARK    1  A    between atoms: C_1  and  O_2
REMARK    2  A    between atoms: O_2  and  C_3
REMARK    3  A    between atoms: C_3  and  C_4
REMARK    4  A    between atoms: C_4  and  N_5
REMARK    5  A    between atoms: N_5  and  C_6
REMARK    6  A    between atoms: N_10  and  C_11
REMARK    7  A    between atoms: C_11  and  C_12
REMARK    8  A    between atoms: C_12  and  O_13
REMARK    9  A    between atoms: C_17  and  C_19
REMARK   10  A    between atoms: C_19  and  C_20
REMARK   11  A    between atoms: C_20  and  C_21
REMARK   12  A    between atoms: C_20  and  C_22
REMARK                            x       y       z     vdW  Elec       q    Type
REMARK                         _______ _______ _______ _____ _____    ______ ____
ROOT
ATOM      1  C   UNL     1       5.482   4.040  17.604  0.00  0.00    +0.000 C 
ATOM      2  C   UNL     1       5.273   3.742  19.106  0.00  0.00    +0.000 C 
ATOM      3  C   UNL     1       3.792   3.510  19.433  0.00  0.00    +0.000 C 
ATOM      4  N   UNL     1       2.981   4.626  18.949  0.00  0.00    +0.000 N 
ATOM      5  C   UNL     1       2.224   5.374  19.840  0.00  0.00    +0.000 C 
ATOM      6  O   UNL     1       2.191   5.102  21.039  0.00  0.00    +0.000 OA
ATOM      7  C   UNL     1       3.093   4.872  17.516  0.00  0.00    +0.000 C 
ATOM      8  C   UNL     1       4.544   5.183  17.172  0.00  0.00    +0.000 C 
ENDROOT
BRANCH   1   9
ATOM      9  O   UNL     1       5.117   2.861  16.875  0.00  0.00    +0.000 OA
ATOM     10  H   UNL     1       4.145   2.847  16.772  0.00  0.00    +0.000 HD
ENDBRANCH   1   9
BRANCH   1  11
ATOM     11  C   UNL     1       6.967   4.409  17.316  0.00  0.00    +0.000 C 
BRANCH  11  16
ATOM     12  C   UNL     1       7.942   8.421  18.041  0.00  0.00    +0.000 A 
ATOM     13  C   UNL     1       8.304   7.520  18.966  0.00  0.00    +0.000 A 
ATOM     14  C   UNL     1       7.988   6.102  18.762  0.00  0.00    +0.000 A 
ATOM     15  O   UNL     1       8.339   5.261  19.595  0.00  0.00    +0.000 OA
ATOM     16  N   UNL     1       7.300   5.806  17.609  0.00  0.00    +0.000 N 
ATOM     17  C   UNL     1       6.962   6.823  16.752  0.00  0.00    +0.000 A 
ATOM     18  N   UNL     1       7.238   8.070  16.922  0.00  0.00    +0.000 NA
BRANCH  12  19
ATOM     19  N   UNL     1       8.300   9.748  18.227  0.00  0.00    +0.000 N 
ATOM     20  H   UNL     1       8.626  10.099  17.320  0.00  0.00    +0.000 HD
BRANCH  19  21
ATOM     21  C   UNL     1       9.377  10.058  19.187  0.00  0.00    +0.000 C 
BRANCH  21  22
ATOM     22  C   UNL     1       9.208  11.468  19.771  0.00  0.00    +0.000 C 
BRANCH  22  24
ATOM     23  C   UNL     1      11.398  11.498  18.893  0.00  0.00    +0.000 C 
ATOM     24  O   UNL     1      10.305  12.285  19.343  0.00  0.00    +0.000 OA
ENDBRANCH  22  24
ENDBRANCH  21  22
ENDBRANCH  19  21
ENDBRANCH  12  19
ENDBRANCH  11  16
ENDBRANCH   1  11
BRANCH   5  25
ATOM     25  C   UNL     1       1.444   6.553  19.260  0.00  0.00    +0.000 C 
BRANCH  25  26
ATOM     26  C   UNL     1       2.120   7.923  19.467  0.00  0.00    +0.000 C 
ATOM     27  C   UNL     1       2.420   8.624  18.133  0.00  0.00    +0.000 C 
BRANCH  26  28
ATOM     28  C   UNL     1       1.280   8.822  20.380  0.00  0.00    +0.000 A 
ATOM     29  C   UNL     1       0.527   9.872  19.830  0.00  0.00    +0.000 A 
ATOM     30  C   UNL     1      -0.228  10.720  20.645  0.00  0.00    +0.000 A 
ATOM     31  C   UNL     1      -0.248  10.534  22.025  0.00  0.00    +0.000 A 
ATOM     32  C   UNL     1       0.480   9.490  22.589  0.00  0.00    +0.000 A 
ATOM     33  C   UNL     1       1.240   8.638  21.771  0.00  0.00    +0.000 A 
ENDBRANCH  26  28
ENDBRANCH  25  26
ENDBRANCH   5  25
TORSDOF 10
ENDMDL
MODEL 6
REMARK VINA RESULT:      -6.9      1.839      2.657
REMARK  Name = 
REMARK  12 active torsions:
REMARK  status: ('A' for Active; 'I' for Inactive)
REMARK    1  A    between atoms: C_1  and  O_2
REMARK    2  A    between atoms: O_2  and  C_3
REMARK    3  A    between atoms: C_3  and  C_4
REMARK    4  A    between atoms: C_4  and  N_5
REMARK    5  A    between atoms: N_5  and  C_6
REMARK    6  A    between atoms: N_10  and  C_11
REMARK    7  A    between atoms: C_11  and  C_12
REMARK    8  A    between atoms: C_12  and  O_13
REMARK    9  A    between atoms: C_17  and  C_19
REMARK   10  A    between atoms: C_19  and  C_20
REMARK   11  A    between atoms: C_20  and  C_21
REMARK   12  A    between atoms: C_20  and  C_22
REMARK                            x       y       z     vdW  Elec       q    Type
REMARK                         _______ _______ _______ _____ _____    ______ ____
ROOT
ATOM      1  C   UNL     1       3.906   4.977  18.349  0.00  0.00    +0.000 C 
ATOM      2  C   UNL     1       3.706   5.123  19.875  0.00  0.00    +0.000 C 
ATOM      3  C   UNL     1       2.287   5.592  20.215  0.00  0.00    +0.000 C 
ATOM      4  N   UNL     1       1.959   6.809  19.473  0.00  0.00    +0.000 N 
ATOM      5  C   UNL     1       1.636   7.974  20.155  0.00  0.00    +0.000 C 
ATOM      6  O   UNL     1       1.585   8.006  21.384  0.00  0.00    +0.000 OA
ATOM      7  C   UNL     1       2.053   6.672  18.025  0.00  0.00    +0.000 C 
ATOM      8  C   UNL     1       3.477   6.281  17.649  0.00  0.00    +0.000 C 
ENDROOT
BRANCH   1   9
ATOM      9  O   UNL     1       3.044   3.924  17.900  0.00  0.00    +0.000 OA
ATOM     10  H   UNL     1       3.321   3.090  18.329  0.00  0.00    +0.000 HD
ENDBRANCH   1   9
BRANCH   1  11
ATOM     11  C   UNL     1       5.387   4.635  18.016  0.00  0.00    +0.000 C 
BRANCH  11  16
ATOM     12  C   UNL     1       7.930   7.962  17.818  0.00  0.00    +0.000 A 
ATOM     13  C   UNL     1       8.081   7.131  18.859  0.00  0.00    +0.000 A 
ATOM     14  C   UNL     1       7.217   5.950  18.977  0.00  0.00    +0.000 A 
ATOM     15  O   UNL     1       7.364   5.164  19.918  0.00  0.00    +0.000 OA
ATOM     16  N   UNL     1       6.274   5.802  17.988  0.00  0.00    +0.000 N 
ATOM     17  C   UNL     1       6.202   6.738  16.987  0.00  0.00    +0.000 A 
ATOM     18  N   UNL     1       6.958   7.776  16.874  0.00  0.00    +0.000 NA
BRANCH  12  19
ATOM     19  N   UNL     1       8.794   9.040  17.696  0.00  0.00    +0.000 N 
ATOM     20  H   UNL     1       9.718   8.658  17.465  0.00  0.00    +0.000 HD
BRANCH  19  21
ATOM     21  C   UNL     1       9.004   9.909  18.871  0.00  0.00    +0.000 C 
BRANCH  21  22
ATOM     22  C   UNL     1       9.284  11.357  18.443  0.00  0.00    +0.000 C 
BRANCH  22  24
ATOM     23  C   UNL     1       9.565  11.461  20.784  0.00  0.00    +0.000 C 
ATOM     24  O   UNL     1       9.891  12.058  19.537  0.00  0.00    +0.000 OA
ENDBRANCH  22  24
ENDBRANCH  21  22
ENDBRANCH  19  21
ENDBRANCH  12  19
ENDBRANCH  11  16
ENDBRANCH   1  11
BRANCH   5  25
ATOM     25  C   UNL     1       1.355   9.213  19.306  0.00  0.00    +0.000 C 
BRANCH  25  26
ATOM     26  C   UNL     1       0.361  10.205  19.943  0.00  0.00    +0.000 C 
ATOM     27  C   UNL     1       1.046  11.514  20.365  0.00  0.00    +0.000 C 
BRANCH  26  28
ATOM     28  C   UNL     1      -0.819  10.484  19.006  0.00  0.00    +0.000 A 
ATOM     29  C   UNL     1      -0.932   9.786  17.793  0.00  0.00    +0.000 A 
ATOM     30  C   UNL     1      -1.987  10.040  16.912  0.00  0.00    +0.000 A 
ATOM     31  C   UNL     1      -2.951  10.994  17.227  0.00  0.00    +0.000 A 
ATOM     32  C   UNL     1      -2.866  11.687  18.431  0.00  0.00    +0.000 A 
ATOM     33  C   UNL     1      -1.806  11.433  19.317  0.00  0.00    +0.000 A 
ENDBRANCH  26  28
ENDBRANCH  25  26
ENDBRANCH   5  25
TORSDOF 10
ENDMDL
MODEL 7
REMARK VINA RESULT:      -6.9      4.923      8.736
REMARK  Name = 
REMARK  12 active torsions:
REMARK  status: ('A' for Active; 'I' for Inactive)
REMARK    1  A    between atoms: C_1  and  O_2
REMARK    2  A    between atoms: O_2  and  C_3
REMARK    3  A    between atoms: C_3  and  C_4
REMARK    4  A    between atoms: C_4  and  N_5
REMARK    5  A    between atoms: N_5  and  C_6
REMARK    6  A    between atoms: N_10  and  C_11
REMARK    7  A    between atoms: C_11  and  C_12
REMARK    8  A    between atoms: C_12  and  O_13
REMARK    9  A    between atoms: C_17  and  C_19
REMARK   10  A    between atoms: C_19  and  C_20
REMARK   11  A    between atoms: C_20  and  C_21
REMARK   12  A    between atoms: C_20  and  C_22
REMARK                            x       y       z     vdW  Elec       q    Type
REMARK                         _______ _______ _______ _____ _____    ______ ____
ROOT
ATOM      1  C   UNL     1       0.529  10.095  19.209  0.00  0.00    +0.000 C 
ATOM      2  C   UNL     1       0.459   9.162  20.440  0.00  0.00    +0.000 C 
ATOM      3  C   UNL     1       1.756   8.363  20.616  0.00  0.00    +0.000 C 
ATOM      4  N   UNL     1       2.095   7.660  19.379  0.00  0.00    +0.000 N 
ATOM      5  C   UNL     1       2.198   6.276  19.371  0.00  0.00    +0.000 C 
ATOM      6  O   UNL     1       2.041   5.615  20.396  0.00  0.00    +0.000 OA
ATOM      7  C   UNL     1       2.254   8.529  18.219  0.00  0.00    +0.000 C 
ATOM      8  C   UNL     1       0.952   9.281  17.972  0.00  0.00    +0.000 C 
ENDROOT
BRANCH   1   9
ATOM      9  O   UNL     1       1.542  11.075  19.469  0.00  0.00    +0.000 OA
ATOM     10  H   UNL     1       1.153  11.965  19.351  0.00  0.00    +0.000 HD
ENDBRANCH   1   9
BRANCH   1  11
ATOM     11  C   UNL     1      -0.841  10.793  18.967  0.00  0.00    +0.000 C 
BRANCH  11  16
ATOM     12  C   UNL     1      -0.735  14.904  19.779  0.00  0.00    +0.000 A 
ATOM     13  C   UNL     1      -1.185  14.095  20.748  0.00  0.00    +0.000 A 
ATOM     14  C   UNL     1      -1.242  12.647  20.518  0.00  0.00    +0.000 A 
ATOM     15  O   UNL     1      -1.630  11.890  21.412  0.00  0.00    +0.000 OA
ATOM     16  N   UNL     1      -0.839  12.227  19.272  0.00  0.00    +0.000 N 
ATOM     17  C   UNL     1      -0.424  13.158  18.354  0.00  0.00    +0.000 A 
ATOM     18  N   UNL     1      -0.368  14.431  18.549  0.00  0.00    +0.000 NA
BRANCH  12  19
ATOM     19  N   UNL     1      -0.636  16.263  20.038  0.00  0.00    +0.000 N 
ATOM     20  H   UNL     1      -1.543  16.562  20.415  0.00  0.00    +0.000 HD
BRANCH  19  21
ATOM     21  C   UNL     1      -0.351  17.175  18.912  0.00  0.00    +0.000 C 
BRANCH  21  22
ATOM     22  C   UNL     1       1.113  17.634  18.931  0.00  0.00    +0.000 C 
BRANCH  22  24
ATOM     23  C   UNL     1       2.995  16.624  17.926  0.00  0.00    +0.000 C 
ATOM     24  O   UNL     1       1.739  17.248  17.700  0.00  0.00    +0.000 OA
ENDBRANCH  22  24
ENDBRANCH  21  22
ENDBRANCH  19  21
ENDBRANCH  12  19
ENDBRANCH  11  16
ENDBRANCH   1  11
BRANCH   5  25
ATOM     25  C   UNL     1       2.506   5.616  18.027  0.00  0.00    +0.000 C 
BRANCH  25  26
ATOM     26  C   UNL     1       3.246   4.268  18.139  0.00  0.00    +0.000 C 
ATOM     27  C   UNL     1       2.500   3.140  17.411  0.00  0.00    +0.000 C 
BRANCH  26  28
ATOM     28  C   UNL     1       4.687   4.385  17.633  0.00  0.00    +0.000 A 
ATOM     29  C   UNL     1       4.984   4.105  16.290  0.00  0.00    +0.000 A 
ATOM     30  C   UNL     1       6.295   4.182  15.811  0.00  0.00    +0.000 A 
ATOM     31  C   UNL     1       7.335   4.544  16.664  0.00  0.00    +0.000 A 
ATOM     32  C   UNL     1       7.060   4.840  17.996  0.00  0.00    +0.000 A 
ATOM     33  C   UNL     1       5.743   4.762  18.478  0.00  0.00    +0.000 A 
ENDBRANCH  26  28
ENDBRANCH  25  26
ENDBRANCH   5  25
TORSDOF 10
ENDMDL
MODEL 8
REMARK VINA RESULT:      -6.8      2.115      7.477
REMARK  Name = 
REMARK  12 active torsions:
REMARK  status: ('A' for Active; 'I' for Inactive)
REMARK    1  A    between atoms: C_1  and  O_2
REMARK    2  A    between atoms: O_2  and  C_3
REMARK    3  A    between atoms: C_3  and  C_4
REMARK    4  A    between atoms: C_4  and  N_5
REMARK    5  A    between atoms: N_5  and  C_6
REMARK    6  A    between atoms: N_10  and  C_11
REMARK    7  A    between atoms: C_11  and  C_12
REMARK    8  A    between atoms: C_12  and  O_13
REMARK    9  A    between atoms: C_17  and  C_19
REMARK   10  A    between atoms: C_19  and  C_20
REMARK   11  A    between atoms: C_20  and  C_21
REMARK   12  A    between atoms: C_20  and  C_22
REMARK                            x       y       z     vdW  Elec       q    Type
REMARK                         _______ _______ _______ _____ _____    ______ ____
ROOT
ATOM      1  C   UNL     1       4.772   4.312  18.636  0.00  0.00    +0.000 C 
ATOM      2  C   UNL     1       5.245   4.494  17.176  0.00  0.00    +0.000 C 
ATOM      3  C   UNL     1       6.763   4.703  17.097  0.00  0.00    +0.000 C 
ATOM      4  N   UNL     1       7.174   5.796  17.976  0.00  0.00    +0.000 N 
ATOM      5  C   UNL     1       7.809   6.912  17.448  0.00  0.00    +0.000 C 
ATOM      6  O   UNL     1       8.068   6.995  16.248  0.00  0.00    +0.000 OA
ATOM      7  C   UNL     1       6.817   5.607  19.377  0.00  0.00    +0.000 C 
ATOM      8  C   UNL     1       5.304   5.474  19.496  0.00  0.00    +0.000 C 
ENDROOT
BRANCH   1   9
ATOM      9  O   UNL     1       5.345   3.093  19.127  0.00  0.00    +0.000 OA
ATOM     10  H   UNL     1       4.624   2.518  19.451  0.00  0.00    +0.000 HD
ENDBRANCH   1   9
BRANCH   1  11
ATOM     11  C   UNL     1       3.219   4.240  18.709  0.00  0.00    +0.000 C 
BRANCH  11  16
ATOM     12  C   UNL     1       1.536   7.678  20.418  0.00  0.00    +0.000 A 
ATOM     13  C   UNL     1       1.356   6.517  21.064  0.00  0.00    +0.000 A 
ATOM     14  C   UNL     1       1.924   5.283  20.510  0.00  0.00    +0.000 A 
ATOM     15  O   UNL     1       1.788   4.212  21.108  0.00  0.00    +0.000 OA
ATOM     16  N   UNL     1       2.598   5.421  19.319  0.00  0.00    +0.000 N 
ATOM     17  C   UNL     1       2.690   6.662  18.742  0.00  0.00    +0.000 A 
ATOM     18  N   UNL     1       2.196   7.751  19.223  0.00  0.00    +0.000 NA
BRANCH  12  19
ATOM     19  N   UNL     1       1.038   8.840  20.988  0.00  0.00    +0.000 N 
ATOM     20  H   UNL     1       1.785   9.229  21.575  0.00  0.00    +0.000 HD
BRANCH  19  21
ATOM     21  C   UNL     1      -0.148   8.744  21.862  0.00  0.00    +0.000 C 
BRANCH  21  22
ATOM     22  C   UNL     1      -0.162   9.873  22.902  0.00  0.00    +0.000 C 
BRANCH  22  24
ATOM     23  C   UNL     1      -1.273  11.955  22.945  0.00  0.00    +0.000 C 
ATOM     24  O   UNL     1      -0.368  11.123  22.232  0.00  0.00    +0.000 OA
ENDBRANCH  22  24
ENDBRANCH  21  22
ENDBRANCH  19  21
ENDBRANCH  12  19
ENDBRANCH  11  16
ENDBRANCH   1  11
BRANCH   5  25
ATOM     25  C   UNL     1       8.162   8.032  18.427  0.00  0.00    +0.000 C 
BRANCH  25  26
ATOM     26  C   UNL     1       8.415   9.399  17.761  0.00  0.00    +0.000 C 
ATOM     27  C   UNL     1       7.105  10.135  17.442  0.00  0.00    +0.000 C 
BRANCH  26  28
ATOM     28  C   UNL     1       9.337  10.270  18.620  0.00  0.00    +0.000 A 
ATOM     29  C   UNL     1       9.072  10.434  19.989  0.00  0.00    +0.000 A 
ATOM     30  C   UNL     1       9.884  11.243  20.788  0.00  0.00    +0.000 A 
ATOM     31  C   UNL     1      10.980  11.901  20.236  0.00  0.00    +0.000 A 
ATOM     32  C   UNL     1      11.269  11.741  18.884  0.00  0.00    +0.000 A 
ATOM     33  C   UNL     1      10.452  10.929  18.080  0.00  0.00    +0.000 A 
ENDBRANCH  26  28
ENDBRANCH  25  26
ENDBRANCH   5  25
TORSDOF 10
ENDMDL
MODEL 9
REMARK VINA RESULT:      -6.8      4.949      9.890
REMARK  Name = 
REMARK  12 active torsions:
REMARK  status: ('A' for Active; 'I' for Inactive)
REMARK    1  A    between atoms: C_1  and  O_2
REMARK    2  A    between atoms: O_2  and  C_3
REMARK    3  A    between atoms: C_3  and  C_4
REMARK    4  A    between atoms: C_4  and  N_5
REMARK    5  A    between atoms: N_5  and  C_6
REMARK    6  A    between atoms: N_10  and  C_11
REMARK    7  A    between atoms: C_11  and  C_12
REMARK    8  A    between atoms: C_12  and  O_13
REMARK    9  A    between atoms: C_17  and  C_19
REMARK   10  A    between atoms: C_19  and  C_20
REMARK   11  A    between atoms: C_20  and  C_21
REMARK   12  A    between atoms: C_20  and  C_22
REMARK                            x       y       z     vdW  Elec       q    Type
REMARK                         _______ _______ _______ _____ _____    ______ ____
ROOT
ATOM      1  C   UNL     1       0.723  10.143  20.131  0.00  0.00    +0.000 C 
ATOM      2  C   UNL     1       1.282  10.504  18.736  0.00  0.00    +0.000 C 
ATOM      3  C   UNL     1       1.331   9.279  17.814  0.00  0.00    +0.000 C 
ATOM      4  N   UNL     1       2.053   8.183  18.459  0.00  0.00    +0.000 N 
ATOM      5  C   UNL     1       3.196   7.661  17.869  0.00  0.00    +0.000 C 
ATOM      6  O   UNL     1       3.608   8.079  16.788  0.00  0.00    +0.000 OA
ATOM      7  C   UNL     1       1.491   7.763  19.737  0.00  0.00    +0.000 C 
ATOM      8  C   UNL     1       1.502   8.942  20.701  0.00  0.00    +0.000 C 
ENDROOT
BRANCH   1   9
ATOM      9  O   UNL     1      -0.645   9.749  19.958  0.00  0.00    +0.000 OA
ATOM     10  H   UNL     1      -1.220  10.446  20.330  0.00  0.00    +0.000 HD
ENDBRANCH   1   9
BRANCH   1  11
ATOM     11  C   UNL     1       0.810  11.363  21.094  0.00  0.00    +0.000 C 
BRANCH  11  16
ATOM     12  C   UNL     1      -2.885  12.334  22.820  0.00  0.00    +0.000 A 
ATOM     13  C   UNL     1      -2.501  13.039  21.747  0.00  0.00    +0.000 A 
ATOM     14  C   UNL     1      -1.217  12.741  21.103  0.00  0.00    +0.000 A 
ATOM     15  O   UNL     1      -0.864  13.366  20.099  0.00  0.00    +0.000 OA
ATOM     16  N   UNL     1      -0.475  11.742  21.690  0.00  0.00    +0.000 N 
ATOM     17  C   UNL     1      -0.967  11.111  22.804  0.00  0.00    +0.000 A 
ATOM     18  N   UNL     1      -2.094  11.365  23.374  0.00  0.00    +0.000 NA
BRANCH  12  19
ATOM     19  N   UNL     1      -4.127  12.595  23.379  0.00  0.00    +0.000 N 
ATOM     20  H   UNL     1      -4.558  11.687  23.586  0.00  0.00    +0.000 HD
BRANCH  19  21
ATOM     21  C   UNL     1      -5.119  13.334  22.574  0.00  0.00    +0.000 C 
BRANCH  21  22
ATOM     22  C   UNL     1      -5.714  12.443  21.474  0.00  0.00    +0.000 C 
BRANCH  22  24
ATOM     23  C   UNL     1      -7.636  11.193  20.915  0.00  0.00    +0.000 C 
ATOM     24  O   UNL     1      -6.931  11.858  21.954  0.00  0.00    +0.000 OA
ENDBRANCH  22  24
ENDBRANCH  21  22
ENDBRANCH  19  21
ENDBRANCH  12  19
ENDBRANCH  11  16
ENDBRANCH   1  11
BRANCH   5  25
ATOM     25  C   UNL     1       3.919   6.551  18.631  0.00  0.00    +0.000 C 
BRANCH  25  26
ATOM     26  C   UNL     1       3.716   5.142  18.041  0.00  0.00    +0.000 C 
ATOM     27  C   UNL     1       5.045   4.389  17.877  0.00  0.00    +0.000 C 
BRANCH  26  28
ATOM     28  C   UNL     1       2.727   4.328  18.881  0.00  0.00    +0.000 A 
ATOM     29  C   UNL     1       1.822   3.458  18.253  0.00  0.00    +0.000 A 
ATOM     30  C   UNL     1       0.895   2.723  18.997  0.00  0.00    +0.000 A 
ATOM     31  C   UNL     1       0.856   2.840  20.384  0.00  0.00    +0.000 A 
ATOM     32  C   UNL     1       1.754   3.686  21.028  0.00  0.00    +0.000 A 
ATOM     33  C   UNL     1       2.685   4.426  20.281  0.00  0.00    +0.000 A 
ENDBRANCH  26  28
ENDBRANCH  25  26
ENDBRANCH   5  25
TORSDOF 10
ENDMDL
