MODEL 1
REMARK VINA RESULT:      -7.5      0.000      0.000
REMARK  Name = 
REMARK  6 active torsions:
REMARK  status: ('A' for Active; 'I' for Inactive)
REMARK    1  A    between atoms: C_1  and  O_2
REMARK    2  A    between atoms: O_2  and  C_3
REMARK    3  A    between atoms: C_9  and  N_10
REMARK    4  A    between atoms: C_13  and  C_14
REMARK    5  A    between atoms: N_17  and  C_18
REMARK    6  A    between atoms: C_18  and  C_19
REMARK                            x       y       z     vdW  Elec       q    Type
REMARK                         _______ _______ _______ _____ _____    ______ ____
ROOT
ATOM      1  C   UNL     1      -2.300  13.475  21.406  0.00  0.00    +0.000 A 
ATOM      2  N   UNL     1      -1.737  12.885  20.328  0.00  0.00    +0.000 NA
ATOM      3  C   UNL     1      -1.032  11.762  20.486  0.00  0.00    +0.000 A 
ATOM      4  N   UNL     1      -0.482  11.240  19.396  0.00  0.00    +0.000 NA
ATOM      5  C   UNL     1       0.283  10.127  19.495  0.00  0.00    +0.000 A 
ATOM      6  C   UNL     1       0.498   9.453  20.693  0.00  0.00    +0.000 A 
ATOM      7  C   UNL     1      -0.092   9.975  21.855  0.00  0.00    +0.000 A 
ATOM      8  C   UNL     1      -0.854  11.170  21.752  0.00  0.00    +0.000 A 
ATOM      9  C   UNL     1      -1.453  11.810  22.858  0.00  0.00    +0.000 A 
ATOM     10  C   UNL     1      -2.196  12.972  22.686  0.00  0.00    +0.000 A 
ATOM     11  C   UNL     1       1.403   8.246  20.726  0.00  0.00    +0.000 C 
ATOM     12  N   UNL     1       1.665   7.623  19.413  0.00  0.00    +0.000 NA
ATOM     13  C   UNL     1       2.059   8.660  18.450  0.00  0.00    +0.000 C 
ATOM     14  C   UNL     1       0.893   9.624  18.213  0.00  0.00    +0.000 C 
ENDROOT
BRANCH   7  15
ATOM     15  N   UNL     1       0.274   9.464  23.123  0.00  0.00    +0.000 N 
ATOM     16  H   UNL     1      -0.175   9.904  23.919  0.00  0.00    +0.000 HD
ATOM     17  H   UNL     1       1.271   9.386  23.286  0.00  0.00    +0.000 HD
ENDBRANCH   7  15
BRANCH   1  19
ATOM     18  C   UNL     1      -2.231  15.762  20.875  0.00  0.00    +0.000 C 
ATOM     19  O   UNL     1      -3.027  14.637  21.235  0.00  0.00    +0.000 OA
ENDBRANCH   1  19
BRANCH  10  20
ATOM     20  C   UNL     1      -2.814  13.603  23.807  0.00  0.00    +0.000 C 
ATOM     21  N   UNL     1      -3.300  14.167  24.700  0.00  0.00    +0.000 NA
ENDBRANCH  10  20
BRANCH  12  22
ATOM     22  C   UNL     1       2.697   6.588  19.591  0.00  0.00    +0.000 C 
BRANCH  22  23
ATOM     23  C   UNL     1       2.196   5.162  19.570  0.00  0.00    +0.000 A 
ATOM     24  C   UNL     1       1.874   4.508  20.770  0.00  0.00    +0.000 A 
ATOM     25  C   UNL     1       1.310   3.233  20.754  0.00  0.00    +0.000 A 
ATOM     26  C   UNL     1       1.054   2.600  19.539  0.00  0.00    +0.000 A 
ATOM     27  C   UNL     1       1.397   3.226  18.342  0.00  0.00    +0.000 A 
ATOM     28  C   UNL     1       1.975   4.496  18.357  0.00  0.00    +0.000 A 
ENDBRANCH  22  23
ENDBRANCH  12  22
TORSDOF 5
ENDMDL
MODEL 2
REMARK VINA RESULT:      -7.4      3.177      8.869
REMARK  Name = 
REMARK  6 active torsions:
REMARK  status: ('A' for Active; 'I' for Inactive)
REMARK    1  A    between atoms: C_1  and  O_2
REMARK    2  A    between atoms: O_2  and  C_3
REMARK    3  A    between atoms: C_9  and  N_10
REMARK    4  A    between atoms: C_13  and  C_14
REMARK    5  A    between atoms: N_17  and  C_18
REMARK    6  A    between atoms: C_18  and  C_19
REMARK                            x       y       z     vdW  Elec       q    Type
REMARK                         _______ _______ _______ _____ _____    ______ ____
ROOT
ATOM      1  C   UNL     1       3.569   5.868  18.859  0.00  0.00    +0.000 A 
ATOM      2  N   UNL     1       2.773   6.183  19.905  0.00  0.00    +0.000 NA
ATOM      3  C   UNL     1       2.097   7.336  19.895  0.00  0.00    +0.000 A 
ATOM      4  N   UNL     1       1.351   7.603  20.959  0.00  0.00    +0.000 NA
ATOM      5  C   UNL     1       0.677   8.776  21.030  0.00  0.00    +0.000 A 
ATOM      6  C   UNL     1       0.683   9.723  20.011  0.00  0.00    +0.000 A 
ATOM      7  C   UNL     1       1.449   9.450  18.867  0.00  0.00    +0.000 A 
ATOM      8  C   UNL     1       2.192   8.240  18.819  0.00  0.00    +0.000 A 
ATOM      9  C   UNL     1       3.031   7.883  17.742  0.00  0.00    +0.000 A 
ATOM     10  C   UNL     1       3.722   6.677  17.753  0.00  0.00    +0.000 A 
ATOM     11  C   UNL     1      -0.057  11.026  20.190  0.00  0.00    +0.000 C 
ATOM     12  N   UNL     1      -1.073  11.027  21.261  0.00  0.00    +0.000 NA
ATOM     13  C   UNL     1      -0.485  10.482  22.492  0.00  0.00    +0.000 C 
ATOM     14  C   UNL     1      -0.119   9.010  22.288  0.00  0.00    +0.000 C 
ENDROOT
BRANCH   7  15
ATOM     15  N   UNL     1       1.669  10.466  17.907  0.00  0.00    +0.000 N 
ATOM     16  H   UNL     1       2.497  10.354  17.332  0.00  0.00    +0.000 HD
ATOM     17  H   UNL     1       1.619  11.414  18.262  0.00  0.00    +0.000 HD
ENDBRANCH   7  15
BRANCH   1  19
ATOM     18  C   UNL     1       3.509   3.580  19.385  0.00  0.00    +0.000 C 
ATOM     19  O   UNL     1       4.265   4.675  18.878  0.00  0.00    +0.000 OA
ENDBRANCH   1  19
BRANCH  10  20
ATOM     20  C   UNL     1       4.554   6.315  16.652  0.00  0.00    +0.000 C 
ATOM     21  N   UNL     1       5.238   5.968  15.778  0.00  0.00    +0.000 NA
ENDBRANCH  10  20
BRANCH  12  22
ATOM     22  C   UNL     1      -1.566  12.406  21.427  0.00  0.00    +0.000 C 
BRANCH  22  23
ATOM     23  C   UNL     1      -2.911  12.536  22.104  0.00  0.00    +0.000 A 
ATOM     24  C   UNL     1      -3.004  12.493  23.505  0.00  0.00    +0.000 A 
ATOM     25  C   UNL     1      -4.223  12.720  24.141  0.00  0.00    +0.000 A 
ATOM     26  C   UNL     1      -5.362  13.001  23.388  0.00  0.00    +0.000 A 
ATOM     27  C   UNL     1      -5.288  13.018  21.996  0.00  0.00    +0.000 A 
ATOM     28  C   UNL     1      -4.071  12.776  21.356  0.00  0.00    +0.000 A 
ENDBRANCH  22  23
ENDBRANCH  12  22
TORSDOF 5
ENDMDL
MODEL 3
REMARK VINA RESULT:      -7.4      2.810      4.910
REMARK  Name = 
REMARK  6 active torsions:
REMARK  status: ('A' for Active; 'I' for Inactive)
REMARK    1  A    between atoms: C_1  and  O_2
REMARK    2  A    between atoms: O_2  and  C_3
REMARK    3  A    between atoms: C_9  and  N_10
REMARK    4  A    between atoms: C_13  and  C_14
REMARK    5  A    between atoms: N_17  and  C_18
REMARK    6  A    between atoms: C_18  and  C_19
REMARK                            x       y       z     vdW  Elec       q    Type
REMARK                         _______ _______ _______ _____ _____    ______ ____
ROOT
ATOM      1  C   UNL     1      -0.126  10.634  21.015  0.00  0.00    +0.000 A 
ATOM      2  N   UNL     1       0.172   9.392  21.460  0.00  0.00    +0.000 NA
ATOM      3  C   UNL     1       0.920   8.584  20.704  0.00  0.00    +0.000 A 
ATOM      4  N   UNL     1       1.159   7.368  21.180  0.00  0.00    +0.000 NA
ATOM      5  C   UNL     1       1.874   6.486  20.442  0.00  0.00    +0.000 A 
ATOM      6  C   UNL     1       2.424   6.796  19.203  0.00  0.00    +0.000 A 
ATOM      7  C   UNL     1       2.201   8.083  18.690  0.00  0.00    +0.000 A 
ATOM      8  C   UNL     1       1.411   8.989  19.447  0.00  0.00    +0.000 A 
ATOM      9  C   UNL     1       1.083  10.291  19.011  0.00  0.00    +0.000 A 
ATOM     10  C   UNL     1       0.314  11.131  19.807  0.00  0.00    +0.000 A 
ATOM     11  C   UNL     1       3.167   5.740  18.423  0.00  0.00    +0.000 C 
ATOM     12  N   UNL     1       3.611   4.574  19.214  0.00  0.00    +0.000 NA
ATOM     13  C   UNL     1       2.488   4.069  20.014  0.00  0.00    +0.000 C 
ATOM     14  C   UNL     1       2.069   5.120  21.046  0.00  0.00    +0.000 C 
ENDROOT
BRANCH   7  15
ATOM     15  N   UNL     1       2.543   8.378  17.349  0.00  0.00    +0.000 N 
ATOM     16  H   UNL     1       3.327   9.009  17.225  0.00  0.00    +0.000 HD
ATOM     17  H   UNL     1       1.771   8.664  16.759  0.00  0.00    +0.000 HD
ENDBRANCH   7  15
BRANCH   1  19
ATOM     18  C   UNL     1      -1.189  10.925  23.090  0.00  0.00    +0.000 C 
ATOM     19  O   UNL     1      -0.902  11.463  21.803  0.00  0.00    +0.000 OA
ENDBRANCH   1  19
BRANCH  10  20
ATOM     20  C   UNL     1       0.002  12.452  19.367  0.00  0.00    +0.000 C 
ATOM     21  N   UNL     1      -0.249  13.511  18.955  0.00  0.00    +0.000 NA
ENDBRANCH  10  20
BRANCH  12  22
ATOM     22  C   UNL     1       4.149   3.565  18.285  0.00  0.00    +0.000 C 
BRANCH  22  23
ATOM     23  C   UNL     1       5.168   4.074  17.292  0.00  0.00    +0.000 A 
ATOM     24  C   UNL     1       6.431   4.502  17.733  0.00  0.00    +0.000 A 
ATOM     25  C   UNL     1       7.414   4.872  16.815  0.00  0.00    +0.000 A 
ATOM     26  C   UNL     1       7.150   4.811  15.448  0.00  0.00    +0.000 A 
ATOM     27  C   UNL     1       5.891   4.416  14.999  0.00  0.00    +0.000 A 
ATOM     28  C   UNL     1       4.901   4.060  15.916  0.00  0.00    +0.000 A 
ENDBRANCH  22  23
ENDBRANCH  12  22
TORSDOF 5
ENDMDL
MODEL 4
REMARK VINA RESULT:      -7.4      2.788      4.804
REMARK  Name = 
REMARK  6 active torsions:
REMARK  status: ('A' for Active; 'I' for Inactive)
REMARK    1  A    between atoms: C_1  and  O_2
REMARK    2  A    between atoms: O_2  and  C_3
REMARK    3  A    between atoms: C_9  and  N_10
REMARK    4  A    between atoms: C_13  and  C_14
REMARK    5  A    between atoms: N_17  and  C_18
REMARK    6  A    between atoms: C_18  and  C_19
REMARK                            x       y       z     vdW  Elec       q    Type
REMARK                         _______ _______ _______ _____ _____    ______ ____
ROOT
ATOM      1  C   UNL     1       0.219  10.920  21.566  0.00  0.00    +0.000 A 
ATOM      2  N   UNL     1       0.487   9.627  21.855  0.00  0.00    +0.000 NA
ATOM      3  C   UNL     1       1.063   8.853  20.931  0.00  0.00    +0.000 A 
ATOM      4  N   UNL     1       1.279   7.585  21.262  0.00  0.00    +0.000 NA
ATOM      5  C   UNL     1       1.819   6.737  20.354  0.00  0.00    +0.000 A 
ATOM      6  C   UNL     1       2.211   7.131  19.079  0.00  0.00    +0.000 A 
ATOM      7  C   UNL     1       2.011   8.472  18.717  0.00  0.00    +0.000 A 
ATOM      8  C   UNL     1       1.400   9.346  19.656  0.00  0.00    +0.000 A 
ATOM      9  C   UNL     1       1.108  10.701  19.385  0.00  0.00    +0.000 A 
ATOM     10  C   UNL     1       0.519  11.504  20.354  0.00  0.00    +0.000 A 
ATOM     11  C   UNL     1       2.761   6.112  18.112  0.00  0.00    +0.000 C 
ATOM     12  N   UNL     1       3.228   4.853  18.726  0.00  0.00    +0.000 NA
ATOM     13  C   UNL     1       2.195   4.341  19.635  0.00  0.00    +0.000 C 
ATOM     14  C   UNL     1       2.000   5.311  20.804  0.00  0.00    +0.000 C 
ENDROOT
BRANCH   7  15
ATOM     15  N   UNL     1       2.182   8.872  17.370  0.00  0.00    +0.000 N 
ATOM     16  H   UNL     1       2.768   9.687  17.226  0.00  0.00    +0.000 HD
ATOM     17  H   UNL     1       1.327   8.961  16.834  0.00  0.00    +0.000 HD
ENDBRANCH   7  15
BRANCH   1  19
ATOM     18  C   UNL     1      -1.508  11.109  23.148  0.00  0.00    +0.000 C 
ATOM     19  O   UNL     1      -0.378  11.714  22.527  0.00  0.00    +0.000 OA
ENDBRANCH   1  19
BRANCH  10  20
ATOM     20  C   UNL     1       0.244  12.877  20.079  0.00  0.00    +0.000 C 
ATOM     21  N   UNL     1      -0.028  13.979  19.828  0.00  0.00    +0.000 NA
ENDBRANCH  10  20
BRANCH  12  22
ATOM     22  C   UNL     1       3.557   3.907  17.645  0.00  0.00    +0.000 C 
BRANCH  22  23
ATOM     23  C   UNL     1       4.885   4.141  16.961  0.00  0.00    +0.000 A 
ATOM     24  C   UNL     1       4.957   4.191  15.559  0.00  0.00    +0.000 A 
ATOM     25  C   UNL     1       6.156   4.513  14.923  0.00  0.00    +0.000 A 
ATOM     26  C   UNL     1       7.292   4.794  15.679  0.00  0.00    +0.000 A 
ATOM     27  C   UNL     1       7.240   4.719  17.070  0.00  0.00    +0.000 A 
ATOM     28  C   UNL     1       6.045   4.383  17.708  0.00  0.00    +0.000 A 
ENDBRANCH  22  23
ENDBRANCH  12  22
TORSDOF 5
ENDMDL
MODEL 5
REMARK VINA RESULT:      -7.4      3.248      8.891
REMARK  Name = 
REMARK  6 active torsions:
REMARK  status: ('A' for Active; 'I' for Inactive)
REMARK    1  A    between atoms: C_1  and  O_2
REMARK    2  A    between atoms: O_2  and  C_3
REMARK    3  A    between atoms: C_9  and  N_10
REMARK    4  A    between atoms: C_13  and  C_14
REMARK    5  A    between atoms: N_17  and  C_18
REMARK    6  A    between atoms: C_18  and  C_19
REMARK                            x       y       z     vdW  Elec       q    Type
REMARK                         _______ _______ _______ _____ _____    ______ ____
ROOT
ATOM      1  C   UNL     1       3.572   5.755  18.939  0.00  0.00    +0.000 A 
ATOM      2  N   UNL     1       2.764   6.139  19.953  0.00  0.00    +0.000 NA
ATOM      3  C   UNL     1       2.117   7.305  19.874  0.00  0.00    +0.000 A 
ATOM      4  N   UNL     1       1.357   7.640  20.909  0.00  0.00    +0.000 NA
ATOM      5  C   UNL     1       0.710   8.830  20.911  0.00  0.00    +0.000 A 
ATOM      6  C   UNL     1       0.758   9.727  19.848  0.00  0.00    +0.000 A 
ATOM      7  C   UNL     1       1.538   9.381  18.734  0.00  0.00    +0.000 A 
ATOM      8  C   UNL     1       2.253   8.153  18.758  0.00  0.00    +0.000 A 
ATOM      9  C   UNL     1       3.104   7.725  17.716  0.00  0.00    +0.000 A 
ATOM     10  C   UNL     1       3.766   6.506  17.799  0.00  0.00    +0.000 A 
ATOM     11  C   UNL     1       0.046  11.053  19.949  0.00  0.00    +0.000 C 
ATOM     12  N   UNL     1      -0.989  11.130  20.998  0.00  0.00    +0.000 NA
ATOM     13  C   UNL     1      -0.439  10.631  22.266  0.00  0.00    +0.000 C 
ATOM     14  C   UNL     1      -0.104   9.143  22.139  0.00  0.00    +0.000 C 
ENDROOT
BRANCH   7  15
ATOM     15  N   UNL     1       1.801  10.344  17.730  0.00  0.00    +0.000 N 
ATOM     16  H   UNL     1       2.364  10.023  16.950  0.00  0.00    +0.000 HD
ATOM     17  H   UNL     1       2.151  11.234  18.067  0.00  0.00    +0.000 HD
ENDBRANCH   7  15
BRANCH   1  19
ATOM     18  C   UNL     1       3.398   3.455  19.382  0.00  0.00    +0.000 C 
ATOM     19  O   UNL     1       4.239   4.548  19.030  0.00  0.00    +0.000 OA
ENDBRANCH   1  19
BRANCH  10  20
ATOM     20  C   UNL     1       4.609   6.072  16.734  0.00  0.00    +0.000 C 
ATOM     21  N   UNL     1       5.261   5.742  15.828  0.00  0.00    +0.000 NA
ENDBRANCH  10  20
BRANCH  12  22
ATOM     22  C   UNL     1      -1.453  12.525  21.088  0.00  0.00    +0.000 C 
BRANCH  22  23
ATOM     23  C   UNL     1      -2.946  12.705  21.240  0.00  0.00    +0.000 A 
ATOM     24  C   UNL     1      -3.783  12.642  20.115  0.00  0.00    +0.000 A 
ATOM     25  C   UNL     1      -5.169  12.698  20.259  0.00  0.00    +0.000 A 
ATOM     26  C   UNL     1      -5.734  12.810  21.528  0.00  0.00    +0.000 A 
ATOM     27  C   UNL     1      -4.912  12.903  22.650  0.00  0.00    +0.000 A 
ATOM     28  C   UNL     1      -3.525  12.862  22.506  0.00  0.00    +0.000 A 
ENDBRANCH  22  23
ENDBRANCH  12  22
TORSDOF 5
ENDMDL
MODEL 6
REMARK VINA RESULT:      -7.3      0.828      1.252
REMARK  Name = 
REMARK  6 active torsions:
REMARK  status: ('A' for Active; 'I' for Inactive)
REMARK    1  A    between atoms: C_1  and  O_2
REMARK    2  A    between atoms: O_2  and  C_3
REMARK    3  A    between atoms: C_9  and  N_10
REMARK    4  A    between atoms: C_13  and  C_14
REMARK    5  A    between atoms: N_17  and  C_18
REMARK    6  A    between atoms: C_18  and  C_19
REMARK                            x       y       z     vdW  Elec       q    Type
REMARK                         _______ _______ _______ _____ _____    ______ ____
ROOT
ATOM      1  C   UNL     1      -1.408  13.555  20.888  0.00  0.00    +0.000 A 
ATOM      2  N   UNL     1      -0.872  12.902  19.834  0.00  0.00    +0.000 NA
ATOM      3  C   UNL     1      -0.292  11.713  20.022  0.00  0.00    +0.000 A 
ATOM      4  N   UNL     1       0.239  11.129  18.954  0.00  0.00    +0.000 NA
ATOM      5  C   UNL     1       0.881   9.943  19.086  0.00  0.00    +0.000 A 
ATOM      6  C   UNL     1       0.982   9.260  20.293  0.00  0.00    +0.000 A 
ATOM      7  C   UNL     1       0.407   9.849  21.430  0.00  0.00    +0.000 A 
ATOM      8  C   UNL     1      -0.222  11.116  21.295  0.00  0.00    +0.000 A 
ATOM      9  C   UNL     1      -0.792  11.823  22.377  0.00  0.00    +0.000 A 
ATOM     10  C   UNL     1      -1.403  13.054  22.173  0.00  0.00    +0.000 A 
ATOM     11  C   UNL     1       1.755   7.966  20.364  0.00  0.00    +0.000 C 
ATOM     12  N   UNL     1       1.997   7.310  19.064  0.00  0.00    +0.000 NA
ATOM     13  C   UNL     1       2.532   8.293  18.112  0.00  0.00    +0.000 C 
ATOM     14  C   UNL     1       1.481   9.370  17.829  0.00  0.00    +0.000 C 
ENDROOT
BRANCH   7  15
ATOM     15  N   UNL     1       0.672   9.312  22.713  0.00  0.00    +0.000 N 
ATOM     16  H   UNL     1       1.545   9.604  23.139  0.00  0.00    +0.000 HD
ATOM     17  H   UNL     1       0.567   8.308  22.791  0.00  0.00    +0.000 HD
ENDBRANCH   7  15
BRANCH   1  19
ATOM     18  C   UNL     1      -1.106  15.785  20.216  0.00  0.00    +0.000 C 
ATOM     19  O   UNL     1      -2.004  14.785  20.686  0.00  0.00    +0.000 OA
ENDBRANCH   1  19
BRANCH  10  20
ATOM     20  C   UNL     1      -1.993  13.754  23.267  0.00  0.00    +0.000 C 
ATOM     21  N   UNL     1      -2.484  14.367  24.124  0.00  0.00    +0.000 NA
ENDBRANCH  10  20
BRANCH  12  22
ATOM     22  C   UNL     1       2.910   6.174  19.284  0.00  0.00    +0.000 C 
BRANCH  22  23
ATOM     23  C   UNL     1       2.264   4.917  19.820  0.00  0.00    +0.000 A 
ATOM     24  C   UNL     1       1.511   4.091  18.969  0.00  0.00    +0.000 A 
ATOM     25  C   UNL     1       1.003   2.877  19.429  0.00  0.00    +0.000 A 
ATOM     26  C   UNL     1       1.246   2.470  20.739  0.00  0.00    +0.000 A 
ATOM     27  C   UNL     1       1.967   3.295  21.602  0.00  0.00    +0.000 A 
ATOM     28  C   UNL     1       2.464   4.518  21.148  0.00  0.00    +0.000 A 
ENDBRANCH  22  23
ENDBRANCH  12  22
TORSDOF 5
ENDMDL
MODEL 7
REMARK VINA RESULT:      -7.2      3.173      9.008
REMARK  Name = 
REMARK  6 active torsions:
REMARK  status: ('A' for Active; 'I' for Inactive)
REMARK    1  A    between atoms: C_1  and  O_2
REMARK    2  A    between atoms: O_2  and  C_3
REMARK    3  A    between atoms: C_9  and  N_10
REMARK    4  A    between atoms: C_13  and  C_14
REMARK    5  A    between atoms: N_17  and  C_18
REMARK    6  A    between atoms: C_18  and  C_19
REMARK                            x       y       z     vdW  Elec       q    Type
REMARK                         _______ _______ _______ _____ _____    ______ ____
ROOT
ATOM      1  C   UNL     1       3.597   5.484  19.000  0.00  0.00    +0.000 A 
ATOM      2  N   UNL     1       2.825   5.919  20.021  0.00  0.00    +0.000 NA
ATOM      3  C   UNL     1       2.188   7.088  19.912  0.00  0.00    +0.000 A 
ATOM      4  N   UNL     1       1.464   7.475  20.955  0.00  0.00    +0.000 NA
ATOM      5  C   UNL     1       0.829   8.672  20.926  0.00  0.00    +0.000 A 
ATOM      6  C   UNL     1       0.854   9.522  19.825  0.00  0.00    +0.000 A 
ATOM      7  C   UNL     1       1.596   9.121  18.703  0.00  0.00    +0.000 A 
ATOM      8  C   UNL     1       2.298   7.887  18.758  0.00  0.00    +0.000 A 
ATOM      9  C   UNL     1       3.112   7.406  17.709  0.00  0.00    +0.000 A 
ATOM     10  C   UNL     1       3.763   6.184  17.824  0.00  0.00    +0.000 A 
ATOM     11  C   UNL     1       0.159  10.860  19.891  0.00  0.00    +0.000 C 
ATOM     12  N   UNL     1      -0.843  10.993  20.968  0.00  0.00    +0.000 NA
ATOM     13  C   UNL     1      -0.258  10.541  22.238  0.00  0.00    +0.000 C 
ATOM     14  C   UNL     1       0.057   9.045  22.164  0.00  0.00    +0.000 C 
ENDROOT
BRANCH   7  15
ATOM     15  N   UNL     1       1.837  10.038  17.652  0.00  0.00    +0.000 N 
ATOM     16  H   UNL     1       2.593  10.696  17.809  0.00  0.00    +0.000 HD
ATOM     17  H   UNL     1       1.018  10.527  17.309  0.00  0.00    +0.000 HD
ENDBRANCH   7  15
BRANCH   1  19
ATOM     18  C   UNL     1       3.397   3.190  19.463  0.00  0.00    +0.000 C 
ATOM     19  O   UNL     1       4.254   4.274  19.121  0.00  0.00    +0.000 OA
ENDBRANCH   1  19
BRANCH  10  20
ATOM     20  C   UNL     1       4.569   5.696  16.752  0.00  0.00    +0.000 C 
ATOM     21  N   UNL     1       5.256   5.268  15.917  0.00  0.00    +0.000 NA
ENDBRANCH  10  20
BRANCH  12  22
ATOM     22  C   UNL     1      -1.289  12.396  21.012  0.00  0.00    +0.000 C 
BRANCH  22  23
ATOM     23  C   UNL     1      -1.952  12.826  22.301  0.00  0.00    +0.000 A 
ATOM     24  C   UNL     1      -1.394  13.859  23.071  0.00  0.00    +0.000 A 
ATOM     25  C   UNL     1      -2.056  14.335  24.203  0.00  0.00    +0.000 A 
ATOM     26  C   UNL     1      -3.283  13.789  24.574  0.00  0.00    +0.000 A 
ATOM     27  C   UNL     1      -3.832  12.743  23.834  0.00  0.00    +0.000 A 
ATOM     28  C   UNL     1      -3.165  12.256  22.709  0.00  0.00    +0.000 A 
ENDBRANCH  22  23
ENDBRANCH  12  22
TORSDOF 5
ENDMDL
MODEL 8
REMARK VINA RESULT:      -7.2      3.079      8.959
REMARK  Name = 
REMARK  6 active torsions:
REMARK  status: ('A' for Active; 'I' for Inactive)
REMARK    1  A    between atoms: C_1  and  O_2
REMARK    2  A    between atoms: O_2  and  C_3
REMARK    3  A    between atoms: C_9  and  N_10
REMARK    4  A    between atoms: C_13  and  C_14
REMARK    5  A    between atoms: N_17  and  C_18
REMARK    6  A    between atoms: C_18  and  C_19
REMARK                            x       y       z     vdW  Elec       q    Type
REMARK                         _______ _______ _______ _____ _____    ______ ____
ROOT
ATOM      1  C   UNL     1       3.437   5.744  19.098  0.00  0.00    +0.000 A 
ATOM      2  N   UNL     1       2.647   6.188  20.100  0.00  0.00    +0.000 NA
ATOM      3  C   UNL     1       2.031   7.368  19.979  0.00  0.00    +0.000 A 
ATOM      4  N   UNL     1       1.287   7.764  21.004  0.00  0.00    +0.000 NA
ATOM      5  C   UNL     1       0.673   8.971  20.962  0.00  0.00    +0.000 A 
ATOM      6  C   UNL     1       0.738   9.823  19.865  0.00  0.00    +0.000 A 
ATOM      7  C   UNL     1       1.502   9.413  18.761  0.00  0.00    +0.000 A 
ATOM      8  C   UNL     1       2.183   8.168  18.830  0.00  0.00    +0.000 A 
ATOM      9  C   UNL     1       3.015   7.676  17.801  0.00  0.00    +0.000 A 
ATOM     10  C   UNL     1       3.644   6.444  17.928  0.00  0.00    +0.000 A 
ATOM     11  C   UNL     1       0.063  11.171  19.917  0.00  0.00    +0.000 C 
ATOM     12  N   UNL     1      -0.963  11.318  20.969  0.00  0.00    +0.000 NA
ATOM     13  C   UNL     1      -0.418  10.854  22.251  0.00  0.00    +0.000 C 
ATOM     14  C   UNL     1      -0.124   9.353  22.182  0.00  0.00    +0.000 C 
ENDROOT
BRANCH   7  15
ATOM     15  N   UNL     1       1.784  10.329  17.719  0.00  0.00    +0.000 N 
ATOM     16  H   UNL     1       1.210  10.237  16.888  0.00  0.00    +0.000 HD
ATOM     17  H   UNL     1       2.761  10.400  17.460  0.00  0.00    +0.000 HD
ENDBRANCH   7  15
BRANCH   1  19
ATOM     18  C   UNL     1       3.179   3.415  19.270  0.00  0.00    +0.000 C 
ATOM     19  O   UNL     1       4.072   4.524  19.232  0.00  0.00    +0.000 OA
ENDBRANCH   1  19
BRANCH  10  20
ATOM     20  C   UNL     1       4.469   5.945  16.876  0.00  0.00    +0.000 C 
ATOM     21  N   UNL     1       5.172   5.586  16.022  0.00  0.00    +0.000 NA
ENDBRANCH  10  20
BRANCH  12  22
ATOM     22  C   UNL     1      -1.388  12.728  21.005  0.00  0.00    +0.000 C 
BRANCH  22  23
ATOM     23  C   UNL     1      -2.236  13.119  22.193  0.00  0.00    +0.000 A 
ATOM     24  C   UNL     1      -3.496  12.530  22.387  0.00  0.00    +0.000 A 
ATOM     25  C   UNL     1      -4.238  12.804  23.535  0.00  0.00    +0.000 A 
ATOM     26  C   UNL     1      -3.727  13.663  24.506  0.00  0.00    +0.000 A 
ATOM     27  C   UNL     1      -2.491  14.277  24.312  0.00  0.00    +0.000 A 
ATOM     28  C   UNL     1      -1.754  14.015  23.156  0.00  0.00    +0.000 A 
ENDBRANCH  22  23
ENDBRANCH  12  22
TORSDOF 5
ENDMDL
MODEL 9
REMARK VINA RESULT:      -7.1      1.031      1.044
REMARK  Name = 
REMARK  6 active torsions:
REMARK  status: ('A' for Active; 'I' for Inactive)
REMARK    1  A    between atoms: C_1  and  O_2
REMARK    2  A    between atoms: O_2  and  C_3
REMARK    3  A    between atoms: C_9  and  N_10
REMARK    4  A    between atoms: C_13  and  C_14
REMARK    5  A    between atoms: N_17  and  C_18
REMARK    6  A    between atoms: C_18  and  C_19
REMARK                            x       y       z     vdW  Elec       q    Type
REMARK                         _______ _______ _______ _____ _____    ______ ____
ROOT
ATOM      1  C   UNL     1      -1.177  13.676  20.655  0.00  0.00    +0.000 A 
ATOM      2  N   UNL     1      -0.664  12.969  19.624  0.00  0.00    +0.000 NA
ATOM      3  C   UNL     1      -0.118  11.771  19.853  0.00  0.00    +0.000 A 
ATOM      4  N   UNL     1       0.391  11.133  18.807  0.00  0.00    +0.000 NA
ATOM      5  C   UNL     1       0.999   9.935  18.980  0.00  0.00    +0.000 A 
ATOM      6  C   UNL     1       1.086   9.295  20.212  0.00  0.00    +0.000 A 
ATOM      7  C   UNL     1       0.534   9.942  21.328  0.00  0.00    +0.000 A 
ATOM      8  C   UNL     1      -0.059  11.220  21.148  0.00  0.00    +0.000 A 
ATOM      9  C   UNL     1      -0.603  11.983  22.205  0.00  0.00    +0.000 A 
ATOM     10  C   UNL     1      -1.180  13.223  21.957  0.00  0.00    +0.000 A 
ATOM     11  C   UNL     1       1.822   7.983  20.328  0.00  0.00    +0.000 C 
ATOM     12  N   UNL     1       2.040   7.272  19.052  0.00  0.00    +0.000 NA
ATOM     13  C   UNL     1       2.597   8.203  18.062  0.00  0.00    +0.000 C 
ATOM     14  C   UNL     1       1.577   9.299  17.743  0.00  0.00    +0.000 C 
ENDROOT
BRANCH   7  15
ATOM     15  N   UNL     1       0.790   9.446  22.629  0.00  0.00    +0.000 N 
ATOM     16  H   UNL     1      -0.031   9.229  23.184  0.00  0.00    +0.000 HD
ATOM     17  H   UNL     1       1.445   9.990  23.177  0.00  0.00    +0.000 HD
ENDBRANCH   7  15
BRANCH   1  19
ATOM     18  C   UNL     1      -0.821  15.862  19.873  0.00  0.00    +0.000 C 
ATOM     19  O   UNL     1      -1.739  14.914  20.409  0.00  0.00    +0.000 OA
ENDBRANCH   1  19
BRANCH  10  20
ATOM     20  C   UNL     1      -1.744  13.980  23.027  0.00  0.00    +0.000 C 
ATOM     21  N   UNL     1      -2.196  14.644  23.868  0.00  0.00    +0.000 NA
ENDBRANCH  10  20
BRANCH  12  22
ATOM     22  C   UNL     1       2.920   6.119  19.311  0.00  0.00    +0.000 C 
BRANCH  22  23
ATOM     23  C   UNL     1       2.268   4.762  19.177  0.00  0.00    +0.000 A 
ATOM     24  C   UNL     1       1.335   4.330  20.133  0.00  0.00    +0.000 A 
ATOM     25  C   UNL     1       0.649   3.128  19.961  0.00  0.00    +0.000 A 
ATOM     26  C   UNL     1       0.883   2.348  18.830  0.00  0.00    +0.000 A 
ATOM     27  C   UNL     1       1.829   2.752  17.889  0.00  0.00    +0.000 A 
ATOM     28  C   UNL     1       2.527   3.947  18.067  0.00  0.00    +0.000 A 
ENDBRANCH  22  23
ENDBRANCH  12  22
TORSDOF 5
ENDMDL
