MODEL 1
REMARK VINA RESULT:      -7.4      0.000      0.000
REMARK  Name = 
REMARK  13 active torsions:
REMARK  status: ('A' for Active; 'I' for Inactive)
REMARK    1  A    between atoms: C_1  and  C_2
REMARK    2  A    between atoms: C_2  and  C_3
REMARK    3  A    between atoms: C_3  and  O_4
REMARK    4  A    between atoms: C_3  and  C_25
REMARK    5  A    between atoms: O_4  and  C_5
REMARK    6  A    between atoms: C_6  and  C_7
REMARK    7  A    between atoms: C_9  and  C_10
REMARK    8  A    between atoms: C_11  and  C_12
REMARK    9  A    between atoms: C_12  and  C_14
REMARK   10  A    between atoms: C_17  and  S_18
REMARK   11  A    between atoms: S_18  and  C_19
REMARK   12  A    between atoms: C_23  and  C_24
REMARK   13  A    between atoms: C_25  and  O_27
REMARK                            x       y       z     vdW  Elec       q    Type
REMARK                         _______ _______ _______ _____ _____    ______ ____
ROOT
ATOM      1  C   UNL     1       2.432   5.349  18.722  0.00  0.00    +0.000 A 
ATOM      2  C   UNL     1       1.785   4.914  19.894  0.00  0.00    +0.000 A 
ATOM      3  C   UNL     1       1.591   3.498  20.354  0.00  0.00    +0.000 C 
ATOM      4  C   UNL     1       1.302   5.872  20.815  0.00  0.00    +0.000 A 
ATOM      5  C   UNL     1       1.533   7.238  20.669  0.00  0.00    +0.000 A 
ATOM      6  C   UNL     1       2.255   7.658  19.554  0.00  0.00    +0.000 A 
ATOM      7  C   UNL     1       2.730   6.732  18.595  0.00  0.00    +0.000 A 
ATOM      8  C   UNL     1       3.574   7.281  17.472  0.00  0.00    +0.000 C 
ENDROOT
BRANCH   5   9
ATOM      9  C   UNL     1       1.033   8.138  21.718  0.00  0.00    +0.000 C 
ATOM     10  C   UNL     1       0.130   9.106  21.505  0.00  0.00    +0.000 C 
BRANCH  10  11
ATOM     11  C   UNL     1      -0.214  10.058  22.595  0.00  0.00    +0.000 C 
ATOM     12  O   UNL     1       0.236   9.945  23.733  0.00  0.00    +0.000 OA
BRANCH  11  13
ATOM     13  C   UNL     1      -1.152  11.163  22.253  0.00  0.00    +0.000 A 
ATOM     14  C   UNL     1      -1.143  11.681  20.955  0.00  0.00    +0.000 A 
ATOM     15  C   UNL     1      -2.012  12.725  20.611  0.00  0.00    +0.000 A 
ATOM     16  C   UNL     1      -2.913  13.248  21.548  0.00  0.00    +0.000 A 
ATOM     17  C   UNL     1      -2.924  12.717  22.840  0.00  0.00    +0.000 A 
ATOM     18  C   UNL     1      -2.058  11.675  23.189  0.00  0.00    +0.000 A 
BRANCH  16  19
ATOM     19  S   UNL     1      -3.956  14.607  21.037  0.00  0.00    +0.000 S 
ATOM     20  C   UNL     1      -4.658  15.170  22.613  0.00  0.00    +0.000 C 
ENDBRANCH  16  19
ENDBRANCH  11  13
ENDBRANCH  10  11
ENDBRANCH   5   9
BRANCH   1  21
ATOM     21  O   UNL     1       2.878   4.554  17.687  0.00  0.00    +0.000 OA
BRANCH  21  22
ATOM     22  C   UNL     1       4.220   4.013  17.740  0.00  0.00    +0.000 C 
BRANCH  22  24
ATOM     23  C   UNL     1       6.166   4.489  16.147  0.00  0.00    +0.000 C 
ATOM     24  C   UNL     1       4.760   3.920  16.300  0.00  0.00    +0.000 C 
ENDBRANCH  22  24
BRANCH  22  25
ATOM     25  C   UNL     1       4.211   2.603  18.351  0.00  0.00    +0.000 C 
ATOM     26  O   UNL     1       3.571   1.657  17.912  0.00  0.00    +0.000 OA
BRANCH  25  27
ATOM     27  O   UNL     1       4.983   2.495  19.458  0.00  0.00    +0.000 OA
ATOM     28  H   UNL     1       5.779   3.063  19.352  0.00  0.00    +0.000 HD
ENDBRANCH  25  27
ENDBRANCH  22  25
ENDBRANCH  21  22
ENDBRANCH   1  21
TORSDOF 9
ENDMDL
MODEL 2
REMARK VINA RESULT:      -7.3      0.301      1.703
REMARK  Name = 
REMARK  13 active torsions:
REMARK  status: ('A' for Active; 'I' for Inactive)
REMARK    1  A    between atoms: C_1  and  C_2
REMARK    2  A    between atoms: C_2  and  C_3
REMARK    3  A    between atoms: C_3  and  O_4
REMARK    4  A    between atoms: C_3  and  C_25
REMARK    5  A    between atoms: O_4  and  C_5
REMARK    6  A    between atoms: C_6  and  C_7
REMARK    7  A    between atoms: C_9  and  C_10
REMARK    8  A    between atoms: C_11  and  C_12
REMARK    9  A    between atoms: C_12  and  C_14
REMARK   10  A    between atoms: C_17  and  S_18
REMARK   11  A    between atoms: S_18  and  C_19
REMARK   12  A    between atoms: C_23  and  C_24
REMARK   13  A    between atoms: C_25  and  O_27
REMARK                            x       y       z     vdW  Elec       q    Type
REMARK                         _______ _______ _______ _____ _____    ______ ____
ROOT
ATOM      1  C   UNL     1       2.408   5.429  18.646  0.00  0.00    +0.000 A 
ATOM      2  C   UNL     1       2.693   6.805  18.561  0.00  0.00    +0.000 A 
ATOM      3  C   UNL     1       3.299   7.538  17.399  0.00  0.00    +0.000 C 
ATOM      4  C   UNL     1       2.330   7.655  19.631  0.00  0.00    +0.000 A 
ATOM      5  C   UNL     1       1.600   7.209  20.731  0.00  0.00    +0.000 A 
ATOM      6  C   UNL     1       1.238   5.865  20.767  0.00  0.00    +0.000 A 
ATOM      7  C   UNL     1       1.608   4.977  19.729  0.00  0.00    +0.000 A 
ATOM      8  C   UNL     1       1.093   3.562  19.822  0.00  0.00    +0.000 C 
ENDROOT
BRANCH   5   9
ATOM      9  C   UNL     1       1.229   8.194  21.757  0.00  0.00    +0.000 C 
ATOM     10  C   UNL     1       0.020   8.768  21.840  0.00  0.00    +0.000 C 
BRANCH  10  11
ATOM     11  C   UNL     1      -0.222   9.856  22.825  0.00  0.00    +0.000 C 
ATOM     12  O   UNL     1       0.258   9.838  23.956  0.00  0.00    +0.000 OA
BRANCH  11  13
ATOM     13  C   UNL     1      -1.096  10.980  22.386  0.00  0.00    +0.000 A 
ATOM     14  C   UNL     1      -1.014  11.424  21.064  0.00  0.00    +0.000 A 
ATOM     15  C   UNL     1      -1.821  12.483  20.629  0.00  0.00    +0.000 A 
ATOM     16  C   UNL     1      -2.734  13.096  21.498  0.00  0.00    +0.000 A 
ATOM     17  C   UNL     1      -2.818  12.638  22.816  0.00  0.00    +0.000 A 
ATOM     18  C   UNL     1      -2.014  11.580  23.256  0.00  0.00    +0.000 A 
BRANCH  16  19
ATOM     19  S   UNL     1      -3.694  14.467  20.873  0.00  0.00    +0.000 S 
ATOM     20  C   UNL     1      -3.955  15.469  22.364  0.00  0.00    +0.000 C 
ENDBRANCH  16  19
ENDBRANCH  11  13
ENDBRANCH  10  11
ENDBRANCH   5   9
BRANCH   1  21
ATOM     21  O   UNL     1       2.772   4.457  17.738  0.00  0.00    +0.000 OA
BRANCH  21  22
ATOM     22  C   UNL     1       4.128   3.950  17.752  0.00  0.00    +0.000 C 
BRANCH  22  24
ATOM     23  C   UNL     1       5.971   4.510  16.067  0.00  0.00    +0.000 C 
ATOM     24  C   UNL     1       4.619   3.843  16.296  0.00  0.00    +0.000 C 
ENDBRANCH  22  24
BRANCH  22  25
ATOM     25  C   UNL     1       4.175   2.551  18.388  0.00  0.00    +0.000 C 
ATOM     26  O   UNL     1       3.537   1.584  17.993  0.00  0.00    +0.000 OA
BRANCH  25  27
ATOM     27  O   UNL     1       4.995   2.480  19.463  0.00  0.00    +0.000 OA
ATOM     28  H   UNL     1       5.439   3.349  19.588  0.00  0.00    +0.000 HD
ENDBRANCH  25  27
ENDBRANCH  22  25
ENDBRANCH  21  22
ENDBRANCH   1  21
TORSDOF 9
ENDMDL
MODEL 3
REMARK VINA RESULT:      -7.3      1.251      2.381
REMARK  Name = 
REMARK  13 active torsions:
REMARK  status: ('A' for Active; 'I' for Inactive)
REMARK    1  A    between atoms: C_1  and  C_2
REMARK    2  A    between atoms: C_2  and  C_3
REMARK    3  A    between atoms: C_3  and  O_4
REMARK    4  A    between atoms: C_3  and  C_25
REMARK    5  A    between atoms: O_4  and  C_5
REMARK    6  A    between atoms: C_6  and  C_7
REMARK    7  A    between atoms: C_9  and  C_10
REMARK    8  A    between atoms: C_11  and  C_12
REMARK    9  A    between atoms: C_12  and  C_14
REMARK   10  A    between atoms: C_17  and  S_18
REMARK   11  A    between atoms: S_18  and  C_19
REMARK   12  A    between atoms: C_23  and  C_24
REMARK   13  A    between atoms: C_25  and  O_27
REMARK                            x       y       z     vdW  Elec       q    Type
REMARK                         _______ _______ _______ _____ _____    ______ ____
ROOT
ATOM      1  C   UNL     1       2.528   4.827  18.360  0.00  0.00    +0.000 A 
ATOM      2  C   UNL     1       2.884   6.188  18.403  0.00  0.00    +0.000 A 
ATOM      3  C   UNL     1       3.674   6.955  17.381  0.00  0.00    +0.000 C 
ATOM      4  C   UNL     1       2.418   6.993  19.468  0.00  0.00    +0.000 A 
ATOM      5  C   UNL     1       1.527   6.524  20.430  0.00  0.00    +0.000 A 
ATOM      6  C   UNL     1       1.103   5.201  20.330  0.00  0.00    +0.000 A 
ATOM      7  C   UNL     1       1.569   4.356  19.296  0.00  0.00    +0.000 A 
ATOM      8  C   UNL     1       0.983   2.968  19.228  0.00  0.00    +0.000 C 
ENDROOT
BRANCH   5   9
ATOM      9  C   UNL     1       1.066   7.466  21.460  0.00  0.00    +0.000 C 
ATOM     10  C   UNL     1       0.931   8.784  21.260  0.00  0.00    +0.000 C 
BRANCH  10  11
ATOM     11  C   UNL     1       0.592   9.680  22.399  0.00  0.00    +0.000 C 
ATOM     12  O   UNL     1       1.163   9.609  23.485  0.00  0.00    +0.000 OA
BRANCH  11  13
ATOM     13  C   UNL     1      -0.496  10.673  22.174  0.00  0.00    +0.000 A 
ATOM     14  C   UNL     1      -0.640  11.244  20.907  0.00  0.00    +0.000 A 
ATOM     15  C   UNL     1      -1.651  12.185  20.673  0.00  0.00    +0.000 A 
ATOM     16  C   UNL     1      -2.542  12.550  21.690  0.00  0.00    +0.000 A 
ATOM     17  C   UNL     1      -2.399  11.966  22.951  0.00  0.00    +0.000 A 
ATOM     18  C   UNL     1      -1.390  11.026  23.191  0.00  0.00    +0.000 A 
BRANCH  16  19
ATOM     19  S   UNL     1      -3.775  13.789  21.316  0.00  0.00    +0.000 S 
ATOM     20  C   UNL     1      -5.258  13.111  22.114  0.00  0.00    +0.000 C 
ENDBRANCH  16  19
ENDBRANCH  11  13
ENDBRANCH  10  11
ENDBRANCH   5   9
BRANCH   1  21
ATOM     21  O   UNL     1       2.967   3.892  17.446  0.00  0.00    +0.000 OA
BRANCH  21  22
ATOM     22  C   UNL     1       4.259   3.269  17.640  0.00  0.00    +0.000 C 
BRANCH  22  24
ATOM     23  C   UNL     1       4.508   2.271  19.984  0.00  0.00    +0.000 C 
ATOM     24  C   UNL     1       4.693   3.500  19.100  0.00  0.00    +0.000 C 
ENDBRANCH  22  24
BRANCH  22  25
ATOM     25  C   UNL     1       5.309   3.900  16.712  0.00  0.00    +0.000 C 
ATOM     26  O   UNL     1       5.101   4.244  15.556  0.00  0.00    +0.000 OA
BRANCH  25  27
ATOM     27  O   UNL     1       6.524   4.033  17.292  0.00  0.00    +0.000 OA
ATOM     28  H   UNL     1       6.436   3.890  18.261  0.00  0.00    +0.000 HD
ENDBRANCH  25  27
ENDBRANCH  22  25
ENDBRANCH  21  22
ENDBRANCH   1  21
TORSDOF 9
ENDMDL
MODEL 4
REMARK VINA RESULT:      -7.2      1.194      2.368
REMARK  Name = 
REMARK  13 active torsions:
REMARK  status: ('A' for Active; 'I' for Inactive)
REMARK    1  A    between atoms: C_1  and  C_2
REMARK    2  A    between atoms: C_2  and  C_3
REMARK    3  A    between atoms: C_3  and  O_4
REMARK    4  A    between atoms: C_3  and  C_25
REMARK    5  A    between atoms: O_4  and  C_5
REMARK    6  A    between atoms: C_6  and  C_7
REMARK    7  A    between atoms: C_9  and  C_10
REMARK    8  A    between atoms: C_11  and  C_12
REMARK    9  A    between atoms: C_12  and  C_14
REMARK   10  A    between atoms: C_17  and  S_18
REMARK   11  A    between atoms: S_18  and  C_19
REMARK   12  A    between atoms: C_23  and  C_24
REMARK   13  A    between atoms: C_25  and  O_27
REMARK                            x       y       z     vdW  Elec       q    Type
REMARK                         _______ _______ _______ _____ _____    ______ ____
ROOT
ATOM      1  C   UNL     1       3.019   5.955  18.783  0.00  0.00    +0.000 A 
ATOM      2  C   UNL     1       2.719   7.320  18.608  0.00  0.00    +0.000 A 
ATOM      3  C   UNL     1       3.022   8.171  17.408  0.00  0.00    +0.000 C 
ATOM      4  C   UNL     1       1.994   8.004  19.611  0.00  0.00    +0.000 A 
ATOM      5  C   UNL     1       1.463   7.360  20.726  0.00  0.00    +0.000 A 
ATOM      6  C   UNL     1       1.682   5.990  20.848  0.00  0.00    +0.000 A 
ATOM      7  C   UNL     1       2.428   5.276  19.881  0.00  0.00    +0.000 A 
ATOM      8  C   UNL     1       2.533   3.782  20.063  0.00  0.00    +0.000 C 
ENDROOT
BRANCH   5   9
ATOM      9  C   UNL     1       0.677   8.161  21.675  0.00  0.00    +0.000 C 
ATOM     10  C   UNL     1       0.417   9.466  21.516  0.00  0.00    +0.000 C 
BRANCH  10  11
ATOM     11  C   UNL     1      -0.267  10.228  22.595  0.00  0.00    +0.000 C 
ATOM     12  O   UNL     1      -0.069  10.001  23.787  0.00  0.00    +0.000 OA
BRANCH  11  13
ATOM     13  C   UNL     1      -1.230  11.281  22.170  0.00  0.00    +0.000 A 
ATOM     14  C   UNL     1      -2.140  11.783  23.103  0.00  0.00    +0.000 A 
ATOM     15  C   UNL     1      -3.060  12.770  22.726  0.00  0.00    +0.000 A 
ATOM     16  C   UNL     1      -3.068  13.284  21.422  0.00  0.00    +0.000 A 
ATOM     17  C   UNL     1      -2.146  12.786  20.497  0.00  0.00    +0.000 A 
ATOM     18  C   UNL     1      -1.226  11.799  20.869  0.00  0.00    +0.000 A 
BRANCH  16  19
ATOM     19  S   UNL     1      -4.301  14.511  21.014  0.00  0.00    +0.000 S 
ATOM     20  C   UNL     1      -5.507  13.545  20.060  0.00  0.00    +0.000 C 
ENDBRANCH  16  19
ENDBRANCH  11  13
ENDBRANCH  10  11
ENDBRANCH   5   9
BRANCH   1  21
ATOM     21  O   UNL     1       3.788   5.170  17.950  0.00  0.00    +0.000 OA
BRANCH  21  22
ATOM     22  C   UNL     1       5.165   5.542  17.702  0.00  0.00    +0.000 C 
BRANCH  22  24
ATOM     23  C   UNL     1       5.241   4.306  15.461  0.00  0.00    +0.000 C 
ATOM     24  C   UNL     1       5.369   5.646  16.178  0.00  0.00    +0.000 C 
ENDBRANCH  22  24
BRANCH  22  25
ATOM     25  C   UNL     1       6.122   4.473  18.252  0.00  0.00    +0.000 C 
ATOM     26  O   UNL     1       7.343   4.564  18.251  0.00  0.00    +0.000 OA
BRANCH  25  27
ATOM     27  O   UNL     1       5.484   3.383  18.738  0.00  0.00    +0.000 OA
ATOM     28  H   UNL     1       6.096   2.613  18.712  0.00  0.00    +0.000 HD
ENDBRANCH  25  27
ENDBRANCH  22  25
ENDBRANCH  21  22
ENDBRANCH   1  21
TORSDOF 9
ENDMDL
MODEL 5
REMARK VINA RESULT:      -7.2      1.311      2.497
REMARK  Name = 
REMARK  13 active torsions:
REMARK  status: ('A' for Active; 'I' for Inactive)
REMARK    1  A    between atoms: C_1  and  C_2
REMARK    2  A    between atoms: C_2  and  C_3
REMARK    3  A    between atoms: C_3  and  O_4
REMARK    4  A    between atoms: C_3  and  C_25
REMARK    5  A    between atoms: O_4  and  C_5
REMARK    6  A    between atoms: C_6  and  C_7
REMARK    7  A    between atoms: C_9  and  C_10
REMARK    8  A    between atoms: C_11  and  C_12
REMARK    9  A    between atoms: C_12  and  C_14
REMARK   10  A    between atoms: C_17  and  S_18
REMARK   11  A    between atoms: S_18  and  C_19
REMARK   12  A    between atoms: C_23  and  C_24
REMARK   13  A    between atoms: C_25  and  O_27
REMARK                            x       y       z     vdW  Elec       q    Type
REMARK                         _______ _______ _______ _____ _____    ______ ____
ROOT
ATOM      1  C   UNL     1       2.426   5.372  18.813  0.00  0.00    +0.000 A 
ATOM      2  C   UNL     1       2.705   6.739  18.619  0.00  0.00    +0.000 A 
ATOM      3  C   UNL     1       3.325   7.377  17.408  0.00  0.00    +0.000 C 
ATOM      4  C   UNL     1       2.321   7.672  19.609  0.00  0.00    +0.000 A 
ATOM      5  C   UNL     1       1.576   7.314  20.730  0.00  0.00    +0.000 A 
ATOM      6  C   UNL     1       1.222   5.975  20.872  0.00  0.00    +0.000 A 
ATOM      7  C   UNL     1       1.613   5.006  19.918  0.00  0.00    +0.000 A 
ATOM      8  C   UNL     1       1.104   3.600  20.120  0.00  0.00    +0.000 C 
ENDROOT
BRANCH   5   9
ATOM      9  C   UNL     1       1.184   8.378  21.665  0.00  0.00    +0.000 C 
ATOM     10  C   UNL     1       0.077   9.122  21.529  0.00  0.00    +0.000 C 
BRANCH  10  11
ATOM     11  C   UNL     1      -0.168  10.269  22.445  0.00  0.00    +0.000 C 
ATOM     12  O   UNL     1      -0.203  10.138  23.667  0.00  0.00    +0.000 OA
BRANCH  11  13
ATOM     13  C   UNL     1      -0.388  11.600  21.814  0.00  0.00    +0.000 A 
ATOM     14  C   UNL     1      -0.833  12.660  22.608  0.00  0.00    +0.000 A 
ATOM     15  C   UNL     1      -1.054  13.920  22.037  0.00  0.00    +0.000 A 
ATOM     16  C   UNL     1      -0.813  14.143  20.675  0.00  0.00    +0.000 A 
ATOM     17  C   UNL     1      -0.357  13.081  19.890  0.00  0.00    +0.000 A 
ATOM     18  C   UNL     1      -0.135  11.820  20.455  0.00  0.00    +0.000 A 
BRANCH  16  19
ATOM     19  S   UNL     1      -1.161  15.769  20.020  0.00  0.00    +0.000 S 
ATOM     20  C   UNL     1       0.162  15.984  18.796  0.00  0.00    +0.000 C 
ENDBRANCH  16  19
ENDBRANCH  11  13
ENDBRANCH  10  11
ENDBRANCH   5   9
BRANCH   1  21
ATOM     21  O   UNL     1       2.810   4.331  17.994  0.00  0.00    +0.000 OA
BRANCH  21  22
ATOM     22  C   UNL     1       4.169   3.839  18.068  0.00  0.00    +0.000 C 
BRANCH  22  24
ATOM     23  C   UNL     1       5.911   4.720  16.411  0.00  0.00    +0.000 C 
ATOM     24  C   UNL     1       4.737   3.772  16.637  0.00  0.00    +0.000 C 
ENDBRANCH  22  24
BRANCH  22  25
ATOM     25  C   UNL     1       4.201   2.427  18.673  0.00  0.00    +0.000 C 
ATOM     26  O   UNL     1       3.542   1.479  18.266  0.00  0.00    +0.000 OA
BRANCH  25  27
ATOM     27  O   UNL     1       5.032   2.319  19.736  0.00  0.00    +0.000 OA
ATOM     28  H   UNL     1       5.300   3.219  20.028  0.00  0.00    +0.000 HD
ENDBRANCH  25  27
ENDBRANCH  22  25
ENDBRANCH  21  22
ENDBRANCH   1  21
TORSDOF 9
ENDMDL
MODEL 6
REMARK VINA RESULT:      -7.2      2.685      3.760
REMARK  Name = 
REMARK  13 active torsions:
REMARK  status: ('A' for Active; 'I' for Inactive)
REMARK    1  A    between atoms: C_1  and  C_2
REMARK    2  A    between atoms: C_2  and  C_3
REMARK    3  A    between atoms: C_3  and  O_4
REMARK    4  A    between atoms: C_3  and  C_25
REMARK    5  A    between atoms: O_4  and  C_5
REMARK    6  A    between atoms: C_6  and  C_7
REMARK    7  A    between atoms: C_9  and  C_10
REMARK    8  A    between atoms: C_11  and  C_12
REMARK    9  A    between atoms: C_12  and  C_14
REMARK   10  A    between atoms: C_17  and  S_18
REMARK   11  A    between atoms: S_18  and  C_19
REMARK   12  A    between atoms: C_23  and  C_24
REMARK   13  A    between atoms: C_25  and  O_27
REMARK                            x       y       z     vdW  Elec       q    Type
REMARK                         _______ _______ _______ _____ _____    ______ ____
ROOT
ATOM      1  C   UNL     1       3.495   5.864  18.853  0.00  0.00    +0.000 A 
ATOM      2  C   UNL     1       3.784   6.732  17.783  0.00  0.00    +0.000 A 
ATOM      3  C   UNL     1       4.690   6.466  16.615  0.00  0.00    +0.000 C 
ATOM      4  C   UNL     1       3.127   7.981  17.708  0.00  0.00    +0.000 A 
ATOM      5  C   UNL     1       2.118   8.354  18.593  0.00  0.00    +0.000 A 
ATOM      6  C   UNL     1       1.770   7.452  19.596  0.00  0.00    +0.000 A 
ATOM      7  C   UNL     1       2.425   6.204  19.721  0.00  0.00    +0.000 A 
ATOM      8  C   UNL     1       1.913   5.266  20.786  0.00  0.00    +0.000 C 
ENDROOT
BRANCH   5   9
ATOM      9  C   UNL     1       1.465   9.655  18.386  0.00  0.00    +0.000 C 
ATOM     10  C   UNL     1       0.338  10.032  19.007  0.00  0.00    +0.000 C 
BRANCH  10  11
ATOM     11  C   UNL     1      -0.327  11.309  18.632  0.00  0.00    +0.000 C 
ATOM     12  O   UNL     1       0.298  12.355  18.472  0.00  0.00    +0.000 OA
BRANCH  11  13
ATOM     13  C   UNL     1      -1.807  11.275  18.470  0.00  0.00    +0.000 A 
ATOM     14  C   UNL     1      -2.601  12.031  19.336  0.00  0.00    +0.000 A 
ATOM     15  C   UNL     1      -3.996  12.010  19.208  0.00  0.00    +0.000 A 
ATOM     16  C   UNL     1      -4.614  11.255  18.203  0.00  0.00    +0.000 A 
ATOM     17  C   UNL     1      -3.813  10.511  17.332  0.00  0.00    +0.000 A 
ATOM     18  C   UNL     1      -2.419  10.528  17.456  0.00  0.00    +0.000 A 
BRANCH  16  19
ATOM     19  S   UNL     1      -6.400  11.253  18.137  0.00  0.00    +0.000 S 
ATOM     20  C   UNL     1      -6.782  13.017  17.948  0.00  0.00    +0.000 C 
ENDBRANCH  16  19
ENDBRANCH  11  13
ENDBRANCH  10  11
ENDBRANCH   5   9
BRANCH   1  21
ATOM     21  O   UNL     1       4.109   4.658  19.120  0.00  0.00    +0.000 OA
BRANCH  21  22
ATOM     22  C   UNL     1       3.920   3.552  18.205  0.00  0.00    +0.000 C 
BRANCH  22  24
ATOM     23  C   UNL     1       1.467   2.827  18.312  0.00  0.00    +0.000 C 
ATOM     24  C   UNL     1       2.513   3.670  17.589  0.00  0.00    +0.000 C 
ENDBRANCH  22  24
BRANCH  22  25
ATOM     25  C   UNL     1       4.017   2.211  18.950  0.00  0.00    +0.000 C 
ATOM     26  O   UNL     1       3.966   2.084  20.166  0.00  0.00    +0.000 OA
BRANCH  25  27
ATOM     27  O   UNL     1       4.184   1.152  18.124  0.00  0.00    +0.000 OA
ATOM     28  H   UNL     1       3.793   1.362  17.246  0.00  0.00    +0.000 HD
ENDBRANCH  25  27
ENDBRANCH  22  25
ENDBRANCH  21  22
ENDBRANCH   1  21
TORSDOF 9
ENDMDL
MODEL 7
REMARK VINA RESULT:      -7.1      1.764      2.611
REMARK  Name = 
REMARK  13 active torsions:
REMARK  status: ('A' for Active; 'I' for Inactive)
REMARK    1  A    between atoms: C_1  and  C_2
REMARK    2  A    between atoms: C_2  and  C_3
REMARK    3  A    between atoms: C_3  and  O_4
REMARK    4  A    between atoms: C_3  and  C_25
REMARK    5  A    between atoms: O_4  and  C_5
REMARK    6  A    between atoms: C_6  and  C_7
REMARK    7  A    between atoms: C_9  and  C_10
REMARK    8  A    between atoms: C_11  and  C_12
REMARK    9  A    between atoms: C_12  and  C_14
REMARK   10  A    between atoms: C_17  and  S_18
REMARK   11  A    between atoms: S_18  and  C_19
REMARK   12  A    between atoms: C_23  and  C_24
REMARK   13  A    between atoms: C_25  and  O_27
REMARK                            x       y       z     vdW  Elec       q    Type
REMARK                         _______ _______ _______ _____ _____    ______ ____
ROOT
ATOM      1  C   UNL     1       2.493   5.481  19.143  0.00  0.00    +0.000 A 
ATOM      2  C   UNL     1       2.729   6.810  18.745  0.00  0.00    +0.000 A 
ATOM      3  C   UNL     1       3.353   7.279  17.462  0.00  0.00    +0.000 C 
ATOM      4  C   UNL     1       2.291   7.869  19.574  0.00  0.00    +0.000 A 
ATOM      5  C   UNL     1       1.534   7.659  20.724  0.00  0.00    +0.000 A 
ATOM      6  C   UNL     1       1.223   6.345  21.064  0.00  0.00    +0.000 A 
ATOM      7  C   UNL     1       1.668   5.257  20.276  0.00  0.00    +0.000 A 
ATOM      8  C   UNL     1       1.204   3.881  20.684  0.00  0.00    +0.000 C 
ENDROOT
BRANCH   5   9
ATOM      9  C   UNL     1       1.085   8.838  21.478  0.00  0.00    +0.000 C 
ATOM     10  C   UNL     1      -0.202   9.183  21.630  0.00  0.00    +0.000 C 
BRANCH  10  11
ATOM     11  C   UNL     1      -0.557  10.468  22.290  0.00  0.00    +0.000 C 
ATOM     12  O   UNL     1      -0.913  10.527  23.465  0.00  0.00    +0.000 OA
BRANCH  11  13
ATOM     13  C   UNL     1      -0.478  11.699  21.456  0.00  0.00    +0.000 A 
ATOM     14  C   UNL     1      -0.833  11.625  20.106  0.00  0.00    +0.000 A 
ATOM     15  C   UNL     1      -0.761  12.768  19.299  0.00  0.00    +0.000 A 
ATOM     16  C   UNL     1      -0.357  14.000  19.831  0.00  0.00    +0.000 A 
ATOM     17  C   UNL     1      -0.016  14.068  21.185  0.00  0.00    +0.000 A 
ATOM     18  C   UNL     1      -0.085  12.929  21.995  0.00  0.00    +0.000 A 
BRANCH  16  19
ATOM     19  S   UNL     1      -0.254  15.397  18.722  0.00  0.00    +0.000 S 
ATOM     20  C   UNL     1       0.653  16.614  19.717  0.00  0.00    +0.000 C 
ENDBRANCH  16  19
ENDBRANCH  11  13
ENDBRANCH  10  11
ENDBRANCH   5   9
BRANCH   1  21
ATOM     21  O   UNL     1       2.931   4.342  18.499  0.00  0.00    +0.000 OA
BRANCH  21  22
ATOM     22  C   UNL     1       4.214   3.777  18.859  0.00  0.00    +0.000 C 
BRANCH  22  24
ATOM     23  C   UNL     1       6.344   4.997  18.132  0.00  0.00    +0.000 C 
ATOM     24  C   UNL     1       5.206   4.070  17.717  0.00  0.00    +0.000 C 
ENDBRANCH  22  24
BRANCH  22  25
ATOM     25  C   UNL     1       4.106   2.254  19.034  0.00  0.00    +0.000 C 
ATOM     26  O   UNL     1       3.262   1.549  18.496  0.00  0.00    +0.000 OA
BRANCH  25  27
ATOM     27  O   UNL     1       5.039   1.744  19.871  0.00  0.00    +0.000 OA
ATOM     28  H   UNL     1       5.700   2.442  20.080  0.00  0.00    +0.000 HD
ENDBRANCH  25  27
ENDBRANCH  22  25
ENDBRANCH  21  22
ENDBRANCH   1  21
TORSDOF 9
ENDMDL
MODEL 8
REMARK VINA RESULT:      -7.0      2.701      3.702
REMARK  Name = 
REMARK  13 active torsions:
REMARK  status: ('A' for Active; 'I' for Inactive)
REMARK    1  A    between atoms: C_1  and  C_2
REMARK    2  A    between atoms: C_2  and  C_3
REMARK    3  A    between atoms: C_3  and  O_4
REMARK    4  A    between atoms: C_3  and  C_25
REMARK    5  A    between atoms: O_4  and  C_5
REMARK    6  A    between atoms: C_6  and  C_7
REMARK    7  A    between atoms: C_9  and  C_10
REMARK    8  A    between atoms: C_11  and  C_12
REMARK    9  A    between atoms: C_12  and  C_14
REMARK   10  A    between atoms: C_17  and  S_18
REMARK   11  A    between atoms: S_18  and  C_19
REMARK   12  A    between atoms: C_23  and  C_24
REMARK   13  A    between atoms: C_25  and  O_27
REMARK                            x       y       z     vdW  Elec       q    Type
REMARK                         _______ _______ _______ _____ _____    ______ ____
ROOT
ATOM      1  C   UNL     1       3.118   6.222  18.977  0.00  0.00    +0.000 A 
ATOM      2  C   UNL     1       2.149   6.797  19.820  0.00  0.00    +0.000 A 
ATOM      3  C   UNL     1       1.691   6.291  21.158  0.00  0.00    +0.000 C 
ATOM      4  C   UNL     1       1.552   8.025  19.453  0.00  0.00    +0.000 A 
ATOM      5  C   UNL     1       1.959   8.755  18.339  0.00  0.00    +0.000 A 
ATOM      6  C   UNL     1       2.985   8.227  17.558  0.00  0.00    +0.000 A 
ATOM      7  C   UNL     1       3.586   6.987  17.876  0.00  0.00    +0.000 A 
ATOM      8  C   UNL     1       4.745   6.547  17.016  0.00  0.00    +0.000 C 
ENDROOT
BRANCH   5   9
ATOM      9  C   UNL     1       1.307  10.048  18.085  0.00  0.00    +0.000 C 
ATOM     10  C   UNL     1       0.453  10.634  18.937  0.00  0.00    +0.000 C 
BRANCH  10  11
ATOM     11  C   UNL     1      -0.266  11.873  18.537  0.00  0.00    +0.000 C 
ATOM     12  O   UNL     1       0.313  12.944  18.365  0.00  0.00    +0.000 OA
BRANCH  11  13
ATOM     13  C   UNL     1      -1.742  11.769  18.364  0.00  0.00    +0.000 A 
ATOM     14  C   UNL     1      -2.576  12.181  19.406  0.00  0.00    +0.000 A 
ATOM     15  C   UNL     1      -3.967  12.087  19.270  0.00  0.00    +0.000 A 
ATOM     16  C   UNL     1      -4.542  11.604  18.087  0.00  0.00    +0.000 A 
ATOM     17  C   UNL     1      -3.702  11.205  17.045  0.00  0.00    +0.000 A 
ATOM     18  C   UNL     1      -2.311  11.296  17.176  0.00  0.00    +0.000 A 
BRANCH  16  19
ATOM     19  S   UNL     1      -6.323  11.478  18.014  0.00  0.00    +0.000 S 
ATOM     20  C   UNL     1      -6.744  10.957  19.701  0.00  0.00    +0.000 C 
ENDBRANCH  16  19
ENDBRANCH  11  13
ENDBRANCH  10  11
ENDBRANCH   5   9
BRANCH   1  21
ATOM     21  O   UNL     1       3.726   4.995  19.142  0.00  0.00    +0.000 OA
BRANCH  21  22
ATOM     22  C   UNL     1       2.932   3.791  19.020  0.00  0.00    +0.000 C 
BRANCH  22  24
ATOM     23  C   UNL     1       2.487   2.808  21.341  0.00  0.00    +0.000 C 
ATOM     24  C   UNL     1       3.386   2.801  20.109  0.00  0.00    +0.000 C 
ENDBRANCH  22  24
BRANCH  22  25
ATOM     25  C   UNL     1       3.147   3.139  17.645  0.00  0.00    +0.000 C 
ATOM     26  O   UNL     1       2.276   2.997  16.797  0.00  0.00    +0.000 OA
BRANCH  25  27
ATOM     27  O   UNL     1       4.415   2.708  17.450  0.00  0.00    +0.000 OA
ATOM     28  H   UNL     1       4.928   3.412  16.992  0.00  0.00    +0.000 HD
ENDBRANCH  25  27
ENDBRANCH  22  25
ENDBRANCH  21  22
ENDBRANCH   1  21
TORSDOF 9
ENDMDL
MODEL 9
REMARK VINA RESULT:      -7.0      0.625      1.996
REMARK  Name = 
REMARK  13 active torsions:
REMARK  status: ('A' for Active; 'I' for Inactive)
REMARK    1  A    between atoms: C_1  and  C_2
REMARK    2  A    between atoms: C_2  and  C_3
REMARK    3  A    between atoms: C_3  and  O_4
REMARK    4  A    between atoms: C_3  and  C_25
REMARK    5  A    between atoms: O_4  and  C_5
REMARK    6  A    between atoms: C_6  and  C_7
REMARK    7  A    between atoms: C_9  and  C_10
REMARK    8  A    between atoms: C_11  and  C_12
REMARK    9  A    between atoms: C_12  and  C_14
REMARK   10  A    between atoms: C_17  and  S_18
REMARK   11  A    between atoms: S_18  and  C_19
REMARK   12  A    between atoms: C_23  and  C_24
REMARK   13  A    between atoms: C_25  and  O_27
REMARK                            x       y       z     vdW  Elec       q    Type
REMARK                         _______ _______ _______ _____ _____    ______ ____
ROOT
ATOM      1  C   UNL     1       2.564   5.133  18.555  0.00  0.00    +0.000 A 
ATOM      2  C   UNL     1       2.804   6.519  18.597  0.00  0.00    +0.000 A 
ATOM      3  C   UNL     1       3.611   7.333  17.626  0.00  0.00    +0.000 C 
ATOM      4  C   UNL     1       2.188   7.298  19.603  0.00  0.00    +0.000 A 
ATOM      5  C   UNL     1       1.260   6.772  20.499  0.00  0.00    +0.000 A 
ATOM      6  C   UNL     1       0.955   5.417  20.394  0.00  0.00    +0.000 A 
ATOM      7  C   UNL     1       1.573   4.598  19.419  0.00  0.00    +0.000 A 
ATOM      8  C   UNL     1       1.109   3.165  19.334  0.00  0.00    +0.000 C 
ENDROOT
BRANCH   5   9
ATOM      9  C   UNL     1       0.641   7.688  21.467  0.00  0.00    +0.000 C 
ATOM     10  C   UNL     1       0.947   8.989  21.567  0.00  0.00    +0.000 C 
BRANCH  10  11
ATOM     11  C   UNL     1       0.371   9.808  22.667  0.00  0.00    +0.000 C 
ATOM     12  O   UNL     1       0.707   9.663  23.840  0.00  0.00    +0.000 OA
BRANCH  11  13
ATOM     13  C   UNL     1      -0.657  10.817  22.289  0.00  0.00    +0.000 A 
ATOM     14  C   UNL     1      -1.560  11.260  23.258  0.00  0.00    +0.000 A 
ATOM     15  C   UNL     1      -2.541  12.203  22.926  0.00  0.00    +0.000 A 
ATOM     16  C   UNL     1      -2.618  12.733  21.631  0.00  0.00    +0.000 A 
ATOM     17  C   UNL     1      -1.704  12.294  20.669  0.00  0.00    +0.000 A 
ATOM     18  C   UNL     1      -0.723  11.351  20.997  0.00  0.00    +0.000 A 
BRANCH  16  19
ATOM     19  S   UNL     1      -3.925  13.900  21.281  0.00  0.00    +0.000 S 
ATOM     20  C   UNL     1      -4.271  14.597  22.921  0.00  0.00    +0.000 C 
ENDBRANCH  16  19
ENDBRANCH  11  13
ENDBRANCH  10  11
ENDBRANCH   5   9
BRANCH   1  21
ATOM     21  O   UNL     1       3.153   4.224  17.701  0.00  0.00    +0.000 OA
BRANCH  21  22
ATOM     22  C   UNL     1       4.488   3.745  17.990  0.00  0.00    +0.000 C 
BRANCH  22  24
ATOM     23  C   UNL     1       5.288   4.837  15.817  0.00  0.00    +0.000 C 
ATOM     24  C   UNL     1       5.235   3.563  16.654  0.00  0.00    +0.000 C 
ENDBRANCH  22  24
BRANCH  22  25
ATOM     25  C   UNL     1       4.433   2.387  18.708  0.00  0.00    +0.000 C 
ATOM     26  O   UNL     1       3.818   1.409  18.303  0.00  0.00    +0.000 OA
BRANCH  25  27
ATOM     27  O   UNL     1       5.128   2.368  19.868  0.00  0.00    +0.000 OA
ATOM     28  H   UNL     1       5.414   3.283  20.089  0.00  0.00    +0.000 HD
ENDBRANCH  25  27
ENDBRANCH  22  25
ENDBRANCH  21  22
ENDBRANCH   1  21
TORSDOF 9
ENDMDL
