MODEL 1
REMARK VINA RESULT:      -8.7      0.000      0.000
REMARK  Name = 
REMARK  3 active torsions:
REMARK  status: ('A' for Active; 'I' for Inactive)
REMARK    1  A    between atoms: C_2  and  C_4
REMARK    2  A    between atoms: C_9  and  S_10
REMARK    3  A    between atoms: S_10  and  N_13
REMARK                            x       y       z     vdW  Elec       q    Type
REMARK                         _______ _______ _______ _____ _____    ______ ____
ROOT
ATOM      1  C   UNL     1       6.482   4.471  15.856  0.00  0.00    +0.000 A 
ATOM      2  C   UNL     1       7.256   4.988  16.902  0.00  0.00    +0.000 A 
ATOM      3  C   UNL     1       6.772   4.944  18.212  0.00  0.00    +0.000 A 
ATOM      4 CL   UNL     1       7.723   5.598  19.487  0.00  0.00    +0.000 Cl
ATOM      5  C   UNL     1       5.519   4.404  18.495  0.00  0.00    +0.000 A 
ATOM      6  C   UNL     1       4.751   3.901  17.445  0.00  0.00    +0.000 A 
ATOM      7  C   UNL     1       5.227   3.918  16.131  0.00  0.00    +0.000 A 
ENDROOT
BRANCH   1   9
ATOM      8  N   UNL     1       6.376   3.656  13.556  0.00  0.00    +0.000 N 
ATOM      9  C   UNL     1       6.907   4.552  14.437  0.00  0.00    +0.000 C 
ATOM     10  O   UNL     1       7.704   5.408  14.064  0.00  0.00    +0.000 OA
ATOM     11  H   UNL     1       6.625   3.788  12.583  0.00  0.00    +0.000 HD
ATOM     12  H   UNL     1       5.563   3.092  13.754  0.00  0.00    +0.000 HD
ENDBRANCH   1   9
BRANCH   6  13
ATOM     13  S   UNL     1       3.117   3.279  17.741  0.00  0.00    +0.000 S 
ATOM     14  O   UNL     1       2.526   3.091  16.436  0.00  0.00    +0.000 OA
ATOM     15  O   UNL     1       3.221   2.189  18.686  0.00  0.00    +0.000 OA
BRANCH  13  16
ATOM     16  N   UNL     1       2.370   4.621  18.546  0.00  0.00    +0.000 NA
ATOM     17  C   UNL     1       2.990   5.926  18.116  0.00  0.00    +0.000 C 
ATOM     18  C   UNL     1       2.332   7.138  18.759  0.00  0.00    +0.000 C 
ATOM     19  O   UNL     1       2.388   7.017  20.177  0.00  0.00    +0.000 OA
ATOM     20  C   UNL     1       1.522   5.955  20.587  0.00  0.00    +0.000 C 
ATOM     21  C   UNL     1       1.990   4.582  20.047  0.00  0.00    +0.000 C 
ATOM     22  C   UNL     1       0.913   3.514  20.433  0.00  0.00    +0.000 C 
ATOM     23  C   UNL     1       1.723   3.207  21.703  0.00  0.00    +0.000 C 
ATOM     24  C   UNL     1       2.957   3.828  21.013  0.00  0.00    +0.000 C 
ENDBRANCH  13  16
ENDBRANCH   6  13
TORSDOF 3
ENDMDL
MODEL 2
REMARK VINA RESULT:      -8.7      2.299      2.679
REMARK  Name = 
REMARK  3 active torsions:
REMARK  status: ('A' for Active; 'I' for Inactive)
REMARK    1  A    between atoms: C_2  and  C_4
REMARK    2  A    between atoms: C_9  and  S_10
REMARK    3  A    between atoms: S_10  and  N_13
REMARK                            x       y       z     vdW  Elec       q    Type
REMARK                         _______ _______ _______ _____ _____    ______ ____
ROOT
ATOM      1  C   UNL     1       6.804   5.900  17.161  0.00  0.00    +0.000 A 
ATOM      2  C   UNL     1       6.866   5.532  15.810  0.00  0.00    +0.000 A 
ATOM      3  C   UNL     1       6.085   4.472  15.343  0.00  0.00    +0.000 A 
ATOM      4 CL   UNL     1       6.183   4.016  13.687  0.00  0.00    +0.000 Cl
ATOM      5  C   UNL     1       5.251   3.762  16.205  0.00  0.00    +0.000 A 
ATOM      6  C   UNL     1       5.203   4.131  17.549  0.00  0.00    +0.000 A 
ATOM      7  C   UNL     1       5.962   5.201  18.030  0.00  0.00    +0.000 A 
ENDROOT
BRANCH   1   9
ATOM      8  N   UNL     1       8.240   6.742  18.947  0.00  0.00    +0.000 N 
ATOM      9  C   UNL     1       7.659   6.968  17.733  0.00  0.00    +0.000 C 
ATOM     10  O   UNL     1       7.849   8.019  17.128  0.00  0.00    +0.000 OA
ATOM     11  H   UNL     1       8.880   7.457  19.273  0.00  0.00    +0.000 HD
ATOM     12  H   UNL     1       8.305   5.831  19.375  0.00  0.00    +0.000 HD
ENDBRANCH   1   9
BRANCH   6  13
ATOM     13  S   UNL     1       4.220   3.208  18.702  0.00  0.00    +0.000 S 
ATOM     14  O   UNL     1       3.650   2.116  17.946  0.00  0.00    +0.000 OA
ATOM     15  O   UNL     1       5.023   2.972  19.881  0.00  0.00    +0.000 OA
BRANCH  13  16
ATOM     16  N   UNL     1       2.987   4.357  19.111  0.00  0.00    +0.000 NA
ATOM     17  C   UNL     1       3.515   5.767  19.046  0.00  0.00    +0.000 C 
ATOM     18  C   UNL     1       2.455   6.815  19.349  0.00  0.00    +0.000 C 
ATOM     19  O   UNL     1       1.889   6.567  20.633  0.00  0.00    +0.000 OA
ATOM     20  C   UNL     1       1.114   5.366  20.574  0.00  0.00    +0.000 C 
ATOM     21  C   UNL     1       1.988   4.124  20.272  0.00  0.00    +0.000 C 
ATOM     22  C   UNL     1       1.040   2.892  20.096  0.00  0.00    +0.000 C 
ATOM     23  C   UNL     1       1.234   2.573  21.587  0.00  0.00    +0.000 C 
ATOM     24  C   UNL     1       2.528   3.414  21.553  0.00  0.00    +0.000 C 
ENDBRANCH  13  16
ENDBRANCH   6  13
TORSDOF 3
ENDMDL
MODEL 3
REMARK VINA RESULT:      -8.4      0.959      1.055
REMARK  Name = 
REMARK  3 active torsions:
REMARK  status: ('A' for Active; 'I' for Inactive)
REMARK    1  A    between atoms: C_2  and  C_4
REMARK    2  A    between atoms: C_9  and  S_10
REMARK    3  A    between atoms: S_10  and  N_13
REMARK                            x       y       z     vdW  Elec       q    Type
REMARK                         _______ _______ _______ _____ _____    ______ ____
ROOT
ATOM      1  C   UNL     1       6.631   4.754  15.806  0.00  0.00    +0.000 A 
ATOM      2  C   UNL     1       7.381   5.720  16.488  0.00  0.00    +0.000 A 
ATOM      3  C   UNL     1       7.221   5.876  17.867  0.00  0.00    +0.000 A 
ATOM      4 CL   UNL     1       8.134   7.078  18.693  0.00  0.00    +0.000 Cl
ATOM      5  C   UNL     1       6.313   5.093  18.577  0.00  0.00    +0.000 A 
ATOM      6  C   UNL     1       5.564   4.140  17.887  0.00  0.00    +0.000 A 
ATOM      7  C   UNL     1       5.724   3.956  16.511  0.00  0.00    +0.000 A 
ENDROOT
BRANCH   1   9
ATOM      8  N   UNL     1       6.040   3.533  13.776  0.00  0.00    +0.000 N 
ATOM      9  C   UNL     1       6.701   4.587  14.334  0.00  0.00    +0.000 C 
ATOM     10  O   UNL     1       7.326   5.381  13.636  0.00  0.00    +0.000 OA
ATOM     11  H   UNL     1       6.042   3.493  12.763  0.00  0.00    +0.000 HD
ATOM     12  H   UNL     1       5.338   2.992  14.260  0.00  0.00    +0.000 HD
ENDBRANCH   1   9
BRANCH   6  13
ATOM     13  S   UNL     1       4.337   3.175  18.729  0.00  0.00    +0.000 S 
ATOM     14  O   UNL     1       3.861   2.213  17.761  0.00  0.00    +0.000 OA
ATOM     15  O   UNL     1       4.894   2.758  19.997  0.00  0.00    +0.000 OA
BRANCH  13  16
ATOM     16  N   UNL     1       3.111   4.361  19.043  0.00  0.00    +0.000 NA
ATOM     17  C   UNL     1       3.670   5.758  18.950  0.00  0.00    +0.000 C 
ATOM     18  C   UNL     1       2.618   6.836  19.168  0.00  0.00    +0.000 C 
ATOM     19  O   UNL     1       1.993   6.645  20.434  0.00  0.00    +0.000 OA
ATOM     20  C   UNL     1       1.197   5.458  20.385  0.00  0.00    +0.000 C 
ATOM     21  C   UNL     1       2.059   4.190  20.166  0.00  0.00    +0.000 C 
ATOM     22  C   UNL     1       1.094   2.969  19.993  0.00  0.00    +0.000 C 
ATOM     23  C   UNL     1       1.218   2.702  21.502  0.00  0.00    +0.000 C 
ATOM     24  C   UNL     1       2.529   3.517  21.494  0.00  0.00    +0.000 C 
ENDBRANCH  13  16
ENDBRANCH   6  13
TORSDOF 3
ENDMDL
MODEL 4
REMARK VINA RESULT:      -8.4      2.277      2.702
REMARK  Name = 
REMARK  3 active torsions:
REMARK  status: ('A' for Active; 'I' for Inactive)
REMARK    1  A    between atoms: C_2  and  C_4
REMARK    2  A    between atoms: C_9  and  S_10
REMARK    3  A    between atoms: S_10  and  N_13
REMARK                            x       y       z     vdW  Elec       q    Type
REMARK                         _______ _______ _______ _____ _____    ______ ____
ROOT
ATOM      1  C   UNL     1       6.746   5.302  18.004  0.00  0.00    +0.000 A 
ATOM      2  C   UNL     1       7.194   5.304  16.676  0.00  0.00    +0.000 A 
ATOM      3  C   UNL     1       6.384   4.773  15.670  0.00  0.00    +0.000 A 
ATOM      4 CL   UNL     1       6.951   4.764  14.045  0.00  0.00    +0.000 Cl
ATOM      5  C   UNL     1       5.137   4.227  15.966  0.00  0.00    +0.000 A 
ATOM      6  C   UNL     1       4.704   4.221  17.292  0.00  0.00    +0.000 A 
ATOM      7  C   UNL     1       5.492   4.765  18.310  0.00  0.00    +0.000 A 
ENDROOT
BRANCH   1   9
ATOM      8  N   UNL     1       8.333   6.909  18.932  0.00  0.00    +0.000 N 
ATOM      9  C   UNL     1       7.586   5.784  19.127  0.00  0.00    +0.000 C 
ATOM     10  O   UNL     1       7.600   5.196  20.204  0.00  0.00    +0.000 OA
ATOM     11  H   UNL     1       8.833   7.256  19.743  0.00  0.00    +0.000 HD
ATOM     12  H   UNL     1       8.190   7.550  18.166  0.00  0.00    +0.000 HD
ENDBRANCH   1   9
BRANCH   6  13
ATOM     13  S   UNL     1       3.162   3.464  17.733  0.00  0.00    +0.000 S 
ATOM     14  O   UNL     1       2.491   3.182  16.484  0.00  0.00    +0.000 OA
ATOM     15  O   UNL     1       3.439   2.419  18.693  0.00  0.00    +0.000 OA
BRANCH  13  16
ATOM     16  N   UNL     1       2.359   4.759  18.562  0.00  0.00    +0.000 NA
ATOM     17  C   UNL     1       2.919   6.097  18.152  0.00  0.00    +0.000 C 
ATOM     18  C   UNL     1       2.211   7.268  18.816  0.00  0.00    +0.000 C 
ATOM     19  O   UNL     1       2.277   7.127  20.232  0.00  0.00    +0.000 OA
ATOM     20  C   UNL     1       1.459   6.021  20.627  0.00  0.00    +0.000 C 
ATOM     21  C   UNL     1       1.986   4.678  20.063  0.00  0.00    +0.000 C 
ATOM     22  C   UNL     1       0.959   3.558  20.434  0.00  0.00    +0.000 C 
ATOM     23  C   UNL     1       1.786   3.266  21.697  0.00  0.00    +0.000 C 
ATOM     24  C   UNL     1       2.989   3.952  21.014  0.00  0.00    +0.000 C 
ENDBRANCH  13  16
ENDBRANCH   6  13
TORSDOF 3
ENDMDL
MODEL 5
REMARK VINA RESULT:      -8.3      0.987      2.232
REMARK  Name = 
REMARK  3 active torsions:
REMARK  status: ('A' for Active; 'I' for Inactive)
REMARK    1  A    between atoms: C_2  and  C_4
REMARK    2  A    between atoms: C_9  and  S_10
REMARK    3  A    between atoms: S_10  and  N_13
REMARK                            x       y       z     vdW  Elec       q    Type
REMARK                         _______ _______ _______ _____ _____    ______ ____
ROOT
ATOM      1  C   UNL     1       6.632   4.462  15.699  0.00  0.00    +0.000 A 
ATOM      2  C   UNL     1       7.387   5.059  16.718  0.00  0.00    +0.000 A 
ATOM      3  C   UNL     1       6.973   4.943  18.047  0.00  0.00    +0.000 A 
ATOM      4 CL   UNL     1       7.897   5.694  19.289  0.00  0.00    +0.000 Cl
ATOM      5  C   UNL     1       5.809   4.252  18.378  0.00  0.00    +0.000 A 
ATOM      6  C   UNL     1       5.059   3.669  17.356  0.00  0.00    +0.000 A 
ATOM      7  C   UNL     1       5.468   3.758  16.023  0.00  0.00    +0.000 A 
ENDROOT
BRANCH   1   9
ATOM      8  N   UNL     1       6.401   3.750  13.375  0.00  0.00    +0.000 N 
ATOM      9  C   UNL     1       6.977   4.609  14.265  0.00  0.00    +0.000 C 
ATOM     10  O   UNL     1       7.749   5.485  13.886  0.00  0.00    +0.000 OA
ATOM     11  H   UNL     1       6.596   3.926  12.396  0.00  0.00    +0.000 HD
ATOM     12  H   UNL     1       5.603   3.171  13.592  0.00  0.00    +0.000 HD
ENDBRANCH   1   9
BRANCH   6  13
ATOM     13  S   UNL     1       3.528   2.850  17.716  0.00  0.00    +0.000 S 
ATOM     14  O   UNL     1       2.626   3.217  16.648  0.00  0.00    +0.000 OA
ATOM     15  O   UNL     1       3.824   1.466  18.011  0.00  0.00    +0.000 OA
BRANCH  13  16
ATOM     16  N   UNL     1       3.051   3.627  19.192  0.00  0.00    +0.000 NA
ATOM     17  C   UNL     1       2.316   2.671  20.095  0.00  0.00    +0.000 C 
ATOM     18  C   UNL     1       1.921   3.294  21.426  0.00  0.00    +0.000 C 
ATOM     19  O   UNL     1       1.126   4.453  21.195  0.00  0.00    +0.000 OA
ATOM     20  C   UNL     1       1.949   5.473  20.620  0.00  0.00    +0.000 C 
ATOM     21  C   UNL     1       2.487   5.068  19.226  0.00  0.00    +0.000 C 
ATOM     22  C   UNL     1       3.476   6.182  18.744  0.00  0.00    +0.000 C 
ATOM     23  C   UNL     1       2.304   6.857  18.013  0.00  0.00    +0.000 C 
ATOM     24  C   UNL     1       1.560   5.505  18.048  0.00  0.00    +0.000 C 
ENDBRANCH  13  16
ENDBRANCH   6  13
TORSDOF 3
ENDMDL
MODEL 6
REMARK VINA RESULT:      -8.1      2.474      3.505
REMARK  Name = 
REMARK  3 active torsions:
REMARK  status: ('A' for Active; 'I' for Inactive)
REMARK    1  A    between atoms: C_2  and  C_4
REMARK    2  A    between atoms: C_9  and  S_10
REMARK    3  A    between atoms: S_10  and  N_13
REMARK                            x       y       z     vdW  Elec       q    Type
REMARK                         _______ _______ _______ _____ _____    ______ ____
ROOT
ATOM      1  C   UNL     1       6.895   5.217  17.989  0.00  0.00    +0.000 A 
ATOM      2  C   UNL     1       7.314   5.346  16.659  0.00  0.00    +0.000 A 
ATOM      3  C   UNL     1       6.574   4.747  15.637  0.00  0.00    +0.000 A 
ATOM      4 CL   UNL     1       7.108   4.895  14.008  0.00  0.00    +0.000 Cl
ATOM      5  C   UNL     1       5.427   4.008  15.920  0.00  0.00    +0.000 A 
ATOM      6  C   UNL     1       5.022   3.878  17.248  0.00  0.00    +0.000 A 
ATOM      7  C   UNL     1       5.739   4.487  18.282  0.00  0.00    +0.000 A 
ENDROOT
BRANCH   1   9
ATOM      8  N   UNL     1       8.352   6.935  18.931  0.00  0.00    +0.000 N 
ATOM      9  C   UNL     1       7.673   5.768  19.125  0.00  0.00    +0.000 C 
ATOM     10  O   UNL     1       7.698   5.196  20.211  0.00  0.00    +0.000 OA
ATOM     11  H   UNL     1       8.809   7.324  19.748  0.00  0.00    +0.000 HD
ATOM     12  H   UNL     1       8.189   7.555  18.151  0.00  0.00    +0.000 HD
ENDBRANCH   1   9
BRANCH   6  13
ATOM     13  S   UNL     1       3.617   2.882  17.669  0.00  0.00    +0.000 S 
ATOM     14  O   UNL     1       2.626   3.150  16.652  0.00  0.00    +0.000 OA
ATOM     15  O   UNL     1       4.087   1.539  17.930  0.00  0.00    +0.000 OA
BRANCH  13  16
ATOM     16  N   UNL     1       3.127   3.584  19.178  0.00  0.00    +0.000 NA
ATOM     17  C   UNL     1       2.484   2.555  20.072  0.00  0.00    +0.000 C 
ATOM     18  C   UNL     1       2.082   3.114  21.429  0.00  0.00    +0.000 C 
ATOM     19  O   UNL     1       1.202   4.220  21.250  0.00  0.00    +0.000 OA
ATOM     20  C   UNL     1       1.936   5.310  20.684  0.00  0.00    +0.000 C 
ATOM     21  C   UNL     1       2.464   4.981  19.266  0.00  0.00    +0.000 C 
ATOM     22  C   UNL     1       3.359   6.173  18.791  0.00  0.00    +0.000 C 
ATOM     23  C   UNL     1       2.124   6.783  18.109  0.00  0.00    +0.000 C 
ATOM     24  C   UNL     1       1.478   5.382  18.124  0.00  0.00    +0.000 C 
ENDBRANCH  13  16
ENDBRANCH   6  13
TORSDOF 3
ENDMDL
MODEL 7
REMARK VINA RESULT:      -7.9      2.611      3.566
REMARK  Name = 
REMARK  3 active torsions:
REMARK  status: ('A' for Active; 'I' for Inactive)
REMARK    1  A    between atoms: C_2  and  C_4
REMARK    2  A    between atoms: C_9  and  S_10
REMARK    3  A    between atoms: S_10  and  N_13
REMARK                            x       y       z     vdW  Elec       q    Type
REMARK                         _______ _______ _______ _____ _____    ______ ____
ROOT
ATOM      1  C   UNL     1       6.775   5.470  17.946  0.00  0.00    +0.000 A 
ATOM      2  C   UNL     1       7.232   5.441  16.622  0.00  0.00    +0.000 A 
ATOM      3  C   UNL     1       6.428   4.889  15.622  0.00  0.00    +0.000 A 
ATOM      4 CL   UNL     1       7.006   4.842  14.002  0.00  0.00    +0.000 Cl
ATOM      5  C   UNL     1       5.179   4.350  15.922  0.00  0.00    +0.000 A 
ATOM      6  C   UNL     1       4.736   4.375  17.245  0.00  0.00    +0.000 A 
ATOM      7  C   UNL     1       5.517   4.941  18.255  0.00  0.00    +0.000 A 
ENDROOT
BRANCH   1   9
ATOM      8  N   UNL     1       8.340   7.108  18.855  0.00  0.00    +0.000 N 
ATOM      9  C   UNL     1       7.607   5.977  19.063  0.00  0.00    +0.000 C 
ATOM     10  O   UNL     1       7.627   5.403  20.148  0.00  0.00    +0.000 OA
ATOM     11  H   UNL     1       8.836   7.471  19.661  0.00  0.00    +0.000 HD
ATOM     12  H   UNL     1       8.191   7.737  18.080  0.00  0.00    +0.000 HD
ENDBRANCH   1   9
BRANCH   6  13
ATOM     13  S   UNL     1       3.191   3.629  17.692  0.00  0.00    +0.000 S 
ATOM     14  O   UNL     1       2.177   4.614  17.389  0.00  0.00    +0.000 OA
ATOM     15  O   UNL     1       3.152   2.305  17.114  0.00  0.00    +0.000 OA
BRANCH  13  16
ATOM     16  N   UNL     1       3.364   3.463  19.410  0.00  0.00    +0.000 NA
ATOM     17  C   UNL     1       3.824   2.075  19.778  0.00  0.00    +0.000 C 
ATOM     18  C   UNL     1       4.039   1.896  21.273  0.00  0.00    +0.000 C 
ATOM     19  O   UNL     1       2.838   2.211  21.971  0.00  0.00    +0.000 OA
ATOM     20  C   UNL     1       2.598   3.618  21.871  0.00  0.00    +0.000 C 
ATOM     21  C   UNL     1       2.343   4.061  20.409  0.00  0.00    +0.000 C 
ATOM     22  C   UNL     1       2.226   5.622  20.387  0.00  0.00    +0.000 C 
ATOM     23  C   UNL     1       0.703   5.475  20.529  0.00  0.00    +0.000 C 
ATOM     24  C   UNL     1       0.836   4.031  20.001  0.00  0.00    +0.000 C 
ENDBRANCH  13  16
ENDBRANCH   6  13
TORSDOF 3
ENDMDL
MODEL 8
REMARK VINA RESULT:      -7.8      1.463      2.447
REMARK  Name = 
REMARK  3 active torsions:
REMARK  status: ('A' for Active; 'I' for Inactive)
REMARK    1  A    between atoms: C_2  and  C_4
REMARK    2  A    between atoms: C_9  and  S_10
REMARK    3  A    between atoms: S_10  and  N_13
REMARK                            x       y       z     vdW  Elec       q    Type
REMARK                         _______ _______ _______ _____ _____    ______ ____
ROOT
ATOM      1  C   UNL     1       6.522   4.687  15.518  0.00  0.00    +0.000 A 
ATOM      2  C   UNL     1       7.351   5.302  16.466  0.00  0.00    +0.000 A 
ATOM      3  C   UNL     1       6.931   5.401  17.794  0.00  0.00    +0.000 A 
ATOM      4 CL   UNL     1       7.949   6.175  18.946  0.00  0.00    +0.000 Cl
ATOM      5  C   UNL     1       5.691   4.908  18.193  0.00  0.00    +0.000 A 
ATOM      6  C   UNL     1       4.869   4.306  17.241  0.00  0.00    +0.000 A 
ATOM      7  C   UNL     1       5.279   4.180  15.911  0.00  0.00    +0.000 A 
ENDROOT
BRANCH   1   9
ATOM      8  N   UNL     1       7.811   5.486  13.605  0.00  0.00    +0.000 N 
ATOM      9  C   UNL     1       6.877   4.613  14.080  0.00  0.00    +0.000 C 
ATOM     10  O   UNL     1       6.354   3.784  13.341  0.00  0.00    +0.000 OA
ATOM     11  H   UNL     1       8.088   5.358  12.638  0.00  0.00    +0.000 HD
ATOM     12  H   UNL     1       8.427   6.023  14.197  0.00  0.00    +0.000 HD
ENDBRANCH   1   9
BRANCH   6  13
ATOM     13  S   UNL     1       3.248   3.737  17.680  0.00  0.00    +0.000 S 
ATOM     14  O   UNL     1       2.356   4.840  17.406  0.00  0.00    +0.000 OA
ATOM     15  O   UNL     1       3.052   2.439  17.072  0.00  0.00    +0.000 OA
BRANCH  13  16
ATOM     16  N   UNL     1       3.406   3.511  19.393  0.00  0.00    +0.000 NA
ATOM     17  C   UNL     1       3.954   2.143  19.712  0.00  0.00    +0.000 C 
ATOM     18  C   UNL     1       4.158   1.917  21.203  0.00  0.00    +0.000 C 
ATOM     19  O   UNL     1       2.927   2.120  21.891  0.00  0.00    +0.000 OA
ATOM     20  C   UNL     1       2.593   3.510  21.843  0.00  0.00    +0.000 C 
ATOM     21  C   UNL     1       2.331   3.996  20.397  0.00  0.00    +0.000 C 
ATOM     22  C   UNL     1       2.107   5.544  20.435  0.00  0.00    +0.000 C 
ATOM     23  C   UNL     1       0.595   5.289  20.544  0.00  0.00    +0.000 C 
ATOM     24  C   UNL     1       0.836   3.880  19.960  0.00  0.00    +0.000 C 
ENDBRANCH  13  16
ENDBRANCH   6  13
TORSDOF 3
ENDMDL
MODEL 9
REMARK VINA RESULT:      -7.8      2.652      3.585
REMARK  Name = 
REMARK  3 active torsions:
REMARK  status: ('A' for Active; 'I' for Inactive)
REMARK    1  A    between atoms: C_2  and  C_4
REMARK    2  A    between atoms: C_9  and  S_10
REMARK    3  A    between atoms: S_10  and  N_13
REMARK                            x       y       z     vdW  Elec       q    Type
REMARK                         _______ _______ _______ _____ _____    ______ ____
ROOT
ATOM      1  C   UNL     1       6.851   5.354  18.144  0.00  0.00    +0.000 A 
ATOM      2  C   UNL     1       6.722   5.516  16.758  0.00  0.00    +0.000 A 
ATOM      3  C   UNL     1       5.836   4.705  16.045  0.00  0.00    +0.000 A 
ATOM      4 CL   UNL     1       5.698   4.899  14.341  0.00  0.00    +0.000 Cl
ATOM      5  C   UNL     1       5.085   3.723  16.689  0.00  0.00    +0.000 A 
ATOM      6  C   UNL     1       5.227   3.564  18.067  0.00  0.00    +0.000 A 
ATOM      7  C   UNL     1       6.094   4.379  18.800  0.00  0.00    +0.000 A 
ENDROOT
BRANCH   1   9
ATOM      8  N   UNL     1       8.290   5.579  20.104  0.00  0.00    +0.000 N 
ATOM      9  C   UNL     1       7.824   6.133  18.948  0.00  0.00    +0.000 C 
ATOM     10  O   UNL     1       8.209   7.238  18.577  0.00  0.00    +0.000 OA
ATOM     11  H   UNL     1       9.011   6.101  20.588  0.00  0.00    +0.000 HD
ATOM     12  H   UNL     1       8.188   4.602  20.337  0.00  0.00    +0.000 HD
ENDBRANCH   1   9
BRANCH   6  13
ATOM     13  S   UNL     1       4.356   2.277  18.920  0.00  0.00    +0.000 S 
ATOM     14  O   UNL     1       3.624   1.556  17.903  0.00  0.00    +0.000 OA
ATOM     15  O   UNL     1       5.296   1.606  19.791  0.00  0.00    +0.000 OA
BRANCH  13  16
ATOM     16  N   UNL     1       3.261   3.188  19.909  0.00  0.00    +0.000 NA
ATOM     17  C   UNL     1       2.925   2.444  21.176  0.00  0.00    +0.000 C 
ATOM     18  C   UNL     1       2.005   3.227  22.101  0.00  0.00    +0.000 C 
ATOM     19  O   UNL     1       0.809   3.571  21.407  0.00  0.00    +0.000 OA
ATOM     20  C   UNL     1       1.117   4.540  20.402  0.00  0.00    +0.000 C 
ATOM     21  C   UNL     1       2.063   3.971  19.316  0.00  0.00    +0.000 C 
ATOM     22  C   UNL     1       2.446   5.136  18.344  0.00  0.00    +0.000 C 
ATOM     23  C   UNL     1       1.276   4.718  17.438  0.00  0.00    +0.000 C 
ATOM     24  C   UNL     1       1.311   3.328  18.108  0.00  0.00    +0.000 C 
ENDBRANCH  13  16
ENDBRANCH   6  13
TORSDOF 3
ENDMDL
