MODEL 1
REMARK VINA RESULT:      -7.9      0.000      0.000
REMARK  Name = 
REMARK  6 active torsions:
REMARK  status: ('A' for Active; 'I' for Inactive)
REMARK    1  A    between atoms: C_1  and  O_2
REMARK    2  A    between atoms: O_2  and  C_3
REMARK    3  A    between atoms: C_8  and  O_9
REMARK    4  A    between atoms: O_9  and  C_10
REMARK    5  A    between atoms: N_15  and  C_16
REMARK    6  A    between atoms: C_16  and  C_17
REMARK                            x       y       z     vdW  Elec       q    Type
REMARK                         _______ _______ _______ _____ _____    ______ ____
ROOT
ATOM      1  C   UNL     1       2.759   3.808  20.454  0.00  0.00    +0.000 A 
ATOM      2  C   UNL     1       2.177   4.956  21.023  0.00  0.00    +0.000 A 
ATOM      3  C   UNL     1       2.175   6.131  20.296  0.00  0.00    +0.000 A 
ATOM      4  C   UNL     1       2.836   6.194  19.048  0.00  0.00    +0.000 A 
ATOM      5  C   UNL     1       3.501   5.115  18.519  0.00  0.00    +0.000 A 
ATOM      6  C   UNL     1       3.461   3.898  19.222  0.00  0.00    +0.000 A 
ATOM      7  C   UNL     1       2.560   7.498  18.561  0.00  0.00    +0.000 A 
ATOM      8  N   UNL     1       2.751   8.271  17.478  0.00  0.00    +0.000 N 
ATOM      9  N   UNL     1       2.091   9.454  17.590  0.00  0.00    +0.000 NA
ATOM     10  C   UNL     1       1.463   9.389  18.776  0.00  0.00    +0.000 A 
ATOM     11  N   UNL     1       0.641  10.363  19.223  0.00  0.00    +0.000 N 
ATOM     12  C   UNL     1       1.757   8.183  19.431  0.00  0.00    +0.000 A 
ATOM     13  C   UNL     1       1.435   7.425  20.662  0.00  0.00    +0.000 C 
ATOM     14  H   UNL     1       3.277   8.082  16.632  0.00  0.00    +0.000 HD
ATOM     15  H   UNL     1       0.433  11.056  18.510  0.00  0.00    +0.000 HD
ENDROOT
BRANCH   1  17
ATOM     16  C   UNL     1       1.490   2.438  21.913  0.00  0.00    +0.000 C 
ATOM     17  O   UNL     1       2.651   2.598  21.093  0.00  0.00    +0.000 OA
ENDBRANCH   1  17
BRANCH   6  18
ATOM     18  O   UNL     1       4.126   2.911  18.541  0.00  0.00    +0.000 OA
ATOM     19  C   UNL     1       3.389   1.885  17.899  0.00  0.00    +0.000 C 
ENDBRANCH   6  18
BRANCH  11  20
ATOM     20  C   UNL     1      -0.481  10.034  20.078  0.00  0.00    +0.000 C 
BRANCH  20  21
ATOM     21  C   UNL     1      -0.955  11.228  20.861  0.00  0.00    +0.000 A 
ATOM     22  C   UNL     1      -0.887  11.254  22.268  0.00  0.00    +0.000 A 
ATOM     23 CL   UNL     1      -0.332   9.897  23.186  0.00  0.00    +0.000 Cl
ATOM     24  C   UNL     1      -1.263  12.394  22.989  0.00  0.00    +0.000 A 
ATOM     25  C   UNL     1      -1.730  13.526  22.327  0.00  0.00    +0.000 A 
ATOM     26  C   UNL     1      -1.835  13.511  20.940  0.00  0.00    +0.000 A 
ATOM     27  C   UNL     1      -1.458  12.374  20.213  0.00  0.00    +0.000 A 
ATOM     28 CL   UNL     1      -1.625  12.463  18.492  0.00  0.00    +0.000 Cl
ENDBRANCH  20  21
ENDBRANCH  11  20
TORSDOF 4
ENDMDL
MODEL 2
REMARK VINA RESULT:      -7.9      0.112      1.797
REMARK  Name = 
REMARK  6 active torsions:
REMARK  status: ('A' for Active; 'I' for Inactive)
REMARK    1  A    between atoms: C_1  and  O_2
REMARK    2  A    between atoms: O_2  and  C_3
REMARK    3  A    between atoms: C_8  and  O_9
REMARK    4  A    between atoms: O_9  and  C_10
REMARK    5  A    between atoms: N_15  and  C_16
REMARK    6  A    between atoms: C_16  and  C_17
REMARK                            x       y       z     vdW  Elec       q    Type
REMARK                         _______ _______ _______ _____ _____    ______ ____
ROOT
ATOM      1  C   UNL     1       2.769   3.813  20.361  0.00  0.00    +0.000 A 
ATOM      2  C   UNL     1       2.183   4.953  20.941  0.00  0.00    +0.000 A 
ATOM      3  C   UNL     1       2.184   6.137  20.231  0.00  0.00    +0.000 A 
ATOM      4  C   UNL     1       2.852   6.217  18.987  0.00  0.00    +0.000 A 
ATOM      5  C   UNL     1       3.520   5.146  18.447  0.00  0.00    +0.000 A 
ATOM      6  C   UNL     1       3.477   3.920  19.133  0.00  0.00    +0.000 A 
ATOM      7  C   UNL     1       2.578   7.527  18.516  0.00  0.00    +0.000 A 
ATOM      8  N   UNL     1       2.774   8.315  17.444  0.00  0.00    +0.000 N 
ATOM      9  N   UNL     1       2.113   9.497  17.569  0.00  0.00    +0.000 NA
ATOM     10  C   UNL     1       1.480   9.415  18.750  0.00  0.00    +0.000 A 
ATOM     11  N   UNL     1       0.655  10.383  19.207  0.00  0.00    +0.000 N 
ATOM     12  C   UNL     1       1.770   8.201  19.391  0.00  0.00    +0.000 A 
ATOM     13  C   UNL     1       1.442   7.426  20.610  0.00  0.00    +0.000 C 
ATOM     14  H   UNL     1       3.305   8.138  16.599  0.00  0.00    +0.000 HD
ATOM     15  H   UNL     1       0.450  11.085  18.502  0.00  0.00    +0.000 HD
ENDROOT
BRANCH   1  17
ATOM     16  C   UNL     1       1.517   2.440  21.831  0.00  0.00    +0.000 C 
ATOM     17  O   UNL     1       2.658   2.594  20.982  0.00  0.00    +0.000 OA
ENDBRANCH   1  17
BRANCH   6  18
ATOM     18  O   UNL     1       4.146   2.941  18.442  0.00  0.00    +0.000 OA
ATOM     19  C   UNL     1       3.448   1.784  18.018  0.00  0.00    +0.000 C 
ENDBRANCH   6  18
BRANCH  11  20
ATOM     20  C   UNL     1      -0.472  10.042  20.051  0.00  0.00    +0.000 C 
BRANCH  20  21
ATOM     21  C   UNL     1      -0.917  11.212  20.886  0.00  0.00    +0.000 A 
ATOM     22  C   UNL     1      -1.427  12.383  20.293  0.00  0.00    +0.000 A 
ATOM     23 CL   UNL     1      -1.503  12.585  18.576  0.00  0.00    +0.000 Cl
ATOM     24  C   UNL     1      -1.905  13.442  21.075  0.00  0.00    +0.000 A 
ATOM     25  C   UNL     1      -1.871  13.363  22.465  0.00  0.00    +0.000 A 
ATOM     26  C   UNL     1      -1.342  12.228  23.072  0.00  0.00    +0.000 A 
ATOM     27  C   UNL     1      -0.864  11.166  22.294  0.00  0.00    +0.000 A 
ATOM     28 CL   UNL     1      -0.231   9.801  23.151  0.00  0.00    +0.000 Cl
ENDBRANCH  20  21
ENDBRANCH  11  20
TORSDOF 4
ENDMDL
MODEL 3
REMARK VINA RESULT:      -7.6      3.858      8.177
REMARK  Name = 
REMARK  6 active torsions:
REMARK  status: ('A' for Active; 'I' for Inactive)
REMARK    1  A    between atoms: C_1  and  O_2
REMARK    2  A    between atoms: O_2  and  C_3
REMARK    3  A    between atoms: C_8  and  O_9
REMARK    4  A    between atoms: O_9  and  C_10
REMARK    5  A    between atoms: N_15  and  C_16
REMARK    6  A    between atoms: C_16  and  C_17
REMARK                            x       y       z     vdW  Elec       q    Type
REMARK                         _______ _______ _______ _____ _____    ______ ____
ROOT
ATOM      1  C   UNL     1      -0.630  11.285  22.257  0.00  0.00    +0.000 A 
ATOM      2  C   UNL     1      -0.318   9.929  22.051  0.00  0.00    +0.000 A 
ATOM      3  C   UNL     1       0.321   9.563  20.882  0.00  0.00    +0.000 A 
ATOM      4  C   UNL     1       0.563  10.526  19.875  0.00  0.00    +0.000 A 
ATOM      5  C   UNL     1       0.175  11.836  20.009  0.00  0.00    +0.000 A 
ATOM      6  C   UNL     1      -0.425  12.232  21.217  0.00  0.00    +0.000 A 
ATOM      7  C   UNL     1       1.295   9.828  18.880  0.00  0.00    +0.000 A 
ATOM      8  N   UNL     1       1.928  10.032  17.711  0.00  0.00    +0.000 N 
ATOM      9  N   UNL     1       2.581   8.913  17.297  0.00  0.00    +0.000 NA
ATOM     10  C   UNL     1       2.349   8.003  18.258  0.00  0.00    +0.000 A 
ATOM     11  N   UNL     1       2.892   6.766  18.239  0.00  0.00    +0.000 N 
ATOM     12  C   UNL     1       1.520   8.532  19.258  0.00  0.00    +0.000 A 
ATOM     13  C   UNL     1       0.903   8.180  20.559  0.00  0.00    +0.000 C 
ATOM     14  H   UNL     1       1.991  10.872  17.147  0.00  0.00    +0.000 HD
ATOM     15  H   UNL     1       3.601   6.662  17.520  0.00  0.00    +0.000 HD
ENDROOT
BRANCH   1  17
ATOM     16  C   UNL     1      -2.547  11.938  23.489  0.00  0.00    +0.000 C 
ATOM     17  O   UNL     1      -1.137  11.696  23.464  0.00  0.00    +0.000 OA
ENDBRANCH   1  17
BRANCH   6  18
ATOM     18  O   UNL     1      -0.707  13.575  21.213  0.00  0.00    +0.000 OA
ATOM     19  C   UNL     1      -1.032  14.217  19.993  0.00  0.00    +0.000 C 
ENDBRANCH   6  18
BRANCH  11  20
ATOM     20  C   UNL     1       3.200   6.087  19.481  0.00  0.00    +0.000 C 
BRANCH  20  21
ATOM     21  C   UNL     1       3.204   4.592  19.313  0.00  0.00    +0.000 A 
ATOM     22  C   UNL     1       2.097   3.809  19.698  0.00  0.00    +0.000 A 
ATOM     23 CL   UNL     1       0.702   4.500  20.454  0.00  0.00    +0.000 Cl
ATOM     24  C   UNL     1       2.076   2.427  19.476  0.00  0.00    +0.000 A 
ATOM     25  C   UNL     1       3.162   1.792  18.880  0.00  0.00    +0.000 A 
ATOM     26  C   UNL     1       4.279   2.540  18.521  0.00  0.00    +0.000 A 
ATOM     27  C   UNL     1       4.304   3.923  18.740  0.00  0.00    +0.000 A 
ATOM     28 CL   UNL     1       5.740   4.759  18.253  0.00  0.00    +0.000 Cl
ENDBRANCH  20  21
ENDBRANCH  11  20
TORSDOF 4
ENDMDL
MODEL 4
REMARK VINA RESULT:      -7.5      3.970      8.332
REMARK  Name = 
REMARK  6 active torsions:
REMARK  status: ('A' for Active; 'I' for Inactive)
REMARK    1  A    between atoms: C_1  and  O_2
REMARK    2  A    between atoms: O_2  and  C_3
REMARK    3  A    between atoms: C_8  and  O_9
REMARK    4  A    between atoms: O_9  and  C_10
REMARK    5  A    between atoms: N_15  and  C_16
REMARK    6  A    between atoms: C_16  and  C_17
REMARK                            x       y       z     vdW  Elec       q    Type
REMARK                         _______ _______ _______ _____ _____    ______ ____
ROOT
ATOM      1  C   UNL     1      -0.758  11.834  22.249  0.00  0.00    +0.000 A 
ATOM      2  C   UNL     1      -0.505  10.458  22.100  0.00  0.00    +0.000 A 
ATOM      3  C   UNL     1       0.127  10.019  20.953  0.00  0.00    +0.000 A 
ATOM      4  C   UNL     1       0.421  10.929  19.912  0.00  0.00    +0.000 A 
ATOM      5  C   UNL     1       0.091  12.259  19.990  0.00  0.00    +0.000 A 
ATOM      6  C   UNL     1      -0.501  12.729  21.176  0.00  0.00    +0.000 A 
ATOM      7  C   UNL     1       1.130  10.160  18.952  0.00  0.00    +0.000 A 
ATOM      8  N   UNL     1       1.782  10.290  17.783  0.00  0.00    +0.000 N 
ATOM      9  N   UNL     1       2.386   9.127  17.421  0.00  0.00    +0.000 NA
ATOM     10  C   UNL     1       2.106   8.267  18.413  0.00  0.00    +0.000 A 
ATOM     11  N   UNL     1       2.592   7.007  18.449  0.00  0.00    +0.000 N 
ATOM     12  C   UNL     1       1.292   8.871  19.384  0.00  0.00    +0.000 A 
ATOM     13  C   UNL     1       0.649   8.599  20.690  0.00  0.00    +0.000 C 
ATOM     14  H   UNL     1       1.887  11.103  17.188  0.00  0.00    +0.000 HD
ATOM     15  H   UNL     1       3.302   6.843  17.741  0.00  0.00    +0.000 HD
ENDROOT
BRANCH   1  17
ATOM     16  C   UNL     1      -2.680  12.277  23.563  0.00  0.00    +0.000 C 
ATOM     17  O   UNL     1      -1.256  12.314  23.435  0.00  0.00    +0.000 OA
ENDBRANCH   1  17
BRANCH   6  18
ATOM     18  O   UNL     1      -0.721  14.082  21.117  0.00  0.00    +0.000 OA
ATOM     19  C   UNL     1      -1.978  14.567  20.677  0.00  0.00    +0.000 C 
ENDBRANCH   6  18
BRANCH  11  20
ATOM     20  C   UNL     1       2.858   6.364  19.719  0.00  0.00    +0.000 C 
BRANCH  20  21
ATOM     21  C   UNL     1       3.219   4.914  19.545  0.00  0.00    +0.000 A 
ATOM     22  C   UNL     1       4.491   4.526  19.081  0.00  0.00    +0.000 A 
ATOM     23 CL   UNL     1       5.688   5.683  18.609  0.00  0.00    +0.000 Cl
ATOM     24  C   UNL     1       4.847   3.176  18.987  0.00  0.00    +0.000 A 
ATOM     25  C   UNL     1       3.939   2.181  19.339  0.00  0.00    +0.000 A 
ATOM     26  C   UNL     1       2.666   2.540  19.771  0.00  0.00    +0.000 A 
ATOM     27  C   UNL     1       2.306   3.890  19.867  0.00  0.00    +0.000 A 
ATOM     28 CL   UNL     1       0.699   4.226  20.418  0.00  0.00    +0.000 Cl
ENDBRANCH  20  21
ENDBRANCH  11  20
TORSDOF 4
ENDMDL
MODEL 5
REMARK VINA RESULT:      -7.4      1.200      1.402
REMARK  Name = 
REMARK  6 active torsions:
REMARK  status: ('A' for Active; 'I' for Inactive)
REMARK    1  A    between atoms: C_1  and  O_2
REMARK    2  A    between atoms: O_2  and  C_3
REMARK    3  A    between atoms: C_8  and  O_9
REMARK    4  A    between atoms: O_9  and  C_10
REMARK    5  A    between atoms: N_15  and  C_16
REMARK    6  A    between atoms: C_16  and  C_17
REMARK                            x       y       z     vdW  Elec       q    Type
REMARK                         _______ _______ _______ _____ _____    ______ ____
ROOT
ATOM      1  C   UNL     1       2.650   3.925  19.949  0.00  0.00    +0.000 A 
ATOM      2  C   UNL     1       2.195   5.040  20.677  0.00  0.00    +0.000 A 
ATOM      3  C   UNL     1       2.185   6.277  20.062  0.00  0.00    +0.000 A 
ATOM      4  C   UNL     1       2.717   6.426  18.760  0.00  0.00    +0.000 A 
ATOM      5  C   UNL     1       3.262   5.372  18.069  0.00  0.00    +0.000 A 
ATOM      6  C   UNL     1       3.225   4.098  18.661  0.00  0.00    +0.000 A 
ATOM      7  C   UNL     1       2.468   7.782  18.423  0.00  0.00    +0.000 A 
ATOM      8  N   UNL     1       2.590   8.644  17.399  0.00  0.00    +0.000 N 
ATOM      9  N   UNL     1       2.014   9.841  17.686  0.00  0.00    +0.000 NA
ATOM     10  C   UNL     1       1.508   9.694  18.922  0.00  0.00    +0.000 A 
ATOM     11  N   UNL     1       0.793  10.660  19.540  0.00  0.00    +0.000 N 
ATOM     12  C   UNL     1       1.798   8.420  19.432  0.00  0.00    +0.000 A 
ATOM     13  C   UNL     1       1.562   7.565  20.619  0.00  0.00    +0.000 C 
ATOM     14  H   UNL     1       3.015   8.512  16.488  0.00  0.00    +0.000 HD
ATOM     15  H   UNL     1       0.553  11.426  18.918  0.00  0.00    +0.000 HD
ENDROOT
BRANCH   1  17
ATOM     16  C   UNL     1       1.670   2.555  21.617  0.00  0.00    +0.000 C 
ATOM     17  O   UNL     1       2.539   2.667  20.485  0.00  0.00    +0.000 OA
ENDBRANCH   1  17
BRANCH   6  18
ATOM     18  O   UNL     1       3.759   3.148  17.827  0.00  0.00    +0.000 OA
ATOM     19  C   UNL     1       4.620   3.547  16.775  0.00  0.00    +0.000 C 
ENDBRANCH   6  18
BRANCH  11  20
ATOM     20  C   UNL     1      -0.252  10.305  20.478  0.00  0.00    +0.000 C 
BRANCH  20  21
ATOM     21  C   UNL     1      -1.453  11.199  20.338  0.00  0.00    +0.000 A 
ATOM     22  C   UNL     1      -1.804  12.117  21.348  0.00  0.00    +0.000 A 
ATOM     23 CL   UNL     1      -0.930  12.223  22.837  0.00  0.00    +0.000 Cl
ATOM     24  C   UNL     1      -2.882  12.996  21.184  0.00  0.00    +0.000 A 
ATOM     25  C   UNL     1      -3.643  12.970  20.019  0.00  0.00    +0.000 A 
ATOM     26  C   UNL     1      -3.333  12.051  19.022  0.00  0.00    +0.000 A 
ATOM     27  C   UNL     1      -2.256  11.170  19.180  0.00  0.00    +0.000 A 
ATOM     28 CL   UNL     1      -1.957  10.069  17.877  0.00  0.00    +0.000 Cl
ENDBRANCH  20  21
ENDBRANCH  11  20
TORSDOF 4
ENDMDL
MODEL 6
REMARK VINA RESULT:      -7.3      2.474      3.708
REMARK  Name = 
REMARK  6 active torsions:
REMARK  status: ('A' for Active; 'I' for Inactive)
REMARK    1  A    between atoms: C_1  and  O_2
REMARK    2  A    between atoms: O_2  and  C_3
REMARK    3  A    between atoms: C_8  and  O_9
REMARK    4  A    between atoms: O_9  and  C_10
REMARK    5  A    between atoms: N_15  and  C_16
REMARK    6  A    between atoms: C_16  and  C_17
REMARK                            x       y       z     vdW  Elec       q    Type
REMARK                         _______ _______ _______ _____ _____    ______ ____
ROOT
ATOM      1  C   UNL     1       4.837   5.353  17.539  0.00  0.00    +0.000 A 
ATOM      2  C   UNL     1       4.080   6.462  17.117  0.00  0.00    +0.000 A 
ATOM      3  C   UNL     1       3.208   7.050  18.011  0.00  0.00    +0.000 A 
ATOM      4  C   UNL     1       3.012   6.482  19.291  0.00  0.00    +0.000 A 
ATOM      5  C   UNL     1       3.662   5.340  19.689  0.00  0.00    +0.000 A 
ATOM      6  C   UNL     1       4.596   4.764  18.809  0.00  0.00    +0.000 A 
ATOM      7  C   UNL     1       2.134   7.379  19.952  0.00  0.00    +0.000 A 
ATOM      8  N   UNL     1       1.556   7.585  21.149  0.00  0.00    +0.000 N 
ATOM      9  N   UNL     1       0.882   8.765  21.178  0.00  0.00    +0.000 NA
ATOM     10  C   UNL     1       1.072   9.302  19.962  0.00  0.00    +0.000 A 
ATOM     11  N   UNL     1       0.604  10.523  19.619  0.00  0.00    +0.000 N 
ATOM     12  C   UNL     1       1.832   8.446  19.150  0.00  0.00    +0.000 A 
ATOM     13  C   UNL     1       2.441   8.364  17.802  0.00  0.00    +0.000 C 
ATOM     14  H   UNL     1       1.579   7.013  21.986  0.00  0.00    +0.000 HD
ATOM     15  H   UNL     1       0.242  11.039  20.415  0.00  0.00    +0.000 HD
ENDROOT
BRANCH   1  17
ATOM     16  C   UNL     1       5.684   5.166  15.333  0.00  0.00    +0.000 C 
ATOM     17  O   UNL     1       5.810   4.837  16.720  0.00  0.00    +0.000 OA
ENDBRANCH   1  17
BRANCH   6  18
ATOM     18  O   UNL     1       5.193   3.664  19.372  0.00  0.00    +0.000 OA
ATOM     19  C   UNL     1       4.397   2.558  19.759  0.00  0.00    +0.000 C 
ENDBRANCH   6  18
BRANCH  11  20
ATOM     20  C   UNL     1       1.324  11.336  18.661  0.00  0.00    +0.000 C 
BRANCH  20  21
ATOM     21  C   UNL     1       0.929  12.785  18.751  0.00  0.00    +0.000 A 
ATOM     22  C   UNL     1      -0.411  13.167  18.961  0.00  0.00    +0.000 A 
ATOM     23 CL   UNL     1      -1.693  12.009  19.051  0.00  0.00    +0.000 Cl
ATOM     24  C   UNL     1      -0.764  14.513  19.115  0.00  0.00    +0.000 A 
ATOM     25  C   UNL     1       0.206  15.509  19.047  0.00  0.00    +0.000 A 
ATOM     26  C   UNL     1       1.531  15.157  18.809  0.00  0.00    +0.000 A 
ATOM     27  C   UNL     1       1.890  13.812  18.656  0.00  0.00    +0.000 A 
ATOM     28 CL   UNL     1       3.565  13.484  18.367  0.00  0.00    +0.000 Cl
ENDBRANCH  20  21
ENDBRANCH  11  20
TORSDOF 4
ENDMDL
MODEL 7
REMARK VINA RESULT:      -7.3      4.398      8.570
REMARK  Name = 
REMARK  6 active torsions:
REMARK  status: ('A' for Active; 'I' for Inactive)
REMARK    1  A    between atoms: C_1  and  O_2
REMARK    2  A    between atoms: O_2  and  C_3
REMARK    3  A    between atoms: C_8  and  O_9
REMARK    4  A    between atoms: O_9  and  C_10
REMARK    5  A    between atoms: N_15  and  C_16
REMARK    6  A    between atoms: C_16  and  C_17
REMARK                            x       y       z     vdW  Elec       q    Type
REMARK                         _______ _______ _______ _____ _____    ______ ____
ROOT
ATOM      1  C   UNL     1      -2.828  11.275  17.471  0.00  0.00    +0.000 A 
ATOM      2  C   UNL     1      -1.675  10.531  17.160  0.00  0.00    +0.000 A 
ATOM      3  C   UNL     1      -0.830  10.153  18.185  0.00  0.00    +0.000 A 
ATOM      4  C   UNL     1      -1.075  10.594  19.506  0.00  0.00    +0.000 A 
ATOM      5  C   UNL     1      -2.137  11.407  19.818  0.00  0.00    +0.000 A 
ATOM      6  C   UNL     1      -3.036  11.751  18.794  0.00  0.00    +0.000 A 
ATOM      7  C   UNL     1      -0.077   9.957  20.289  0.00  0.00    +0.000 A 
ATOM      8  N   UNL     1       0.310   9.806  21.568  0.00  0.00    +0.000 N 
ATOM      9  N   UNL     1       1.330   8.914  21.675  0.00  0.00    +0.000 NA
ATOM     10  C   UNL     1       1.558   8.496  20.419  0.00  0.00    +0.000 A 
ATOM     11  N   UNL     1       2.468   7.544  20.118  0.00  0.00    +0.000 N 
ATOM     12  C   UNL     1       0.710   9.151  19.513  0.00  0.00    +0.000 A 
ATOM     13  C   UNL     1       0.364   9.194  18.073  0.00  0.00    +0.000 C 
ATOM     14  H   UNL     1      -0.057  10.234  22.410  0.00  0.00    +0.000 HD
ATOM     15  H   UNL     1       2.835   7.081  20.944  0.00  0.00    +0.000 HD
ENDROOT
BRANCH   1  17
ATOM     16  C   UNL     1      -3.636  10.757  15.305  0.00  0.00    +0.000 C 
ATOM     17  O   UNL     1      -3.754  11.542  16.495  0.00  0.00    +0.000 OA
ENDBRANCH   1  17
BRANCH   6  18
ATOM     18  O   UNL     1      -4.064  12.522  19.275  0.00  0.00    +0.000 OA
ATOM     19  C   UNL     1      -4.173  12.750  20.669  0.00  0.00    +0.000 C 
ENDBRANCH   6  18
BRANCH  11  20
ATOM     20  C   UNL     1       2.256   6.664  18.988  0.00  0.00    +0.000 C 
BRANCH  20  21
ATOM     21  C   UNL     1       3.026   5.379  19.129  0.00  0.00    +0.000 A 
ATOM     22  C   UNL     1       4.307   5.228  18.563  0.00  0.00    +0.000 A 
ATOM     23 CL   UNL     1       5.043   6.470  17.610  0.00  0.00    +0.000 Cl
ATOM     24  C   UNL     1       5.049   4.056  18.756  0.00  0.00    +0.000 A 
ATOM     25  C   UNL     1       4.527   3.005  19.503  0.00  0.00    +0.000 A 
ATOM     26  C   UNL     1       3.250   3.120  20.045  0.00  0.00    +0.000 A 
ATOM     27  C   UNL     1       2.504   4.290  19.856  0.00  0.00    +0.000 A 
ATOM     28 CL   UNL     1       0.930   4.331  20.576  0.00  0.00    +0.000 Cl
ENDBRANCH  20  21
ENDBRANCH  11  20
TORSDOF 4
ENDMDL
MODEL 8
REMARK VINA RESULT:      -7.2      1.176      1.964
REMARK  Name = 
REMARK  6 active torsions:
REMARK  status: ('A' for Active; 'I' for Inactive)
REMARK    1  A    between atoms: C_1  and  O_2
REMARK    2  A    between atoms: O_2  and  C_3
REMARK    3  A    between atoms: C_8  and  O_9
REMARK    4  A    between atoms: O_9  and  C_10
REMARK    5  A    between atoms: N_15  and  C_16
REMARK    6  A    between atoms: C_16  and  C_17
REMARK                            x       y       z     vdW  Elec       q    Type
REMARK                         _______ _______ _______ _____ _____    ______ ____
ROOT
ATOM      1  C   UNL     1       2.106   3.782  19.898  0.00  0.00    +0.000 A 
ATOM      2  C   UNL     1       1.797   4.931  20.650  0.00  0.00    +0.000 A 
ATOM      3  C   UNL     1       1.913   6.170  20.051  0.00  0.00    +0.000 A 
ATOM      4  C   UNL     1       2.428   6.278  18.738  0.00  0.00    +0.000 A 
ATOM      5  C   UNL     1       2.833   5.179  18.021  0.00  0.00    +0.000 A 
ATOM      6  C   UNL     1       2.667   3.908  18.598  0.00  0.00    +0.000 A 
ATOM      7  C   UNL     1       2.325   7.658  18.424  0.00  0.00    +0.000 A 
ATOM      8  N   UNL     1       2.520   8.516  17.408  0.00  0.00    +0.000 N 
ATOM      9  N   UNL     1       2.090   9.766  17.724  0.00  0.00    +0.000 NA
ATOM     10  C   UNL     1       1.600   9.658  18.970  0.00  0.00    +0.000 A 
ATOM     11  N   UNL     1       1.013  10.689  19.618  0.00  0.00    +0.000 N 
ATOM     12  C   UNL     1       1.756   8.352  19.457  0.00  0.00    +0.000 A 
ATOM     13  C   UNL     1       1.452   7.511  20.639  0.00  0.00    +0.000 C 
ATOM     14  H   UNL     1       2.906   8.350  16.485  0.00  0.00    +0.000 HD
ATOM     15  H   UNL     1       0.846  11.486  19.011  0.00  0.00    +0.000 HD
ENDROOT
BRANCH   1  17
ATOM     16  C   UNL     1       1.732   2.484  21.845  0.00  0.00    +0.000 C 
ATOM     17  O   UNL     1       1.866   2.537  20.421  0.00  0.00    +0.000 OA
ENDBRANCH   1  17
BRANCH   6  18
ATOM     18  O   UNL     1       3.071   2.918  17.740  0.00  0.00    +0.000 OA
ATOM     19  C   UNL     1       3.653   1.736  18.260  0.00  0.00    +0.000 C 
ENDBRANCH   6  18
BRANCH  11  20
ATOM     20  C   UNL     1      -0.043  10.440  20.577  0.00  0.00    +0.000 C 
BRANCH  20  21
ATOM     21  C   UNL     1      -1.244  11.310  20.322  0.00  0.00    +0.000 A 
ATOM     22  C   UNL     1      -1.995  11.192  19.135  0.00  0.00    +0.000 A 
ATOM     23 CL   UNL     1      -1.544  10.104  17.868  0.00  0.00    +0.000 Cl
ATOM     24  C   UNL     1      -3.152  11.954  18.932  0.00  0.00    +0.000 A 
ATOM     25  C   UNL     1      -3.578  12.860  19.899  0.00  0.00    +0.000 A 
ATOM     26  C   UNL     1      -2.835  13.015  21.065  0.00  0.00    +0.000 A 
ATOM     27  C   UNL     1      -1.677  12.255  21.273  0.00  0.00    +0.000 A 
ATOM     28 CL   UNL     1      -0.830  12.524  22.759  0.00  0.00    +0.000 Cl
ENDBRANCH  20  21
ENDBRANCH  11  20
TORSDOF 4
ENDMDL
MODEL 9
REMARK VINA RESULT:      -7.2      4.396      8.476
REMARK  Name = 
REMARK  6 active torsions:
REMARK  status: ('A' for Active; 'I' for Inactive)
REMARK    1  A    between atoms: C_1  and  O_2
REMARK    2  A    between atoms: O_2  and  C_3
REMARK    3  A    between atoms: C_8  and  O_9
REMARK    4  A    between atoms: O_9  and  C_10
REMARK    5  A    between atoms: N_15  and  C_16
REMARK    6  A    between atoms: C_16  and  C_17
REMARK                            x       y       z     vdW  Elec       q    Type
REMARK                         _______ _______ _______ _____ _____    ______ ____
ROOT
ATOM      1  C   UNL     1      -2.758  11.170  17.297  0.00  0.00    +0.000 A 
ATOM      2  C   UNL     1      -1.559  10.481  17.037  0.00  0.00    +0.000 A 
ATOM      3  C   UNL     1      -0.763  10.105  18.102  0.00  0.00    +0.000 A 
ATOM      4  C   UNL     1      -1.106  10.496  19.416  0.00  0.00    +0.000 A 
ATOM      5  C   UNL     1      -2.217  11.257  19.685  0.00  0.00    +0.000 A 
ATOM      6  C   UNL     1      -3.065  11.597  18.617  0.00  0.00    +0.000 A 
ATOM      7  C   UNL     1      -0.133   9.874  20.241  0.00  0.00    +0.000 A 
ATOM      8  N   UNL     1       0.182   9.699  21.537  0.00  0.00    +0.000 N 
ATOM      9  N   UNL     1       1.228   8.844  21.682  0.00  0.00    +0.000 NA
ATOM     10  C   UNL     1       1.549   8.474  20.431  0.00  0.00    +0.000 A 
ATOM     11  N   UNL     1       2.514   7.568  20.160  0.00  0.00    +0.000 N 
ATOM     12  C   UNL     1       0.733   9.124  19.493  0.00  0.00    +0.000 A 
ATOM     13  C   UNL     1       0.474   9.197  18.036  0.00  0.00    +0.000 C 
ATOM     14  H   UNL     1      -0.253  10.086  22.366  0.00  0.00    +0.000 HD
ATOM     15  H   UNL     1       2.849   7.094  20.994  0.00  0.00    +0.000 HD
ENDROOT
BRANCH   1  17
ATOM     16  C   UNL     1      -3.467  10.626  15.102  0.00  0.00    +0.000 C 
ATOM     17  O   UNL     1      -3.633  11.432  16.273  0.00  0.00    +0.000 OA
ENDBRANCH   1  17
BRANCH   6  18
ATOM     18  O   UNL     1      -4.151  12.312  19.055  0.00  0.00    +0.000 OA
ATOM     19  C   UNL     1      -4.095  12.970  20.309  0.00  0.00    +0.000 C 
ENDBRANCH   6  18
BRANCH  11  20
ATOM     20  C   UNL     1       2.407   6.715  18.995  0.00  0.00    +0.000 C 
BRANCH  20  21
ATOM     21  C   UNL     1       3.165   5.428  19.174  0.00  0.00    +0.000 A 
ATOM     22  C   UNL     1       2.613   4.346  19.888  0.00  0.00    +0.000 A 
ATOM     23 CL   UNL     1       1.072   4.452  20.668  0.00  0.00    +0.000 Cl
ATOM     24  C   UNL     1       3.292   3.126  19.993  0.00  0.00    +0.000 A 
ATOM     25  C   UNL     1       4.541   2.961  19.402  0.00  0.00    +0.000 A 
ATOM     26  C   UNL     1       5.119   4.026  18.718  0.00  0.00    +0.000 A 
ATOM     27  C   UNL     1       4.444   5.249  18.609  0.00  0.00    +0.000 A 
ATOM     28 CL   UNL     1       5.251   6.506  17.734  0.00  0.00    +0.000 Cl
ENDBRANCH  20  21
ENDBRANCH  11  20
TORSDOF 4
ENDMDL
