MODEL 1
REMARK VINA RESULT:      -8.2      0.000      0.000
REMARK  Name = 
REMARK  10 active torsions:
REMARK  status: ('A' for Active; 'I' for Inactive)
REMARK    1  A    between atoms: C_1  and  C_2
REMARK    2  A    between atoms: C_2  and  N_3
REMARK    3  A    between atoms: N_3  and  C_4
REMARK    4  A    between atoms: C_10  and  C_11
REMARK    5  A    between atoms: C_11  and  N_12
REMARK    6  A    between atoms: N_12  and  S_13
REMARK    7  A    between atoms: S_13  and  C_16
REMARK    8  A    between atoms: N_19  and  C_20
REMARK    9  A    between atoms: C_24  and  C_25
REMARK   10  A    between atoms: C_25  and  C_26
REMARK                            x       y       z     vdW  Elec       q    Type
REMARK                         _______ _______ _______ _____ _____    ______ ____
ROOT
ATOM      1  C   UNL     1       1.390  11.539  20.140  0.00  0.00    +0.000 C 
ATOM      2  C   UNL     1       1.312  12.021  18.687  0.00  0.00    +0.000 C 
ATOM      3  C   UNL     1       2.105  11.062  17.783  0.00  0.00    +0.000 C 
ATOM      4  C   UNL     1       2.122   9.612  18.226  0.00  0.00    +0.000 A 
ATOM      5  C   UNL     1       2.914   8.692  17.525  0.00  0.00    +0.000 A 
ATOM      6  C   UNL     1       3.085   7.386  17.997  0.00  0.00    +0.000 A 
ATOM      7  C   UNL     1       2.465   6.967  19.181  0.00  0.00    +0.000 A 
ATOM      8  C   UNL     1       1.642   7.871  19.861  0.00  0.00    +0.000 A 
ATOM      9  C   UNL     1       1.464   9.184  19.394  0.00  0.00    +0.000 A 
ATOM     10  C   UNL     1       0.671  10.164  20.233  0.00  0.00    +0.000 C 
ENDROOT
BRANCH   1  11
ATOM     11  N   UNL     1       0.975  12.575  21.100  0.00  0.00    +0.000 NA
ATOM     12  H   UNL     1      -0.036  12.698  21.009  0.00  0.00    +0.000 HD
BRANCH  11  14
ATOM     13  C   UNL     1       3.119  13.984  21.116  0.00  0.00    +0.000 C 
ATOM     14  C   UNL     1       1.607  13.891  20.900  0.00  0.00    +0.000 C 
ENDBRANCH  11  14
ENDBRANCH   1  11
BRANCH   7  15
ATOM     15  C   UNL     1       2.649   5.566  19.713  0.00  0.00    +0.000 C 
BRANCH  15  16
ATOM     16  N   UNL     1       3.280   4.672  18.727  0.00  0.00    +0.000 NA
ATOM     17  H   UNL     1       3.168   4.996  17.766  0.00  0.00    +0.000 HD
BRANCH  16  18
ATOM     18  S   UNL     1       4.908   4.336  19.014  0.00  0.00    +0.000 S 
ATOM     19  O   UNL     1       5.449   5.439  19.770  0.00  0.00    +0.000 OA
ATOM     20  O   UNL     1       5.007   2.968  19.465  0.00  0.00    +0.000 OA
BRANCH  18  21
ATOM     21  C   UNL     1       5.732   4.382  17.519  0.00  0.00    +0.000 A 
ATOM     22  C   UNL     1       7.085   4.689  17.322  0.00  0.00    +0.000 A 
ATOM     23  N   UNL     1       7.442   4.573  16.038  0.00  0.00    +0.000 NA
ATOM     24  N   UNL     1       6.302   4.208  15.416  0.00  0.00    +0.000 N 
ATOM     25  C   UNL     1       6.296   3.955  13.999  0.00  0.00    +0.000 C 
ATOM     26  C   UNL     1       5.240   4.085  16.266  0.00  0.00    +0.000 A 
ENDBRANCH  18  21
ENDBRANCH  16  18
ENDBRANCH  15  16
ENDBRANCH   7  15
BRANCH  10  27
ATOM     27  C   UNL     1      -0.877  10.113  20.054  0.00  0.00    +0.000 C 
BRANCH  27  28
ATOM     28  C   UNL     1      -1.662  10.539  18.821  0.00  0.00    +0.000 A 
ATOM     29  C   UNL     1      -2.662  11.529  18.952  0.00  0.00    +0.000 A 
ATOM     30  C   UNL     1      -3.592  11.777  17.928  0.00  0.00    +0.000 A 
ATOM     31  C   UNL     1      -3.536  11.045  16.749  0.00  0.00    +0.000 A 
ATOM     32  C   UNL     1      -2.539  10.091  16.595  0.00  0.00    +0.000 A 
ATOM     33  F   UNL     1      -2.504   9.365  15.469  0.00  0.00    +0.000 F 
ATOM     34  C   UNL     1      -1.610   9.831  17.609  0.00  0.00    +0.000 A 
ENDBRANCH  27  28
ENDBRANCH  10  27
TORSDOF 8
ENDMDL
MODEL 2
REMARK VINA RESULT:      -8.1      4.028      9.372
REMARK  Name = 
REMARK  10 active torsions:
REMARK  status: ('A' for Active; 'I' for Inactive)
REMARK    1  A    between atoms: C_1  and  C_2
REMARK    2  A    between atoms: C_2  and  N_3
REMARK    3  A    between atoms: N_3  and  C_4
REMARK    4  A    between atoms: C_10  and  C_11
REMARK    5  A    between atoms: C_11  and  N_12
REMARK    6  A    between atoms: N_12  and  S_13
REMARK    7  A    between atoms: S_13  and  C_16
REMARK    8  A    between atoms: N_19  and  C_20
REMARK    9  A    between atoms: C_24  and  C_25
REMARK   10  A    between atoms: C_25  and  C_26
REMARK                            x       y       z     vdW  Elec       q    Type
REMARK                         _______ _______ _______ _____ _____    ______ ____
ROOT
ATOM      1  C   UNL     1       5.659   4.847  18.683  0.00  0.00    +0.000 C 
ATOM      2  C   UNL     1       4.761   3.773  19.307  0.00  0.00    +0.000 C 
ATOM      3  C   UNL     1       3.551   4.441  19.982  0.00  0.00    +0.000 C 
ATOM      4  C   UNL     1       3.064   5.721  19.330  0.00  0.00    +0.000 A 
ATOM      5  C   UNL     1       2.041   6.455  19.945  0.00  0.00    +0.000 A 
ATOM      6  C   UNL     1       1.676   7.717  19.465  0.00  0.00    +0.000 A 
ATOM      7  C   UNL     1       2.325   8.276  18.357  0.00  0.00    +0.000 A 
ATOM      8  C   UNL     1       3.319   7.527  17.717  0.00  0.00    +0.000 A 
ATOM      9  C   UNL     1       3.691   6.259  18.191  0.00  0.00    +0.000 A 
ATOM     10  C   UNL     1       4.861   5.544  17.546  0.00  0.00    +0.000 C 
ENDROOT
BRANCH   1  11
ATOM     11  N   UNL     1       6.996   4.334  18.341  0.00  0.00    +0.000 NA
ATOM     12  H   UNL     1       7.126   3.448  18.835  0.00  0.00    +0.000 HD
BRANCH  11  14
ATOM     13  C   UNL     1       7.917   6.724  18.489  0.00  0.00    +0.000 C 
ATOM     14  C   UNL     1       8.111   5.223  18.710  0.00  0.00    +0.000 C 
ENDBRANCH  11  14
ENDBRANCH   1  11
BRANCH   7  15
ATOM     15  C   UNL     1       1.955   9.643  17.834  0.00  0.00    +0.000 C 
BRANCH  15  16
ATOM     16  N   UNL     1       1.602  10.579  18.916  0.00  0.00    +0.000 NA
ATOM     17  H   UNL     1       2.245  11.368  18.986  0.00  0.00    +0.000 HD
BRANCH  16  18
ATOM     18  S   UNL     1       0.018  11.156  18.864  0.00  0.00    +0.000 S 
ATOM     19  O   UNL     1       0.077  12.545  18.477  0.00  0.00    +0.000 OA
ATOM     20  O   UNL     1      -0.785  10.189  18.153  0.00  0.00    +0.000 OA
BRANCH  18  21
ATOM     21  C   UNL     1      -0.596  11.170  20.458  0.00  0.00    +0.000 A 
ATOM     22  C   UNL     1      -0.145  10.390  21.531  0.00  0.00    +0.000 A 
ATOM     23  N   UNL     1      -0.788  10.683  22.667  0.00  0.00    +0.000 NA
ATOM     24  N   UNL     1      -1.665  11.642  22.305  0.00  0.00    +0.000 N 
ATOM     25  C   UNL     1      -2.532  12.241  23.286  0.00  0.00    +0.000 C 
ATOM     26  C   UNL     1      -1.592  11.966  20.980  0.00  0.00    +0.000 A 
ENDBRANCH  18  21
ENDBRANCH  16  18
ENDBRANCH  15  16
ENDBRANCH   7  15
BRANCH  10  27
ATOM     27  C   UNL     1       4.533   4.736  16.254  0.00  0.00    +0.000 C 
BRANCH  27  28
ATOM     28  C   UNL     1       5.488   4.431  15.109  0.00  0.00    +0.000 A 
ATOM     29  C   UNL     1       6.711   5.134  15.027  0.00  0.00    +0.000 A 
ATOM     30  C   UNL     1       7.509   5.096  13.871  0.00  0.00    +0.000 A 
ATOM     31  C   UNL     1       7.103   4.347  12.774  0.00  0.00    +0.000 A 
ATOM     32  C   UNL     1       5.919   3.626  12.852  0.00  0.00    +0.000 A 
ATOM     33  F   UNL     1       5.514   2.926  11.783  0.00  0.00    +0.000 F 
ATOM     34  C   UNL     1       5.113   3.659  13.996  0.00  0.00    +0.000 A 
ENDBRANCH  27  28
ENDBRANCH  10  27
TORSDOF 8
ENDMDL
MODEL 3
REMARK VINA RESULT:      -8.0      1.905      3.899
REMARK  Name = 
REMARK  10 active torsions:
REMARK  status: ('A' for Active; 'I' for Inactive)
REMARK    1  A    between atoms: C_1  and  C_2
REMARK    2  A    between atoms: C_2  and  N_3
REMARK    3  A    between atoms: N_3  and  C_4
REMARK    4  A    between atoms: C_10  and  C_11
REMARK    5  A    between atoms: C_11  and  N_12
REMARK    6  A    between atoms: N_12  and  S_13
REMARK    7  A    between atoms: S_13  and  C_16
REMARK    8  A    between atoms: N_19  and  C_20
REMARK    9  A    between atoms: C_24  and  C_25
REMARK   10  A    between atoms: C_25  and  C_26
REMARK                            x       y       z     vdW  Elec       q    Type
REMARK                         _______ _______ _______ _____ _____    ______ ____
ROOT
ATOM      1  C   UNL     1      -0.575  10.605  18.586  0.00  0.00    +0.000 C 
ATOM      2  C   UNL     1      -0.665  10.930  20.081  0.00  0.00    +0.000 C 
ATOM      3  C   UNL     1      -0.182   9.721  20.902  0.00  0.00    +0.000 C 
ATOM      4  C   UNL     1       0.899   8.881  20.250  0.00  0.00    +0.000 A 
ATOM      5  C   UNL     1       1.314   7.697  20.876  0.00  0.00    +0.000 A 
ATOM      6  C   UNL     1       2.188   6.814  20.233  0.00  0.00    +0.000 A 
ATOM      7  C   UNL     1       2.669   7.094  18.947  0.00  0.00    +0.000 A 
ATOM      8  C   UNL     1       2.286   8.293  18.337  0.00  0.00    +0.000 A 
ATOM      9  C   UNL     1       1.411   9.187  18.976  0.00  0.00    +0.000 A 
ATOM     10  C   UNL     1       0.923  10.407  18.223  0.00  0.00    +0.000 C 
ENDROOT
BRANCH   1  11
ATOM     11  N   UNL     1      -1.343  11.549  17.757  0.00  0.00    +0.000 NA
ATOM     12  H   UNL     1      -1.834  12.189  18.386  0.00  0.00    +0.000 HD
BRANCH  11  14
ATOM     13  C   UNL     1      -3.195   9.796  17.471  0.00  0.00    +0.000 C 
ATOM     14  C   UNL     1      -2.347  10.924  16.879  0.00  0.00    +0.000 C 
ENDBRANCH  11  14
ENDBRANCH   1  11
BRANCH   7  15
ATOM     15  C   UNL     1       3.600   6.145  18.231  0.00  0.00    +0.000 C 
BRANCH  15  16
ATOM     16  N   UNL     1       3.149   4.745  18.320  0.00  0.00    +0.000 NA
ATOM     17  H   UNL     1       2.431   4.513  17.633  0.00  0.00    +0.000 HD
BRANCH  16  18
ATOM     18  S   UNL     1       4.384   3.598  18.243  0.00  0.00    +0.000 S 
ATOM     19  O   UNL     1       5.077   3.624  19.507  0.00  0.00    +0.000 OA
ATOM     20  O   UNL     1       3.828   2.384  17.691  0.00  0.00    +0.000 OA
BRANCH  18  21
ATOM     21  C   UNL     1       5.534   4.131  17.099  0.00  0.00    +0.000 A 
ATOM     22  C   UNL     1       6.831   4.585  17.371  0.00  0.00    +0.000 A 
ATOM     23  N   UNL     1       7.507   4.867  16.251  0.00  0.00    +0.000 NA
ATOM     24  N   UNL     1       6.623   4.608  15.265  0.00  0.00    +0.000 N 
ATOM     25  C   UNL     1       7.005   4.770  13.886  0.00  0.00    +0.000 C 
ATOM     26  C   UNL     1       5.416   4.167  15.726  0.00  0.00    +0.000 A 
ENDBRANCH  18  21
ENDBRANCH  16  18
ENDBRANCH  15  16
ENDBRANCH   7  15
BRANCH  10  27
ATOM     27  C   UNL     1       1.871  11.644  18.249  0.00  0.00    +0.000 C 
BRANCH  27  28
ATOM     28  C   UNL     1       1.653  12.938  19.020  0.00  0.00    +0.000 A 
ATOM     29  C   UNL     1       2.017  12.995  20.384  0.00  0.00    +0.000 A 
ATOM     30  C   UNL     1       1.607  14.053  21.214  0.00  0.00    +0.000 A 
ATOM     31  C   UNL     1       0.829  15.079  20.693  0.00  0.00    +0.000 A 
ATOM     32  C   UNL     1       0.490  15.052  19.347  0.00  0.00    +0.000 A 
ATOM     33  F   UNL     1      -0.285  16.028  18.854  0.00  0.00    +0.000 F 
ATOM     34  C   UNL     1       0.888  14.002  18.512  0.00  0.00    +0.000 A 
ENDBRANCH  27  28
ENDBRANCH  10  27
TORSDOF 8
ENDMDL
MODEL 4
REMARK VINA RESULT:      -8.0      1.117      1.337
REMARK  Name = 
REMARK  10 active torsions:
REMARK  status: ('A' for Active; 'I' for Inactive)
REMARK    1  A    between atoms: C_1  and  C_2
REMARK    2  A    between atoms: C_2  and  N_3
REMARK    3  A    between atoms: N_3  and  C_4
REMARK    4  A    between atoms: C_10  and  C_11
REMARK    5  A    between atoms: C_11  and  N_12
REMARK    6  A    between atoms: N_12  and  S_13
REMARK    7  A    between atoms: S_13  and  C_16
REMARK    8  A    between atoms: N_19  and  C_20
REMARK    9  A    between atoms: C_24  and  C_25
REMARK   10  A    between atoms: C_25  and  C_26
REMARK                            x       y       z     vdW  Elec       q    Type
REMARK                         _______ _______ _______ _____ _____    ______ ____
ROOT
ATOM      1  C   UNL     1       1.444  11.531  20.146  0.00  0.00    +0.000 C 
ATOM      2  C   UNL     1       1.393  11.942  18.670  0.00  0.00    +0.000 C 
ATOM      3  C   UNL     1       2.126  10.892  17.817  0.00  0.00    +0.000 C 
ATOM      4  C   UNL     1       2.058   9.468  18.334  0.00  0.00    +0.000 A 
ATOM      5  C   UNL     1       2.793   8.469  17.682  0.00  0.00    +0.000 A 
ATOM      6  C   UNL     1       2.887   7.181  18.220  0.00  0.00    +0.000 A 
ATOM      7  C   UNL     1       2.245   6.860  19.423  0.00  0.00    +0.000 A 
ATOM      8  C   UNL     1       1.478   7.845  20.055  0.00  0.00    +0.000 A 
ATOM      9  C   UNL     1       1.378   9.140  19.521  0.00  0.00    +0.000 A 
ATOM     10  C   UNL     1       0.645  10.208  20.308  0.00  0.00    +0.000 C 
ENDROOT
BRANCH   1  11
ATOM     11  N   UNL     1       1.093  12.637  21.051  0.00  0.00    +0.000 NA
ATOM     12  H   UNL     1       0.337  12.315  21.659  0.00  0.00    +0.000 HD
BRANCH  11  14
ATOM     13  C   UNL     1      -0.793  14.334  20.663  0.00  0.00    +0.000 C 
ATOM     14  C   UNL     1       0.635  13.865  20.377  0.00  0.00    +0.000 C 
ENDBRANCH  11  14
ENDBRANCH   1  11
BRANCH   7  15
ATOM     15  C   UNL     1       2.347   5.480  20.026  0.00  0.00    +0.000 C 
BRANCH  15  16
ATOM     16  N   UNL     1       2.011   4.421  19.059  0.00  0.00    +0.000 NA
ATOM     17  H   UNL     1       1.803   4.783  18.128  0.00  0.00    +0.000 HD
BRANCH  16  18
ATOM     18  S   UNL     1       3.157   3.188  18.932  0.00  0.00    +0.000 S 
ATOM     19  O   UNL     1       3.616   2.887  20.266  0.00  0.00    +0.000 OA
ATOM     20  O   UNL     1       2.625   2.176  18.050  0.00  0.00    +0.000 OA
BRANCH  18  21
ATOM     21  C   UNL     1       4.526   3.816  18.127  0.00  0.00    +0.000 A 
ATOM     22  C   UNL     1       5.645   4.409  18.725  0.00  0.00    +0.000 A 
ATOM     23  N   UNL     1       6.578   4.738  17.823  0.00  0.00    +0.000 NA
ATOM     24  N   UNL     1       6.035   4.368  16.646  0.00  0.00    +0.000 N 
ATOM     25  C   UNL     1       6.771   4.542  15.420  0.00  0.00    +0.000 C 
ATOM     26  C   UNL     1       4.795   3.812  16.775  0.00  0.00    +0.000 A 
ENDBRANCH  18  21
ENDBRANCH  16  18
ENDBRANCH  15  16
ENDBRANCH   7  15
BRANCH  10  27
ATOM     27  C   UNL     1      -0.903  10.239  20.130  0.00  0.00    +0.000 C 
BRANCH  27  28
ATOM     28  C   UNL     1      -1.663  10.631  18.870  0.00  0.00    +0.000 A 
ATOM     29  C   UNL     1      -2.677  11.611  18.957  0.00  0.00    +0.000 A 
ATOM     30  C   UNL     1      -3.586  11.827  17.906  0.00  0.00    +0.000 A 
ATOM     31  C   UNL     1      -3.493  11.072  16.744  0.00  0.00    +0.000 A 
ATOM     32  C   UNL     1      -2.481  10.127  16.634  0.00  0.00    +0.000 A 
ATOM     33  F   UNL     1      -2.411   9.379  15.523  0.00  0.00    +0.000 F 
ATOM     34  C   UNL     1      -1.574   9.899  17.675  0.00  0.00    +0.000 A 
ENDBRANCH  27  28
ENDBRANCH  10  27
TORSDOF 8
ENDMDL
MODEL 5
REMARK VINA RESULT:      -7.9      1.352      1.689
REMARK  Name = 
REMARK  10 active torsions:
REMARK  status: ('A' for Active; 'I' for Inactive)
REMARK    1  A    between atoms: C_1  and  C_2
REMARK    2  A    between atoms: C_2  and  N_3
REMARK    3  A    between atoms: N_3  and  C_4
REMARK    4  A    between atoms: C_10  and  C_11
REMARK    5  A    between atoms: C_11  and  N_12
REMARK    6  A    between atoms: N_12  and  S_13
REMARK    7  A    between atoms: S_13  and  C_16
REMARK    8  A    between atoms: N_19  and  C_20
REMARK    9  A    between atoms: C_24  and  C_25
REMARK   10  A    between atoms: C_25  and  C_26
REMARK                            x       y       z     vdW  Elec       q    Type
REMARK                         _______ _______ _______ _____ _____    ______ ____
ROOT
ATOM      1  C   UNL     1       1.465  11.577  20.123  0.00  0.00    +0.000 C 
ATOM      2  C   UNL     1       1.402  11.916  18.630  0.00  0.00    +0.000 C 
ATOM      3  C   UNL     1       2.101  10.809  17.821  0.00  0.00    +0.000 C 
ATOM      4  C   UNL     1       2.009   9.414  18.409  0.00  0.00    +0.000 A 
ATOM      5  C   UNL     1       2.714   8.367  17.798  0.00  0.00    +0.000 A 
ATOM      6  C   UNL     1       2.786   7.106  18.399  0.00  0.00    +0.000 A 
ATOM      7  C   UNL     1       2.154   6.860  19.624  0.00  0.00    +0.000 A 
ATOM      8  C   UNL     1       1.418   7.892  20.215  0.00  0.00    +0.000 A 
ATOM      9  C   UNL     1       1.338   9.161  19.619  0.00  0.00    +0.000 A 
ATOM     10  C   UNL     1       0.639  10.282  20.361  0.00  0.00    +0.000 C 
ENDROOT
BRANCH   1  11
ATOM     11  N   UNL     1       1.149  12.735  20.976  0.00  0.00    +0.000 NA
ATOM     12  H   UNL     1       0.270  13.138  20.643  0.00  0.00    +0.000 HD
BRANCH  11  14
ATOM     13  C   UNL     1       1.758  15.156  20.383  0.00  0.00    +0.000 C 
ATOM     14  C   UNL     1       2.165  13.802  20.969  0.00  0.00    +0.000 C 
ENDBRANCH  11  14
ENDBRANCH   1  11
BRANCH   7  15
ATOM     15  C   UNL     1       2.234   5.509  20.294  0.00  0.00    +0.000 C 
BRANCH  15  16
ATOM     16  N   UNL     1       1.607   4.447  19.488  0.00  0.00    +0.000 NA
ATOM     17  H   UNL     1       1.229   4.788  18.604  0.00  0.00    +0.000 HD
BRANCH  16  18
ATOM     18  S   UNL     1       2.591   3.108  19.192  0.00  0.00    +0.000 S 
ATOM     19  O   UNL     1       3.072   2.636  20.467  0.00  0.00    +0.000 OA
ATOM     20  O   UNL     1       1.901   2.248  18.259  0.00  0.00    +0.000 OA
BRANCH  18  21
ATOM     21  C   UNL     1       3.986   3.646  18.367  0.00  0.00    +0.000 A 
ATOM     22  C   UNL     1       4.106   3.863  16.988  0.00  0.00    +0.000 A 
ATOM     23  N   UNL     1       5.310   4.348  16.662  0.00  0.00    +0.000 NA
ATOM     24  N   UNL     1       5.961   4.419  17.842  0.00  0.00    +0.000 N 
ATOM     25  C   UNL     1       7.305   4.933  17.899  0.00  0.00    +0.000 C 
ATOM     26  C   UNL     1       5.206   4.001  18.900  0.00  0.00    +0.000 A 
ENDBRANCH  18  21
ENDBRANCH  16  18
ENDBRANCH  15  16
ENDBRANCH   7  15
BRANCH  10  27
ATOM     27  C   UNL     1      -0.910  10.339  20.200  0.00  0.00    +0.000 C 
BRANCH  27  28
ATOM     28  C   UNL     1      -1.678  10.672  18.929  0.00  0.00    +0.000 A 
ATOM     29  C   UNL     1      -2.685  11.662  18.974  0.00  0.00    +0.000 A 
ATOM     30  C   UNL     1      -3.601  11.832  17.922  0.00  0.00    +0.000 A 
ATOM     31  C   UNL     1      -3.523  11.019  16.799  0.00  0.00    +0.000 A 
ATOM     32  C   UNL     1      -2.519  10.063  16.728  0.00  0.00    +0.000 A 
ATOM     33  F   UNL     1      -2.463   9.260  15.656  0.00  0.00    +0.000 F 
ATOM     34  C   UNL     1      -1.604   9.881  17.771  0.00  0.00    +0.000 A 
ENDBRANCH  27  28
ENDBRANCH  10  27
TORSDOF 8
ENDMDL
MODEL 6
REMARK VINA RESULT:      -7.9      2.246      4.161
REMARK  Name = 
REMARK  10 active torsions:
REMARK  status: ('A' for Active; 'I' for Inactive)
REMARK    1  A    between atoms: C_1  and  C_2
REMARK    2  A    between atoms: C_2  and  N_3
REMARK    3  A    between atoms: N_3  and  C_4
REMARK    4  A    between atoms: C_10  and  C_11
REMARK    5  A    between atoms: C_11  and  N_12
REMARK    6  A    between atoms: N_12  and  S_13
REMARK    7  A    between atoms: S_13  and  C_16
REMARK    8  A    between atoms: N_19  and  C_20
REMARK    9  A    between atoms: C_24  and  C_25
REMARK   10  A    between atoms: C_25  and  C_26
REMARK                            x       y       z     vdW  Elec       q    Type
REMARK                         _______ _______ _______ _____ _____    ______ ____
ROOT
ATOM      1  C   UNL     1      -0.642  10.779  18.941  0.00  0.00    +0.000 C 
ATOM      2  C   UNL     1      -0.591  10.983  20.460  0.00  0.00    +0.000 C 
ATOM      3  C   UNL     1      -0.043   9.712  21.132  0.00  0.00    +0.000 C 
ATOM      4  C   UNL     1       0.966   8.926  20.318  0.00  0.00    +0.000 A 
ATOM      5  C   UNL     1       1.429   7.696  20.806  0.00  0.00    +0.000 A 
ATOM      6  C   UNL     1       2.232   6.867  20.016  0.00  0.00    +0.000 A 
ATOM      7  C   UNL     1       2.594   7.249  18.718  0.00  0.00    +0.000 A 
ATOM      8  C   UNL     1       2.166   8.494  18.243  0.00  0.00    +0.000 A 
ATOM      9  C   UNL     1       1.361   9.333  19.030  0.00  0.00    +0.000 A 
ATOM     10  C   UNL     1       0.815  10.611  18.426  0.00  0.00    +0.000 C 
ENDROOT
BRANCH   1  11
ATOM     11  N   UNL     1      -1.476  11.786  18.266  0.00  0.00    +0.000 NA
ATOM     12  H   UNL     1      -1.762  12.475  18.966  0.00  0.00    +0.000 HD
BRANCH  11  14
ATOM     13  C   UNL     1      -2.627  10.924  16.141  0.00  0.00    +0.000 C 
ATOM     14  C   UNL     1      -2.695  11.255  17.633  0.00  0.00    +0.000 C 
ENDBRANCH  11  14
ENDBRANCH   1  11
BRANCH   7  15
ATOM     15  C   UNL     1       3.448   6.361  17.845  0.00  0.00    +0.000 C 
BRANCH  15  16
ATOM     16  N   UNL     1       3.047   4.946  17.926  0.00  0.00    +0.000 NA
ATOM     17  H   UNL     1       2.460   4.652  17.144  0.00  0.00    +0.000 HD
BRANCH  16  18
ATOM     18  S   UNL     1       4.324   3.857  18.101  0.00  0.00    +0.000 S 
ATOM     19  O   UNL     1       4.926   4.102  19.389  0.00  0.00    +0.000 OA
ATOM     20  O   UNL     1       3.852   2.551  17.703  0.00  0.00    +0.000 OA
BRANCH  18  21
ATOM     21  C   UNL     1       5.532   4.267  16.966  0.00  0.00    +0.000 A 
ATOM     22  C   UNL     1       6.856   4.625  17.251  0.00  0.00    +0.000 A 
ATOM     23  N   UNL     1       7.571   4.824  16.137  0.00  0.00    +0.000 NA
ATOM     24  N   UNL     1       6.686   4.609  15.142  0.00  0.00    +0.000 N 
ATOM     25  C   UNL     1       7.103   4.704  13.767  0.00  0.00    +0.000 C 
ATOM     26  C   UNL     1       5.441   4.276  15.591  0.00  0.00    +0.000 A 
ENDBRANCH  18  21
ENDBRANCH  16  18
ENDBRANCH  15  16
ENDBRANCH   7  15
BRANCH  10  27
ATOM     27  C   UNL     1       1.771  11.841  18.463  0.00  0.00    +0.000 C 
BRANCH  27  28
ATOM     28  C   UNL     1       1.612  13.088  19.321  0.00  0.00    +0.000 A 
ATOM     29  C   UNL     1       0.945  14.212  18.784  0.00  0.00    +0.000 A 
ATOM     30  C   UNL     1       0.994  15.469  19.412  0.00  0.00    +0.000 A 
ATOM     31  C   UNL     1       1.704  15.624  20.596  0.00  0.00    +0.000 A 
ATOM     32  C   UNL     1       2.338  14.520  21.151  0.00  0.00    +0.000 A 
ATOM     33  F   UNL     1       3.047  14.679  22.278  0.00  0.00    +0.000 F 
ATOM     34  C   UNL     1       2.301  13.265  20.533  0.00  0.00    +0.000 A 
ENDBRANCH  27  28
ENDBRANCH  10  27
TORSDOF 8
ENDMDL
MODEL 7
REMARK VINA RESULT:      -7.7      2.313      4.456
REMARK  Name = 
REMARK  10 active torsions:
REMARK  status: ('A' for Active; 'I' for Inactive)
REMARK    1  A    between atoms: C_1  and  C_2
REMARK    2  A    between atoms: C_2  and  N_3
REMARK    3  A    between atoms: N_3  and  C_4
REMARK    4  A    between atoms: C_10  and  C_11
REMARK    5  A    between atoms: C_11  and  N_12
REMARK    6  A    between atoms: N_12  and  S_13
REMARK    7  A    between atoms: S_13  and  C_16
REMARK    8  A    between atoms: N_19  and  C_20
REMARK    9  A    between atoms: C_24  and  C_25
REMARK   10  A    between atoms: C_25  and  C_26
REMARK                            x       y       z     vdW  Elec       q    Type
REMARK                         _______ _______ _______ _____ _____    ______ ____
ROOT
ATOM      1  C   UNL     1      -1.839  11.416  19.312  0.00  0.00    +0.000 C 
ATOM      2  C   UNL     1      -1.601  11.889  20.750  0.00  0.00    +0.000 C 
ATOM      3  C   UNL     1      -0.763  10.842  21.505  0.00  0.00    +0.000 C 
ATOM      4  C   UNL     1       0.230  10.069  20.660  0.00  0.00    +0.000 A 
ATOM      5  C   UNL     1       0.952   9.018  21.243  0.00  0.00    +0.000 A 
ATOM      6  C   UNL     1       1.754   8.179  20.463  0.00  0.00    +0.000 A 
ATOM      7  C   UNL     1       1.857   8.372  19.079  0.00  0.00    +0.000 A 
ATOM      8  C   UNL     1       1.169   9.444  18.501  0.00  0.00    +0.000 A 
ATOM      9  C   UNL     1       0.362  10.292  19.277  0.00  0.00    +0.000 A 
ATOM     10  C   UNL     1      -0.465  11.358  18.588  0.00  0.00    +0.000 C 
ENDROOT
BRANCH   1  11
ATOM     11  N   UNL     1      -2.914  12.167  18.644  0.00  0.00    +0.000 NA
ATOM     12  H   UNL     1      -3.376  12.746  19.349  0.00  0.00    +0.000 HD
BRANCH  11  14
ATOM     13  C   UNL     1      -3.494  10.003  17.392  0.00  0.00    +0.000 C 
ATOM     14  C   UNL     1      -3.945  11.332  18.003  0.00  0.00    +0.000 C 
ENDBRANCH  11  14
ENDBRANCH   1  11
BRANCH   7  15
ATOM     15  C   UNL     1       2.706   7.467  18.219  0.00  0.00    +0.000 C 
BRANCH  15  16
ATOM     16  N   UNL     1       3.556   6.569  19.020  0.00  0.00    +0.000 NA
ATOM     17  H   UNL     1       3.194   6.413  19.961  0.00  0.00    +0.000 HD
BRANCH  16  18
ATOM     18  S   UNL     1       3.889   5.080  18.300  0.00  0.00    +0.000 S 
ATOM     19  O   UNL     1       4.456   4.227  19.315  0.00  0.00    +0.000 OA
ATOM     20  O   UNL     1       2.736   4.695  17.521  0.00  0.00    +0.000 OA
BRANCH  18  21
ATOM     21  C   UNL     1       5.146   5.308  17.166  0.00  0.00    +0.000 A 
ATOM     22  C   UNL     1       6.305   6.073  17.350  0.00  0.00    +0.000 A 
ATOM     23  N   UNL     1       7.127   5.996  16.296  0.00  0.00    +0.000 NA
ATOM     24  N   UNL     1       6.472   5.193  15.433  0.00  0.00    +0.000 N 
ATOM     25  C   UNL     1       7.068   4.848  14.168  0.00  0.00    +0.000 C 
ATOM     26  C   UNL     1       5.269   4.757  15.909  0.00  0.00    +0.000 A 
ENDBRANCH  18  21
ENDBRANCH  16  18
ENDBRANCH  15  16
ENDBRANCH   7  15
BRANCH  10  27
ATOM     27  C   UNL     1       0.274  12.693  18.273  0.00  0.00    +0.000 C 
BRANCH  27  28
ATOM     28  C   UNL     1       1.607  13.149  18.850  0.00  0.00    +0.000 A 
ATOM     29  C   UNL     1       1.685  13.482  20.220  0.00  0.00    +0.000 A 
ATOM     30  C   UNL     1       2.799  14.153  20.755  0.00  0.00    +0.000 A 
ATOM     31  C   UNL     1       3.860  14.498  19.929  0.00  0.00    +0.000 A 
ATOM     32  C   UNL     1       3.810  14.150  18.586  0.00  0.00    +0.000 A 
ATOM     33  F   UNL     1       4.823  14.510  17.785  0.00  0.00    +0.000 F 
ATOM     34  C   UNL     1       2.705  13.486  18.041  0.00  0.00    +0.000 A 
ENDBRANCH  27  28
ENDBRANCH  10  27
TORSDOF 8
ENDMDL
MODEL 8
REMARK VINA RESULT:      -7.7      5.554      9.052
REMARK  Name = 
REMARK  10 active torsions:
REMARK  status: ('A' for Active; 'I' for Inactive)
REMARK    1  A    between atoms: C_1  and  C_2
REMARK    2  A    between atoms: C_2  and  N_3
REMARK    3  A    between atoms: N_3  and  C_4
REMARK    4  A    between atoms: C_10  and  C_11
REMARK    5  A    between atoms: C_11  and  N_12
REMARK    6  A    between atoms: N_12  and  S_13
REMARK    7  A    between atoms: S_13  and  C_16
REMARK    8  A    between atoms: N_19  and  C_20
REMARK    9  A    between atoms: C_24  and  C_25
REMARK   10  A    between atoms: C_25  and  C_26
REMARK                            x       y       z     vdW  Elec       q    Type
REMARK                         _______ _______ _______ _____ _____    ______ ____
ROOT
ATOM      1  C   UNL     1       5.973   4.997  15.752  0.00  0.00    +0.000 C 
ATOM      2  C   UNL     1       5.788   4.053  16.945  0.00  0.00    +0.000 C 
ATOM      3  C   UNL     1       6.784   4.424  18.057  0.00  0.00    +0.000 C 
ATOM      4  C   UNL     1       7.139   5.896  18.149  0.00  0.00    +0.000 A 
ATOM      5  C   UNL     1       8.126   6.305  19.057  0.00  0.00    +0.000 A 
ATOM      6  C   UNL     1       8.596   7.623  19.060  0.00  0.00    +0.000 A 
ATOM      7  C   UNL     1       8.089   8.564  18.156  0.00  0.00    +0.000 A 
ATOM      8  C   UNL     1       7.076   8.168  17.275  0.00  0.00    +0.000 A 
ATOM      9  C   UNL     1       6.597   6.848  17.267  0.00  0.00    +0.000 A 
ATOM     10  C   UNL     1       5.595   6.434  16.209  0.00  0.00    +0.000 C 
ENDROOT
BRANCH   1  11
ATOM     11  N   UNL     1       5.325   4.494  14.530  0.00  0.00    +0.000 NA
ATOM     12  H   UNL     1       4.623   3.804  14.810  0.00  0.00    +0.000 HD
BRANCH  11  14
ATOM     13  C   UNL     1       5.616   3.248  12.306  0.00  0.00    +0.000 C 
ATOM     14  C   UNL     1       6.236   3.844  13.571  0.00  0.00    +0.000 C 
ENDBRANCH  11  14
ENDBRANCH   1  11
BRANCH   7  15
ATOM     15  C   UNL     1       8.595   9.987  18.134  0.00  0.00    +0.000 C 
BRANCH  15  16
ATOM     16  N   UNL     1       9.386  10.317  19.332  0.00  0.00    +0.000 NA
ATOM     17  H   UNL     1       9.893   9.516  19.708  0.00  0.00    +0.000 HD
BRANCH  16  18
ATOM     18  S   UNL     1      10.454  11.610  19.141  0.00  0.00    +0.000 S 
ATOM     19  O   UNL     1      11.237  11.704  20.349  0.00  0.00    +0.000 OA
ATOM     20  O   UNL     1      11.058  11.497  17.834  0.00  0.00    +0.000 OA
BRANCH  18  21
ATOM     21  C   UNL     1       9.540  13.052  19.095  0.00  0.00    +0.000 A 
ATOM     22  C   UNL     1       8.555  13.384  18.156  0.00  0.00    +0.000 A 
ATOM     23  N   UNL     1       7.976  14.558  18.434  0.00  0.00    +0.000 NA
ATOM     24  N   UNL     1       8.614  14.979  19.545  0.00  0.00    +0.000 N 
ATOM     25  C   UNL     1       8.239  16.220  20.172  0.00  0.00    +0.000 C 
ATOM     26  C   UNL     1       9.572  14.108  19.979  0.00  0.00    +0.000 A 
ENDBRANCH  18  21
ENDBRANCH  16  18
ENDBRANCH  15  16
ENDBRANCH   7  15
BRANCH  10  27
ATOM     27  C   UNL     1       4.103   6.752  16.527  0.00  0.00    +0.000 C 
BRANCH  27  28
ATOM     28  C   UNL     1       3.268   6.156  17.652  0.00  0.00    +0.000 A 
ATOM     29  C   UNL     1       3.234   6.811  18.903  0.00  0.00    +0.000 A 
ATOM     30  C   UNL     1       2.707   6.188  20.048  0.00  0.00    +0.000 A 
ATOM     31  C   UNL     1       2.198   4.899  19.962  0.00  0.00    +0.000 A 
ATOM     32  C   UNL     1       2.197   4.256  18.732  0.00  0.00    +0.000 A 
ATOM     33  F   UNL     1       1.731   3.001  18.656  0.00  0.00    +0.000 F 
ATOM     34  C   UNL     1       2.722   4.863  17.585  0.00  0.00    +0.000 A 
ENDBRANCH  27  28
ENDBRANCH  10  27
TORSDOF 8
ENDMDL
MODEL 9
REMARK VINA RESULT:      -7.6      5.750      9.090
REMARK  Name = 
REMARK  10 active torsions:
REMARK  status: ('A' for Active; 'I' for Inactive)
REMARK    1  A    between atoms: C_1  and  C_2
REMARK    2  A    between atoms: C_2  and  N_3
REMARK    3  A    between atoms: N_3  and  C_4
REMARK    4  A    between atoms: C_10  and  C_11
REMARK    5  A    between atoms: C_11  and  N_12
REMARK    6  A    between atoms: N_12  and  S_13
REMARK    7  A    between atoms: S_13  and  C_16
REMARK    8  A    between atoms: N_19  and  C_20
REMARK    9  A    between atoms: C_24  and  C_25
REMARK   10  A    between atoms: C_25  and  C_26
REMARK                            x       y       z     vdW  Elec       q    Type
REMARK                         _______ _______ _______ _____ _____    ______ ____
ROOT
ATOM      1  C   UNL     1       5.739   4.933  16.037  0.00  0.00    +0.000 C 
ATOM      2  C   UNL     1       5.630   4.030  17.270  0.00  0.00    +0.000 C 
ATOM      3  C   UNL     1       6.710   4.422  18.293  0.00  0.00    +0.000 C 
ATOM      4  C   UNL     1       7.089   5.890  18.312  0.00  0.00    +0.000 A 
ATOM      5  C   UNL     1       8.144   6.313  19.132  0.00  0.00    +0.000 A 
ATOM      6  C   UNL     1       8.629   7.623  19.057  0.00  0.00    +0.000 A 
ATOM      7  C   UNL     1       8.069   8.543  18.162  0.00  0.00    +0.000 A 
ATOM      8  C   UNL     1       6.990   8.134  17.371  0.00  0.00    +0.000 A 
ATOM      9  C   UNL     1       6.496   6.822  17.440  0.00  0.00    +0.000 A 
ATOM     10  C   UNL     1       5.413   6.389  16.472  0.00  0.00    +0.000 C 
ENDROOT
BRANCH   1  11
ATOM     11  N   UNL     1       4.998   4.401  14.882  0.00  0.00    +0.000 NA
ATOM     12  H   UNL     1       4.490   3.569  15.193  0.00  0.00    +0.000 HD
BRANCH  11  14
ATOM     13  C   UNL     1       7.166   4.748  13.555  0.00  0.00    +0.000 C 
ATOM     14  C   UNL     1       5.837   4.012  13.735  0.00  0.00    +0.000 C 
ENDBRANCH  11  14
ENDBRANCH   1  11
BRANCH   7  15
ATOM     15  C   UNL     1       8.590   9.957  18.057  0.00  0.00    +0.000 C 
BRANCH  15  16
ATOM     16  N   UNL     1       9.536  10.286  19.138  0.00  0.00    +0.000 NA
ATOM     17  H   UNL     1      10.172   9.519  19.358  0.00  0.00    +0.000 HD
BRANCH  16  18
ATOM     18  S   UNL     1      10.429  11.696  18.892  0.00  0.00    +0.000 S 
ATOM     19  O   UNL     1      11.820  11.364  19.084  0.00  0.00    +0.000 OA
ATOM     20  O   UNL     1       9.944  12.324  17.685  0.00  0.00    +0.000 OA
BRANCH  18  21
ATOM     21  C   UNL     1      10.059  12.787  20.152  0.00  0.00    +0.000 A 
ATOM     22  C   UNL     1       9.049  12.639  21.112  0.00  0.00    +0.000 A 
ATOM     23  N   UNL     1       9.060  13.636  22.005  0.00  0.00    +0.000 NA
ATOM     24  N   UNL     1      10.071  14.428  21.595  0.00  0.00    +0.000 N 
ATOM     25  C   UNL     1      10.413  15.612  22.339  0.00  0.00    +0.000 C 
ATOM     26  C   UNL     1      10.701  13.962  20.477  0.00  0.00    +0.000 A 
ENDBRANCH  18  21
ENDBRANCH  16  18
ENDBRANCH  15  16
ENDBRANCH   7  15
BRANCH  10  27
ATOM     27  C   UNL     1       3.953   6.739  16.887  0.00  0.00    +0.000 C 
BRANCH  27  28
ATOM     28  C   UNL     1       3.104   6.011  17.920  0.00  0.00    +0.000 A 
ATOM     29  C   UNL     1       3.369   6.214  19.293  0.00  0.00    +0.000 A 
ATOM     30  C   UNL     1       2.811   5.386  20.283  0.00  0.00    +0.000 A 
ATOM     31  C   UNL     1       1.970   4.343  19.919  0.00  0.00    +0.000 A 
ATOM     32  C   UNL     1       1.677   4.151  18.575  0.00  0.00    +0.000 A 
ATOM     33  F   UNL     1       0.888   3.125  18.223  0.00  0.00    +0.000 F 
ATOM     34  C   UNL     1       2.230   4.965  17.580  0.00  0.00    +0.000 A 
ENDBRANCH  27  28
ENDBRANCH  10  27
TORSDOF 8
ENDMDL
