MODEL 1
REMARK VINA RESULT:      -8.0      0.000      0.000
REMARK  Name = 
REMARK  4 active torsions:
REMARK  status: ('A' for Active; 'I' for Inactive)
REMARK    1  A    between atoms: C_1  and  C_2
REMARK    2  A    between atoms: C_4  and  C_5
REMARK    3  A    between atoms: C_4  and  C_10
REMARK    4  A    between atoms: C_6  and  C_7
REMARK                            x       y       z     vdW  Elec       q    Type
REMARK                         _______ _______ _______ _____ _____    ______ ____
ROOT
ATOM      1  C   UNL     1       1.630   1.814  18.766  0.00  0.00    +0.000 C 
ATOM      2  C   UNL     1       2.500   2.998  19.192  0.00  0.00    +0.000 C 
ATOM      3  O   UNL     1       2.917   3.655  17.999  0.00  0.00    +0.000 OA
ATOM      4  C   UNL     1       3.852   4.737  18.145  0.00  0.00    +0.000 C 
ATOM      5  C   UNL     1       3.080   5.989  18.577  0.00  0.00    +0.000 A 
ATOM      6  C   UNL     1       2.506   6.071  19.864  0.00  0.00    +0.000 A 
ATOM      7  C   UNL     1       1.981   7.272  20.362  0.00  0.00    +0.000 A 
ATOM      8  C   UNL     1       1.935   8.411  19.559  0.00  0.00    +0.000 A 
ATOM      9  C   UNL     1       2.387   8.320  18.255  0.00  0.00    +0.000 A 
ATOM     10  F   UNL     1       2.303   9.397  17.457  0.00  0.00    +0.000 F 
ATOM     11  C   UNL     1       2.946   7.142  17.771  0.00  0.00    +0.000 A 
ATOM     12  F   UNL     1       3.341   7.151  16.493  0.00  0.00    +0.000 F 
ATOM     13  N   UNL     1       2.426   4.971  20.748  0.00  0.00    +0.000 N 
ATOM     14  C   UNL     1       1.793   3.811  20.308  0.00  0.00    +0.000 C 
ATOM     15  O   UNL     1       0.807   3.388  20.914  0.00  0.00    +0.000 OA
ATOM     16  H   UNL     1       3.343   4.753  21.135  0.00  0.00    +0.000 HD
ENDROOT
BRANCH   4  17
ATOM     17  C   UNL     1       5.129   4.456  19.123  0.00  0.00    +0.000 C 
ATOM     18  F   UNL     1       4.922   3.456  20.012  0.00  0.00    +0.000 F 
ATOM     19  F   UNL     1       6.264   4.109  18.464  0.00  0.00    +0.000 F 
ATOM     20  F   UNL     1       5.452   5.544  19.871  0.00  0.00    +0.000 F 
ENDBRANCH   4  17
BRANCH   4  21
ATOM     21  C   UNL     1       4.569   4.969  16.825  0.00  0.00    +0.000 C 
ATOM     22  C   UNL     1       5.184   5.168  15.692  0.00  0.00    +0.000 C 
BRANCH  22  23
ATOM     23  C   UNL     1       5.827   5.286  14.418  0.00  0.00    +0.000 C 
ATOM     24  C   UNL     1       7.249   4.831  14.242  0.00  0.00    +0.000 C 
ATOM     25  C   UNL     1       6.128   4.007  13.679  0.00  0.00    +0.000 C 
ENDBRANCH  22  23
ENDBRANCH   4  21
TORSDOF 3
ENDMDL
MODEL 2
REMARK VINA RESULT:      -7.9      2.440      4.725
REMARK  Name = 
REMARK  4 active torsions:
REMARK  status: ('A' for Active; 'I' for Inactive)
REMARK    1  A    between atoms: C_1  and  C_2
REMARK    2  A    between atoms: C_4  and  C_5
REMARK    3  A    between atoms: C_4  and  C_10
REMARK    4  A    between atoms: C_6  and  C_7
REMARK                            x       y       z     vdW  Elec       q    Type
REMARK                         _______ _______ _______ _____ _____    ______ ____
ROOT
ATOM      1  C   UNL     1       2.660   3.311  21.711  0.00  0.00    +0.000 C 
ATOM      2  C   UNL     1       2.974   3.456  20.221  0.00  0.00    +0.000 C 
ATOM      3  O   UNL     1       2.848   4.838  19.904  0.00  0.00    +0.000 OA
ATOM      4  C   UNL     1       2.979   5.203  18.520  0.00  0.00    +0.000 C 
ATOM      5  C   UNL     1       4.472   5.248  18.170  0.00  0.00    +0.000 A 
ATOM      6  C   UNL     1       5.233   4.061  18.118  0.00  0.00    +0.000 A 
ATOM      7  C   UNL     1       6.536   4.043  17.600  0.00  0.00    +0.000 A 
ATOM      8  C   UNL     1       7.153   5.227  17.195  0.00  0.00    +0.000 A 
ATOM      9  C   UNL     1       6.465   6.417  17.347  0.00  0.00    +0.000 A 
ATOM     10  F   UNL     1       7.067   7.568  17.007  0.00  0.00    +0.000 F 
ATOM     11  C   UNL     1       5.158   6.433  17.822  0.00  0.00    +0.000 A 
ATOM     12  F   UNL     1       4.584   7.634  17.945  0.00  0.00    +0.000 F 
ATOM     13  N   UNL     1       4.749   2.810  18.563  0.00  0.00    +0.000 N 
ATOM     14  C   UNL     1       4.286   2.705  19.872  0.00  0.00    +0.000 C 
ATOM     15  O   UNL     1       4.822   1.910  20.646  0.00  0.00    +0.000 OA
ATOM     16  H   UNL     1       4.063   2.436  17.909  0.00  0.00    +0.000 HD
ENDROOT
BRANCH   4  17
ATOM     17  C   UNL     1       2.144   4.291  17.455  0.00  0.00    +0.000 C 
ATOM     18  F   UNL     1       1.022   4.889  16.990  0.00  0.00    +0.000 F 
ATOM     19  F   UNL     1       2.847   3.955  16.343  0.00  0.00    +0.000 F 
ATOM     20  F   UNL     1       1.728   3.117  17.999  0.00  0.00    +0.000 F 
ENDBRANCH   4  17
BRANCH   4  21
ATOM     21  C   UNL     1       2.326   6.555  18.288  0.00  0.00    +0.000 C 
ATOM     22  C   UNL     1       1.765   7.716  18.088  0.00  0.00    +0.000 C 
BRANCH  22  23
ATOM     23  C   UNL     1       1.196   8.991  17.769  0.00  0.00    +0.000 C 
ATOM     24  C   UNL     1       0.857   9.964  18.863  0.00  0.00    +0.000 C 
ATOM     25  C   UNL     1       2.058  10.206  17.997  0.00  0.00    +0.000 C 
ENDBRANCH  22  23
ENDBRANCH   4  21
TORSDOF 3
ENDMDL
MODEL 3
REMARK VINA RESULT:      -7.6      3.526      4.996
REMARK  Name = 
REMARK  4 active torsions:
REMARK  status: ('A' for Active; 'I' for Inactive)
REMARK    1  A    between atoms: C_1  and  C_2
REMARK    2  A    between atoms: C_4  and  C_5
REMARK    3  A    between atoms: C_4  and  C_10
REMARK    4  A    between atoms: C_6  and  C_7
REMARK                            x       y       z     vdW  Elec       q    Type
REMARK                         _______ _______ _______ _____ _____    ______ ____
ROOT
ATOM      1  C   UNL     1       7.561   4.814  13.666  0.00  0.00    +0.000 C 
ATOM      2  C   UNL     1       7.101   4.735  15.123  0.00  0.00    +0.000 C 
ATOM      3  O   UNL     1       7.098   6.067  15.628  0.00  0.00    +0.000 OA
ATOM      4  C   UNL     1       6.814   6.232  17.028  0.00  0.00    +0.000 C 
ATOM      5  C   UNL     1       5.297   6.142  17.227  0.00  0.00    +0.000 A 
ATOM      6  C   UNL     1       4.620   4.917  17.047  0.00  0.00    +0.000 A 
ATOM      7  C   UNL     1       3.278   4.754  17.425  0.00  0.00    +0.000 A 
ATOM      8  C   UNL     1       2.545   5.833  17.914  0.00  0.00    +0.000 A 
ATOM      9  C   UNL     1       3.158   7.071  17.989  0.00  0.00    +0.000 A 
ATOM     10  F   UNL     1       2.447   8.128  18.414  0.00  0.00    +0.000 F 
ATOM     11  C   UNL     1       4.499   7.227  17.655  0.00  0.00    +0.000 A 
ATOM     12  F   UNL     1       4.996   8.465  17.748  0.00  0.00    +0.000 F 
ATOM     13  N   UNL     1       5.230   3.768  16.495  0.00  0.00    +0.000 N 
ATOM     14  C   UNL     1       5.819   3.870  15.237  0.00  0.00    +0.000 C 
ATOM     15  O   UNL     1       5.414   3.158  14.316  0.00  0.00    +0.000 OA
ATOM     16  H   UNL     1       5.878   3.349  17.161  0.00  0.00    +0.000 HD
ENDROOT
BRANCH   4  17
ATOM     17  C   UNL     1       7.610   5.232  18.044  0.00  0.00    +0.000 C 
ATOM     18  F   UNL     1       8.277   4.236  17.415  0.00  0.00    +0.000 F 
ATOM     19  F   UNL     1       8.545   5.851  18.808  0.00  0.00    +0.000 F 
ATOM     20  F   UNL     1       6.771   4.611  18.915  0.00  0.00    +0.000 F 
ENDBRANCH   4  17
BRANCH   4  21
ATOM     21  C   UNL     1       7.346   7.575  17.498  0.00  0.00    +0.000 C 
ATOM     22  C   UNL     1       7.802   8.728  17.903  0.00  0.00    +0.000 C 
BRANCH  22  23
ATOM     23  C   UNL     1       8.202  10.036  18.329  0.00  0.00    +0.000 C 
ATOM     24  C   UNL     1       9.278  10.198  19.366  0.00  0.00    +0.000 C 
ATOM     25  C   UNL     1       9.578  10.500  17.927  0.00  0.00    +0.000 C 
ENDBRANCH  22  23
ENDBRANCH   4  21
TORSDOF 3
ENDMDL
MODEL 4
REMARK VINA RESULT:      -7.0      5.057      7.776
REMARK  Name = 
REMARK  4 active torsions:
REMARK  status: ('A' for Active; 'I' for Inactive)
REMARK    1  A    between atoms: C_1  and  C_2
REMARK    2  A    between atoms: C_4  and  C_5
REMARK    3  A    between atoms: C_4  and  C_10
REMARK    4  A    between atoms: C_6  and  C_7
REMARK                            x       y       z     vdW  Elec       q    Type
REMARK                         _______ _______ _______ _____ _____    ______ ____
ROOT
ATOM      1  C   UNL     1       1.982  13.822  18.184  0.00  0.00    +0.000 C 
ATOM      2  C   UNL     1       0.843  12.882  18.583  0.00  0.00    +0.000 C 
ATOM      3  O   UNL     1       1.441  11.650  18.974  0.00  0.00    +0.000 OA
ATOM      4  C   UNL     1       0.552  10.562  19.277  0.00  0.00    +0.000 C 
ATOM      5  C   UNL     1       0.010  10.762  20.698  0.00  0.00    +0.000 A 
ATOM      6  C   UNL     1      -0.886  11.814  20.983  0.00  0.00    +0.000 A 
ATOM      7  C   UNL     1      -1.559  11.895  22.212  0.00  0.00    +0.000 A 
ATOM      8  C   UNL     1      -1.294  10.977  23.227  0.00  0.00    +0.000 A 
ATOM      9  C   UNL     1      -0.332  10.007  23.007  0.00  0.00    +0.000 A 
ATOM     10  F   UNL     1      -0.034   9.147  23.994  0.00  0.00    +0.000 F 
ATOM     11  C   UNL     1       0.307   9.898  21.776  0.00  0.00    +0.000 A 
ATOM     12  F   UNL     1       1.230   8.936  21.668  0.00  0.00    +0.000 F 
ATOM     13  N   UNL     1      -1.185  12.846  20.067  0.00  0.00    +0.000 N 
ATOM     14  C   UNL     1      -0.135  13.600  19.550  0.00  0.00    +0.000 C 
ATOM     15  O   UNL     1      -0.109  14.818  19.736  0.00  0.00    +0.000 OA
ATOM     16  H   UNL     1      -1.781  12.500  19.317  0.00  0.00    +0.000 HD
ENDROOT
BRANCH   4  17
ATOM     17  C   UNL     1      -0.655  10.301  18.210  0.00  0.00    +0.000 C 
ATOM     18  F   UNL     1      -1.783   9.811  18.774  0.00  0.00    +0.000 F 
ATOM     19  F   UNL     1      -1.053  11.414  17.543  0.00  0.00    +0.000 F 
ATOM     20  F   UNL     1      -0.308   9.400  17.253  0.00  0.00    +0.000 F 
ENDBRANCH   4  17
BRANCH   4  21
ATOM     21  C   UNL     1       1.303   9.246  19.162  0.00  0.00    +0.000 C 
ATOM     22  C   UNL     1       1.948   8.116  19.063  0.00  0.00    +0.000 C 
BRANCH  22  23
ATOM     23  C   UNL     1       2.680   6.885  19.063  0.00  0.00    +0.000 C 
ATOM     24  C   UNL     1       2.335   5.800  18.082  0.00  0.00    +0.000 C 
ATOM     25  C   UNL     1       3.577   6.619  17.882  0.00  0.00    +0.000 C 
ENDBRANCH  22  23
ENDBRANCH   4  21
TORSDOF 3
ENDMDL
MODEL 5
REMARK VINA RESULT:      -6.9      2.679      5.120
REMARK  Name = 
REMARK  4 active torsions:
REMARK  status: ('A' for Active; 'I' for Inactive)
REMARK    1  A    between atoms: C_1  and  C_2
REMARK    2  A    between atoms: C_4  and  C_5
REMARK    3  A    between atoms: C_4  and  C_10
REMARK    4  A    between atoms: C_6  and  C_7
REMARK                            x       y       z     vdW  Elec       q    Type
REMARK                         _______ _______ _______ _____ _____    ______ ____
ROOT
ATOM      1  C   UNL     1       8.170   5.215  18.565  0.00  0.00    +0.000 C 
ATOM      2  C   UNL     1       6.824   5.325  17.847  0.00  0.00    +0.000 C 
ATOM      3  O   UNL     1       5.828   4.879  18.763  0.00  0.00    +0.000 OA
ATOM      4  C   UNL     1       4.484   4.777  18.265  0.00  0.00    +0.000 C 
ATOM      5  C   UNL     1       3.863   6.179  18.258  0.00  0.00    +0.000 A 
ATOM      6  C   UNL     1       4.318   7.161  17.352  0.00  0.00    +0.000 A 
ATOM      7  C   UNL     1       3.636   8.374  17.176  0.00  0.00    +0.000 A 
ATOM      8  C   UNL     1       2.525   8.681  17.961  0.00  0.00    +0.000 A 
ATOM      9  C   UNL     1       2.133   7.780  18.935  0.00  0.00    +0.000 A 
ATOM     10  F   UNL     1       1.094   8.087  19.729  0.00  0.00    +0.000 F 
ATOM     11  C   UNL     1       2.782   6.559  19.084  0.00  0.00    +0.000 A 
ATOM     12  F   UNL     1       2.337   5.764  20.062  0.00  0.00    +0.000 F 
ATOM     13  N   UNL     1       5.472   7.002  16.552  0.00  0.00    +0.000 N 
ATOM     14  C   UNL     1       6.682   6.718  17.180  0.00  0.00    +0.000 C 
ATOM     15  O   UNL     1       7.633   7.491  17.047  0.00  0.00    +0.000 OA
ATOM     16  H   UNL     1       5.297   6.341  15.796  0.00  0.00    +0.000 HD
ENDROOT
BRANCH   4  17
ATOM     17  C   UNL     1       4.308   4.038  16.820  0.00  0.00    +0.000 C 
ATOM     18  F   UNL     1       4.588   4.838  15.764  0.00  0.00    +0.000 F 
ATOM     19  F   UNL     1       5.101   2.950  16.655  0.00  0.00    +0.000 F 
ATOM     20  F   UNL     1       3.035   3.605  16.617  0.00  0.00    +0.000 F 
ENDBRANCH   4  17
BRANCH   4  21
ATOM     21  C   UNL     1       3.686   3.834  19.150  0.00  0.00    +0.000 C 
ATOM     22  C   UNL     1       3.000   3.024  19.909  0.00  0.00    +0.000 C 
BRANCH  22  23
ATOM     23  C   UNL     1       2.163   2.206  20.734  0.00  0.00    +0.000 C 
ATOM     24  C   UNL     1       1.819   2.642  22.131  0.00  0.00    +0.000 C 
ATOM     25  C   UNL     1       0.785   2.728  21.047  0.00  0.00    +0.000 C 
ENDBRANCH  22  23
ENDBRANCH   4  21
TORSDOF 3
ENDMDL
MODEL 6
REMARK VINA RESULT:      -6.6      2.394      5.158
REMARK  Name = 
REMARK  4 active torsions:
REMARK  status: ('A' for Active; 'I' for Inactive)
REMARK    1  A    between atoms: C_1  and  C_2
REMARK    2  A    between atoms: C_4  and  C_5
REMARK    3  A    between atoms: C_4  and  C_10
REMARK    4  A    between atoms: C_6  and  C_7
REMARK                            x       y       z     vdW  Elec       q    Type
REMARK                         _______ _______ _______ _____ _____    ______ ____
ROOT
ATOM      1  C   UNL     1       3.963   1.778  21.503  0.00  0.00    +0.000 C 
ATOM      2  C   UNL     1       3.377   2.349  20.210  0.00  0.00    +0.000 C 
ATOM      3  O   UNL     1       3.331   3.764  20.366  0.00  0.00    +0.000 OA
ATOM      4  C   UNL     1       2.699   4.515  19.316  0.00  0.00    +0.000 C 
ATOM      5  C   UNL     1       3.695   4.663  18.159  0.00  0.00    +0.000 A 
ATOM      6  C   UNL     1       4.068   3.544  17.384  0.00  0.00    +0.000 A 
ATOM      7  C   UNL     1       4.805   3.682  16.199  0.00  0.00    +0.000 A 
ATOM      8  C   UNL     1       5.268   4.934  15.794  0.00  0.00    +0.000 A 
ATOM      9  C   UNL     1       5.012   6.027  16.602  0.00  0.00    +0.000 A 
ATOM     10  F   UNL     1       5.494   7.229  16.247  0.00  0.00    +0.000 F 
ATOM     11  C   UNL     1       4.246   5.901  17.757  0.00  0.00    +0.000 A 
ATOM     12  F   UNL     1       4.066   7.013  18.477  0.00  0.00    +0.000 F 
ATOM     13  N   UNL     1       3.723   2.217  17.724  0.00  0.00    +0.000 N 
ATOM     14  C   UNL     1       4.092   1.736  18.978  0.00  0.00    +0.000 C 
ATOM     15  O   UNL     1       4.830   0.752  19.060  0.00  0.00    +0.000 OA
ATOM     16  H   UNL     1       2.734   2.047  17.552  0.00  0.00    +0.000 HD
ENDROOT
BRANCH   4  17
ATOM     17  C   UNL     1       1.260   3.947  18.794  0.00  0.00    +0.000 C 
ATOM     18  F   UNL     1       0.866   4.472  17.610  0.00  0.00    +0.000 F 
ATOM     19  F   UNL     1       1.230   2.603  18.608  0.00  0.00    +0.000 F 
ATOM     20  F   UNL     1       0.253   4.225  19.664  0.00  0.00    +0.000 F 
ENDBRANCH   4  17
BRANCH   4  21
ATOM     21  C   UNL     1       2.277   5.874  19.847  0.00  0.00    +0.000 C 
ATOM     22  C   UNL     1       1.915   7.041  20.304  0.00  0.00    +0.000 C 
BRANCH  22  23
ATOM     23  C   UNL     1       1.578   8.301  20.896  0.00  0.00    +0.000 C 
ATOM     24  C   UNL     1       0.704   9.275  20.156  0.00  0.00    +0.000 C 
ATOM     25  C   UNL     1       0.144   8.503  21.314  0.00  0.00    +0.000 C 
ENDBRANCH  22  23
ENDBRANCH   4  21
TORSDOF 3
ENDMDL
MODEL 7
REMARK VINA RESULT:      -6.6      5.352      8.172
REMARK  Name = 
REMARK  4 active torsions:
REMARK  status: ('A' for Active; 'I' for Inactive)
REMARK    1  A    between atoms: C_1  and  C_2
REMARK    2  A    between atoms: C_4  and  C_5
REMARK    3  A    between atoms: C_4  and  C_10
REMARK    4  A    between atoms: C_6  and  C_7
REMARK                            x       y       z     vdW  Elec       q    Type
REMARK                         _______ _______ _______ _____ _____    ______ ____
ROOT
ATOM      1  C   UNL     1       1.050  14.633  18.356  0.00  0.00    +0.000 C 
ATOM      2  C   UNL     1       0.090  13.499  18.722  0.00  0.00    +0.000 C 
ATOM      3  O   UNL     1       0.881  12.328  18.899  0.00  0.00    +0.000 OA
ATOM      4  C   UNL     1       0.177  11.096  19.131  0.00  0.00    +0.000 C 
ATOM      5  C   UNL     1      -0.242  11.049  20.605  0.00  0.00    +0.000 A 
ATOM      6  C   UNL     1      -1.235  11.921  21.098  0.00  0.00    +0.000 A 
ATOM      7  C   UNL     1      -1.787  11.761  22.378  0.00  0.00    +0.000 A 
ATOM      8  C   UNL     1      -1.304  10.777  23.239  0.00  0.00    +0.000 A 
ATOM      9  C   UNL     1      -0.250   9.987  22.816  0.00  0.00    +0.000 A 
ATOM     10  F   UNL     1       0.256   9.068  23.656  0.00  0.00    +0.000 F 
ATOM     11  C   UNL     1       0.272  10.115  21.533  0.00  0.00    +0.000 A 
ATOM     12  F   UNL     1       1.297   9.315  21.225  0.00  0.00    +0.000 F 
ATOM     13  N   UNL     1      -1.758  13.001  20.351  0.00  0.00    +0.000 N 
ATOM     14  C   UNL     1      -0.872  13.952  19.852  0.00  0.00    +0.000 C 
ATOM     15  O   UNL     1      -0.988  15.131  20.192  0.00  0.00    +0.000 OA
ATOM     16  H   UNL     1      -2.375  12.664  19.614  0.00  0.00    +0.000 HD
ENDROOT
BRANCH   4  17
ATOM     17  C   UNL     1      -1.086  10.794  18.142  0.00  0.00    +0.000 C 
ATOM     18  F   UNL     1      -1.499  11.876  17.441  0.00  0.00    +0.000 F 
ATOM     19  F   UNL     1      -0.839   9.844  17.204  0.00  0.00    +0.000 F 
ATOM     20  F   UNL     1      -2.181  10.366  18.824  0.00  0.00    +0.000 F 
ENDBRANCH   4  17
BRANCH   4  21
ATOM     21  C   UNL     1       1.079   9.924  18.784  0.00  0.00    +0.000 C 
ATOM     22  C   UNL     1       1.853   8.917  18.485  0.00  0.00    +0.000 C 
BRANCH  22  23
ATOM     23  C   UNL     1       2.612   7.757  18.125  0.00  0.00    +0.000 C 
ATOM     24  C   UNL     1       2.908   6.697  19.149  0.00  0.00    +0.000 C 
ATOM     25  C   UNL     1       1.880   6.441  18.085  0.00  0.00    +0.000 C 
ENDBRANCH  22  23
ENDBRANCH   4  21
TORSDOF 3
ENDMDL
MODEL 8
REMARK VINA RESULT:      -6.6      7.254      9.949
REMARK  Name = 
REMARK  4 active torsions:
REMARK  status: ('A' for Active; 'I' for Inactive)
REMARK    1  A    between atoms: C_1  and  C_2
REMARK    2  A    between atoms: C_4  and  C_5
REMARK    3  A    between atoms: C_4  and  C_10
REMARK    4  A    between atoms: C_6  and  C_7
REMARK                            x       y       z     vdW  Elec       q    Type
REMARK                         _______ _______ _______ _____ _____    ______ ____
ROOT
ATOM      1  C   UNL     1       2.395  13.493  20.075  0.00  0.00    +0.000 C 
ATOM      2  C   UNL     1       1.469  12.276  20.125  0.00  0.00    +0.000 C 
ATOM      3  O   UNL     1       0.214  12.731  20.621  0.00  0.00    +0.000 OA
ATOM      4  C   UNL     1      -0.788  11.732  20.871  0.00  0.00    +0.000 C 
ATOM      5  C   UNL     1      -1.441  11.356  19.536  0.00  0.00    +0.000 A 
ATOM      6  C   UNL     1      -0.715  10.645  18.556  0.00  0.00    +0.000 A 
ATOM      7  C   UNL     1      -1.341  10.106  17.422  0.00  0.00    +0.000 A 
ATOM      8  C   UNL     1      -2.696  10.333  17.186  0.00  0.00    +0.000 A 
ATOM      9  C   UNL     1      -3.399  11.126  18.076  0.00  0.00    +0.000 A 
ATOM     10  F   UNL     1      -4.693  11.393  17.833  0.00  0.00    +0.000 F 
ATOM     11  C   UNL     1      -2.792  11.628  19.223  0.00  0.00    +0.000 A 
ATOM     12  F   UNL     1      -3.551  12.394  20.012  0.00  0.00    +0.000 F 
ATOM     13  N   UNL     1       0.675  10.408  18.642  0.00  0.00    +0.000 N 
ATOM     14  C   UNL     1       1.527  11.501  18.782  0.00  0.00    +0.000 C 
ATOM     15  O   UNL     1       2.392  11.712  17.930  0.00  0.00    +0.000 OA
ATOM     16  H   UNL     1       0.877   9.703  19.349  0.00  0.00    +0.000 HD
ENDROOT
BRANCH   4  17
ATOM     17  C   UNL     1      -0.293  10.407  21.687  0.00  0.00    +0.000 C 
ATOM     18  F   UNL     1      -0.739   9.244  21.156  0.00  0.00    +0.000 F 
ATOM     19  F   UNL     1       1.055  10.268  21.750  0.00  0.00    +0.000 F 
ATOM     20  F   UNL     1      -0.728  10.405  22.975  0.00  0.00    +0.000 F 
ENDBRANCH   4  17
BRANCH   4  21
ATOM     21  C   UNL     1      -1.818  12.279  21.845  0.00  0.00    +0.000 C 
ATOM     22  C   UNL     1      -2.703  12.749  22.681  0.00  0.00    +0.000 C 
BRANCH  22  23
ATOM     23  C   UNL     1      -3.656  13.365  23.555  0.00  0.00    +0.000 C 
ATOM     24  C   UNL     1      -5.109  12.988  23.476  0.00  0.00    +0.000 C 
ATOM     25  C   UNL     1      -4.273  12.497  24.621  0.00  0.00    +0.000 C 
ENDBRANCH  22  23
ENDBRANCH   4  21
TORSDOF 3
ENDMDL
MODEL 9
REMARK VINA RESULT:      -6.5      5.136      7.713
REMARK  Name = 
REMARK  4 active torsions:
REMARK  status: ('A' for Active; 'I' for Inactive)
REMARK    1  A    between atoms: C_1  and  C_2
REMARK    2  A    between atoms: C_4  and  C_5
REMARK    3  A    between atoms: C_4  and  C_10
REMARK    4  A    between atoms: C_6  and  C_7
REMARK                            x       y       z     vdW  Elec       q    Type
REMARK                         _______ _______ _______ _____ _____    ______ ____
ROOT
ATOM      1  C   UNL     1      -0.794  10.629  23.120  0.00  0.00    +0.000 C 
ATOM      2  C   UNL     1      -0.753  11.316  21.754  0.00  0.00    +0.000 C 
ATOM      3  O   UNL     1      -0.298  10.346  20.815  0.00  0.00    +0.000 OA
ATOM      4  C   UNL     1      -0.062  10.800  19.472  0.00  0.00    +0.000 C 
ATOM      5  C   UNL     1      -1.410  10.885  18.746  0.00  0.00    +0.000 A 
ATOM      6  C   UNL     1      -2.359  11.866  19.105  0.00  0.00    +0.000 A 
ATOM      7  C   UNL     1      -3.503  12.104  18.329  0.00  0.00    +0.000 A 
ATOM      8  C   UNL     1      -3.779  11.313  17.215  0.00  0.00    +0.000 A 
ATOM      9  C   UNL     1      -2.921  10.271  16.914  0.00  0.00    +0.000 A 
ATOM     10  F   UNL     1      -3.203   9.471  15.872  0.00  0.00    +0.000 F 
ATOM     11  C   UNL     1      -1.765  10.057  17.657  0.00  0.00    +0.000 A 
ATOM     12  F   UNL     1      -1.007   9.016  17.295  0.00  0.00    +0.000 F 
ATOM     13  N   UNL     1      -2.232  12.685  20.250  0.00  0.00    +0.000 N 
ATOM     14  C   UNL     1      -2.083  12.072  21.491  0.00  0.00    +0.000 C 
ATOM     15  O   UNL     1      -2.914  12.281  22.377  0.00  0.00    +0.000 OA
ATOM     16  H   UNL     1      -1.509  13.389  20.110  0.00  0.00    +0.000 HD
ENDROOT
BRANCH   4  17
ATOM     17  C   UNL     1       0.785  12.187  19.321  0.00  0.00    +0.000 C 
ATOM     18  F   UNL     1       0.268  13.043  18.408  0.00  0.00    +0.000 F 
ATOM     19  F   UNL     1       0.872  12.910  20.467  0.00  0.00    +0.000 F 
ATOM     20  F   UNL     1       2.066  11.966  18.924  0.00  0.00    +0.000 F 
ENDBRANCH   4  17
BRANCH   4  21
ATOM     21  C   UNL     1       0.875   9.834  18.767  0.00  0.00    +0.000 C 
ATOM     22  C   UNL     1       1.679   9.004  18.162  0.00  0.00    +0.000 C 
BRANCH  22  23
ATOM     23  C   UNL     1       2.473   8.044  17.455  0.00  0.00    +0.000 C 
ATOM     24  C   UNL     1       3.713   7.474  18.086  0.00  0.00    +0.000 C 
ATOM     25  C   UNL     1       2.475   6.632  17.981  0.00  0.00    +0.000 C 
ENDBRANCH  22  23
ENDBRANCH   4  21
TORSDOF 3
ENDMDL
