MODEL 1
REMARK VINA RESULT:      -6.1      0.000      0.000
REMARK  Name = 
REMARK  1 active torsions:
REMARK  status: ('A' for Active; 'I' for Inactive)
REMARK    1  A    between atoms: C_2  and  C_3
REMARK                            x       y       z     vdW  Elec       q    Type
REMARK                         _______ _______ _______ _____ _____    ______ ____
ROOT
ATOM      1  O   UNL     1       5.006   3.245  19.692  0.00  0.00    +0.000 OA
ATOM      2  C   UNL     1       4.571   3.585  18.584  0.00  0.00    +0.000 C 
ATOM      3  N   UNL     1       5.321   4.413  17.750  0.00  0.00    +0.000 N 
ATOM      4  C   UNL     1       6.709   4.709  18.144  0.00  0.00    +0.000 C 
ATOM      5  C   UNL     1       7.245   5.880  17.304  0.00  0.00    +0.000 C 
ATOM      6  C   UNL     1       6.178   6.986  17.160  0.00  0.00    +0.000 C 
ATOM      7  C   UNL     1       5.677   6.058  16.010  0.00  0.00    +0.000 C 
ATOM      8  C   UNL     1       4.898   4.797  16.403  0.00  0.00    +0.000 C 
ATOM      9  N   UNL     1       7.125   5.691  15.806  0.00  0.00    +0.000 NA
ATOM     10  H   UNL     1       7.632   6.397  15.271  0.00  0.00    +0.000 HD
ENDROOT
BRANCH   2  11
ATOM     11  C   UNL     1       3.168   3.149  18.077  0.00  0.00    +0.000 C 
ATOM     12  C   UNL     1       2.464   1.991  18.840  0.00  0.00    +0.000 C 
ATOM     13  C   UNL     1       1.131   2.716  18.571  0.00  0.00    +0.000 C 
ATOM     14  C   UNL     1       1.942   4.015  18.504  0.00  0.00    +0.000 C 
ENDBRANCH   2  11
TORSDOF 1
ENDMDL
MODEL 2
REMARK VINA RESULT:      -6.0      1.252      1.313
REMARK  Name = 
REMARK  1 active torsions:
REMARK  status: ('A' for Active; 'I' for Inactive)
REMARK    1  A    between atoms: C_2  and  C_3
REMARK                            x       y       z     vdW  Elec       q    Type
REMARK                         _______ _______ _______ _____ _____    ______ ____
ROOT
ATOM      1  O   UNL     1       3.765   5.196  19.976  0.00  0.00    +0.000 OA
ATOM      2  C   UNL     1       3.962   4.534  18.950  0.00  0.00    +0.000 C 
ATOM      3  N   UNL     1       5.194   4.579  18.299  0.00  0.00    +0.000 N 
ATOM      4  C   UNL     1       6.300   5.283  18.972  0.00  0.00    +0.000 C 
ATOM      5  C   UNL     1       7.446   5.515  17.974  0.00  0.00    +0.000 C 
ATOM      6  C   UNL     1       6.898   5.967  16.603  0.00  0.00    +0.000 C 
ATOM      7  C   UNL     1       6.703   4.431  16.412  0.00  0.00    +0.000 C 
ATOM      8  C   UNL     1       5.515   3.771  17.123  0.00  0.00    +0.000 C 
ATOM      9  N   UNL     1       7.934   4.266  17.269  0.00  0.00    +0.000 NA
ATOM     10  H   UNL     1       8.795   4.415  16.741  0.00  0.00    +0.000 HD
ENDROOT
BRANCH   2  11
ATOM     11  C   UNL     1       2.852   3.653  18.309  0.00  0.00    +0.000 C 
ATOM     12  C   UNL     1       2.497   2.321  19.029  0.00  0.00    +0.000 C 
ATOM     13  C   UNL     1       1.037   2.556  18.595  0.00  0.00    +0.000 C 
ATOM     14  C   UNL     1       1.367   4.052  18.573  0.00  0.00    +0.000 C 
ENDBRANCH   2  11
TORSDOF 1
ENDMDL
MODEL 3
REMARK VINA RESULT:      -6.0      1.993      5.091
REMARK  Name = 
REMARK  1 active torsions:
REMARK  status: ('A' for Active; 'I' for Inactive)
REMARK    1  A    between atoms: C_2  and  C_3
REMARK                            x       y       z     vdW  Elec       q    Type
REMARK                         _______ _______ _______ _____ _____    ______ ____
ROOT
ATOM      1  O   UNL     1       5.578   4.000  18.895  0.00  0.00    +0.000 OA
ATOM      2  C   UNL     1       4.546   4.122  18.224  0.00  0.00    +0.000 C 
ATOM      3  N   UNL     1       3.299   3.831  18.776  0.00  0.00    +0.000 N 
ATOM      4  C   UNL     1       3.236   3.562  20.223  0.00  0.00    +0.000 C 
ATOM      5  C   UNL     1       1.872   2.942  20.573  0.00  0.00    +0.000 C 
ATOM      6  C   UNL     1       1.464   1.887  19.523  0.00  0.00    +0.000 C 
ATOM      7  C   UNL     1       0.976   3.153  18.752  0.00  0.00    +0.000 C 
ATOM      8  C   UNL     1       2.037   4.018  18.061  0.00  0.00    +0.000 C 
ATOM      9  N   UNL     1       0.675   3.743  20.107  0.00  0.00    +0.000 NA
ATOM     10  H   UNL     1      -0.208   3.403  20.490  0.00  0.00    +0.000 HD
ENDROOT
BRANCH   2  11
ATOM     11  C   UNL     1       4.577   4.562  16.733  0.00  0.00    +0.000 C 
ATOM     12  C   UNL     1       5.191   5.955  16.415  0.00  0.00    +0.000 C 
ATOM     13  C   UNL     1       5.736   5.341  15.111  0.00  0.00    +0.000 C 
ATOM     14  C   UNL     1       5.715   3.988  15.831  0.00  0.00    +0.000 C 
ENDBRANCH   2  11
TORSDOF 1
ENDMDL
MODEL 4
REMARK VINA RESULT:      -6.0      1.186      1.240
REMARK  Name = 
REMARK  1 active torsions:
REMARK  status: ('A' for Active; 'I' for Inactive)
REMARK    1  A    between atoms: C_2  and  C_3
REMARK                            x       y       z     vdW  Elec       q    Type
REMARK                         _______ _______ _______ _____ _____    ______ ____
ROOT
ATOM      1  O   UNL     1       5.020   3.170  19.654  0.00  0.00    +0.000 OA
ATOM      2  C   UNL     1       4.364   3.977  18.985  0.00  0.00    +0.000 C 
ATOM      3  N   UNL     1       4.977   4.745  17.995  0.00  0.00    +0.000 N 
ATOM      4  C   UNL     1       6.373   4.430  17.649  0.00  0.00    +0.000 C 
ATOM      5  C   UNL     1       6.966   5.573  16.808  0.00  0.00    +0.000 C 
ATOM      6  C   UNL     1       6.551   6.946  17.378  0.00  0.00    +0.000 C 
ATOM      7  C   UNL     1       5.260   6.663  16.547  0.00  0.00    +0.000 C 
ATOM      8  C   UNL     1       4.248   5.666  17.123  0.00  0.00    +0.000 C 
ATOM      9  N   UNL     1       6.160   5.938  15.578  0.00  0.00    +0.000 NA
ATOM     10  H   UNL     1       6.652   6.577  14.953  0.00  0.00    +0.000 HD
ENDROOT
BRANCH   2  11
ATOM     11  C   UNL     1       2.846   4.210  19.227  0.00  0.00    +0.000 C 
ATOM     12  C   UNL     1       1.987   2.969  19.602  0.00  0.00    +0.000 C 
ATOM     13  C   UNL     1       1.160   3.901  20.509  0.00  0.00    +0.000 C 
ATOM     14  C   UNL     1       2.412   4.780  20.613  0.00  0.00    +0.000 C 
ENDBRANCH   2  11
TORSDOF 1
ENDMDL
MODEL 5
REMARK VINA RESULT:      -5.9      1.487      1.869
REMARK  Name = 
REMARK  1 active torsions:
REMARK  status: ('A' for Active; 'I' for Inactive)
REMARK    1  A    between atoms: C_2  and  C_3
REMARK                            x       y       z     vdW  Elec       q    Type
REMARK                         _______ _______ _______ _____ _____    ______ ____
ROOT
ATOM      1  O   UNL     1       3.568   2.409  17.683  0.00  0.00    +0.000 OA
ATOM      2  C   UNL     1       3.354   3.610  17.889  0.00  0.00    +0.000 C 
ATOM      3  N   UNL     1       4.139   4.588  17.279  0.00  0.00    +0.000 N 
ATOM      4  C   UNL     1       5.095   4.154  16.246  0.00  0.00    +0.000 C 
ATOM      5  C   UNL     1       6.081   5.295  15.945  0.00  0.00    +0.000 C 
ATOM      6  C   UNL     1       6.538   5.984  17.249  0.00  0.00    +0.000 C 
ATOM      7  C   UNL     1       5.194   6.755  17.061  0.00  0.00    +0.000 C 
ATOM      8  C   UNL     1       3.897   6.023  17.426  0.00  0.00    +0.000 C 
ATOM      9  N   UNL     1       5.432   6.613  15.579  0.00  0.00    +0.000 NA
ATOM     10  H   UNL     1       6.097   7.303  15.226  0.00  0.00    +0.000 HD
ENDROOT
BRANCH   2  11
ATOM     11  C   UNL     1       2.238   4.096  18.857  0.00  0.00    +0.000 C 
ATOM     12  C   UNL     1       1.122   3.078  19.225  0.00  0.00    +0.000 C 
ATOM     13  C   UNL     1       1.101   3.712  20.629  0.00  0.00    +0.000 C 
ATOM     14  C   UNL     1       2.561   4.112  20.384  0.00  0.00    +0.000 C 
ENDBRANCH   2  11
TORSDOF 1
ENDMDL
MODEL 6
REMARK VINA RESULT:      -5.9      1.541      2.057
REMARK  Name = 
REMARK  1 active torsions:
REMARK  status: ('A' for Active; 'I' for Inactive)
REMARK    1  A    between atoms: C_2  and  C_3
REMARK                            x       y       z     vdW  Elec       q    Type
REMARK                         _______ _______ _______ _____ _____    ______ ____
ROOT
ATOM      1  O   UNL     1       3.444   2.505  17.604  0.00  0.00    +0.000 OA
ATOM      2  C   UNL     1       3.760   3.548  18.190  0.00  0.00    +0.000 C 
ATOM      3  N   UNL     1       4.836   4.315  17.746  0.00  0.00    +0.000 N 
ATOM      4  C   UNL     1       5.455   3.950  16.460  0.00  0.00    +0.000 C 
ATOM      5  C   UNL     1       6.802   4.676  16.312  0.00  0.00    +0.000 C 
ATOM      6  C   UNL     1       7.589   4.649  17.640  0.00  0.00    +0.000 C 
ATOM      7  C   UNL     1       6.676   5.873  17.960  0.00  0.00    +0.000 C 
ATOM      8  C   UNL     1       5.220   5.591  18.350  0.00  0.00    +0.000 C 
ATOM      9  N   UNL     1       6.734   6.179  16.485  0.00  0.00    +0.000 NA
ATOM     10  H   UNL     1       7.598   6.653  16.221  0.00  0.00    +0.000 HD
ENDROOT
BRANCH   2  11
ATOM     11  C   UNL     1       3.013   4.040  19.462  0.00  0.00    +0.000 C 
ATOM     12  C   UNL     1       1.461   4.105  19.395  0.00  0.00    +0.000 C 
ATOM     13  C   UNL     1       1.448   3.688  20.879  0.00  0.00    +0.000 C 
ATOM     14  C   UNL     1       2.800   3.014  20.619  0.00  0.00    +0.000 C 
ENDBRANCH   2  11
TORSDOF 1
ENDMDL
MODEL 7
REMARK VINA RESULT:      -5.9      2.095      5.186
REMARK  Name = 
REMARK  1 active torsions:
REMARK  status: ('A' for Active; 'I' for Inactive)
REMARK    1  A    between atoms: C_2  and  C_3
REMARK                            x       y       z     vdW  Elec       q    Type
REMARK                         _______ _______ _______ _____ _____    ______ ____
ROOT
ATOM      1  O   UNL     1       3.791   6.117  17.393  0.00  0.00    +0.000 OA
ATOM      2  C   UNL     1       4.066   4.912  17.345  0.00  0.00    +0.000 C 
ATOM      3  N   UNL     1       3.206   3.963  17.898  0.00  0.00    +0.000 N 
ATOM      4  C   UNL     1       1.886   4.422  18.363  0.00  0.00    +0.000 C 
ATOM      5  C   UNL     1       1.236   3.330  19.229  0.00  0.00    +0.000 C 
ATOM      6  C   UNL     1       2.271   2.700  20.185  0.00  0.00    +0.000 C 
ATOM      7  C   UNL     1       2.608   1.852  18.919  0.00  0.00    +0.000 C 
ATOM      8  C   UNL     1       3.437   2.521  17.815  0.00  0.00    +0.000 C 
ATOM      9  N   UNL     1       1.146   1.970  18.569  0.00  0.00    +0.000 NA
ATOM     10  H   UNL     1       0.569   1.309  19.090  0.00  0.00    +0.000 HD
ENDROOT
BRANCH   2  11
ATOM     11  C   UNL     1       5.386   4.390  16.711  0.00  0.00    +0.000 C 
ATOM     12  C   UNL     1       5.448   4.316  15.159  0.00  0.00    +0.000 C 
ATOM     13  C   UNL     1       6.936   4.704  15.269  0.00  0.00    +0.000 C 
ATOM     14  C   UNL     1       6.578   5.390  16.591  0.00  0.00    +0.000 C 
ENDBRANCH   2  11
TORSDOF 1
ENDMDL
MODEL 8
REMARK VINA RESULT:      -5.8      1.832      5.035
REMARK  Name = 
REMARK  1 active torsions:
REMARK  status: ('A' for Active; 'I' for Inactive)
REMARK    1  A    between atoms: C_2  and  C_3
REMARK                            x       y       z     vdW  Elec       q    Type
REMARK                         _______ _______ _______ _____ _____    ______ ____
ROOT
ATOM      1  O   UNL     1       6.188   4.135  16.581  0.00  0.00    +0.000 OA
ATOM      2  C   UNL     1       5.667   4.725  17.535  0.00  0.00    +0.000 C 
ATOM      3  N   UNL     1       4.436   4.310  18.042  0.00  0.00    +0.000 N 
ATOM      4  C   UNL     1       3.876   3.046  17.535  0.00  0.00    +0.000 C 
ATOM      5  C   UNL     1       2.398   2.935  17.945  0.00  0.00    +0.000 C 
ATOM      6  C   UNL     1       1.675   4.287  17.761  0.00  0.00    +0.000 C 
ATOM      7  C   UNL     1       2.305   4.573  19.160  0.00  0.00    +0.000 C 
ATOM      8  C   UNL     1       3.798   4.919  19.209  0.00  0.00    +0.000 C 
ATOM      9  N   UNL     1       2.139   3.098  19.428  0.00  0.00    +0.000 NA
ATOM     10  H   UNL     1       1.184   2.858  19.697  0.00  0.00    +0.000 HD
ENDROOT
BRANCH   2  11
ATOM     11  C   UNL     1       6.323   5.971  18.194  0.00  0.00    +0.000 C 
ATOM     12  C   UNL     1       7.649   5.747  18.975  0.00  0.00    +0.000 C 
ATOM     13  C   UNL     1       8.098   7.134  18.473  0.00  0.00    +0.000 C 
ATOM     14  C   UNL     1       7.162   6.918  17.279  0.00  0.00    +0.000 C 
ENDBRANCH   2  11
TORSDOF 1
ENDMDL
MODEL 9
REMARK VINA RESULT:      -5.8      2.125      5.197
REMARK  Name = 
REMARK  1 active torsions:
REMARK  status: ('A' for Active; 'I' for Inactive)
REMARK    1  A    between atoms: C_2  and  C_3
REMARK                            x       y       z     vdW  Elec       q    Type
REMARK                         _______ _______ _______ _____ _____    ______ ____
ROOT
ATOM      1  O   UNL     1       4.524   4.943  16.483  0.00  0.00    +0.000 OA
ATOM      2  C   UNL     1       4.718   4.340  17.545  0.00  0.00    +0.000 C 
ATOM      3  N   UNL     1       3.700   3.590  18.134  0.00  0.00    +0.000 N 
ATOM      4  C   UNL     1       2.462   3.388  17.362  0.00  0.00    +0.000 C 
ATOM      5  C   UNL     1       1.360   2.846  18.287  0.00  0.00    +0.000 C 
ATOM      6  C   UNL     1       1.371   3.582  19.644  0.00  0.00    +0.000 C 
ATOM      7  C   UNL     1       2.496   2.547  19.956  0.00  0.00    +0.000 C 
ATOM      8  C   UNL     1       3.883   2.799  19.351  0.00  0.00    +0.000 C 
ATOM      9  N   UNL     1       1.739   1.600  19.059  0.00  0.00    +0.000 NA
ATOM     10  H   UNL     1       0.947   1.166  19.535  0.00  0.00    +0.000 HD
ENDROOT
BRANCH   2  11
ATOM     11  C   UNL     1       6.076   4.409  18.299  0.00  0.00    +0.000 C 
ATOM     12  C   UNL     1       7.285   5.016  17.532  0.00  0.00    +0.000 C 
ATOM     13  C   UNL     1       7.754   5.605  18.877  0.00  0.00    +0.000 C 
ATOM     14  C   UNL     1       6.284   5.579  19.311  0.00  0.00    +0.000 C 
ENDBRANCH   2  11
TORSDOF 1
ENDMDL
