MODEL 1
REMARK VINA RESULT:      -8.1      0.000      0.000
REMARK  Name = 
REMARK  5 active torsions:
REMARK  status: ('A' for Active; 'I' for Inactive)
REMARK    1  A    between atoms: C_2  and  C_3
REMARK    2  A    between atoms: C_3  and  N_4
REMARK    3  A    between atoms: C_9  and  C_10
REMARK    4  A    between atoms: N_17  and  C_18
REMARK    5  A    between atoms: C_24  and  C_25
REMARK                            x       y       z     vdW  Elec       q    Type
REMARK                         _______ _______ _______ _____ _____    ______ ____
ROOT
ATOM      1  O   UNL     1       0.387   5.139  20.429  0.00  0.00    +0.000 OA
ATOM      2  C   UNL     1       1.552   5.359  20.751  0.00  0.00    +0.000 C 
ATOM      3  N   UNL     1       2.151   6.615  20.793  0.00  0.00    +0.000 N 
ATOM      4  H   UNL     1       3.173   6.623  20.745  0.00  0.00    +0.000 HD
ENDROOT
BRANCH   3   5
ATOM      5  C   UNL     1       1.480   7.862  20.668  0.00  0.00    +0.000 A 
ATOM      6  C   UNL     1       0.835   8.448  21.772  0.00  0.00    +0.000 A 
ATOM      7  C   UNL     1       0.130   9.651  21.659  0.00  0.00    +0.000 A 
ATOM      8  C   UNL     1       0.066  10.296  20.435  0.00  0.00    +0.000 A 
ATOM      9 CL   UNL     1      -0.829  11.754  20.275  0.00  0.00    +0.000 Cl
ATOM     10  C   UNL     1       0.734   9.764  19.336  0.00  0.00    +0.000 A 
ATOM     11  C   UNL     1       1.460   8.553  19.440  0.00  0.00    +0.000 A 
BRANCH  11  12
ATOM     12  C   UNL     1       2.161   8.082  18.193  0.00  0.00    +0.000 C 
ATOM     13  F   UNL     1       1.844   6.812  17.825  0.00  0.00    +0.000 F 
ATOM     14  F   UNL     1       1.887   8.866  17.114  0.00  0.00    +0.000 F 
ATOM     15  F   UNL     1       3.518   8.094  18.328  0.00  0.00    +0.000 F 
ENDBRANCH  11  12
ENDBRANCH   3   5
BRANCH   2  16
ATOM     16  C   UNL     1       2.511   4.201  21.020  0.00  0.00    +0.000 C 
BRANCH  16  17
ATOM     17  N   UNL     1       3.118   3.800  19.769  0.00  0.00    +0.000 N 
ATOM     18  C   UNL     1       2.704   2.690  19.089  0.00  0.00    +0.000 C 
ATOM     19  O   UNL     1       1.854   1.884  19.430  0.00  0.00    +0.000 OA
ATOM     20  S   UNL     1       3.621   2.529  17.602  0.00  0.00    +0.000 S 
ATOM     21  C   UNL     1       4.581   3.931  17.935  0.00  0.00    +0.000 C 
ATOM     22  C   UNL     1       5.584   4.319  17.139  0.00  0.00    +0.000 C 
ATOM     23  C   UNL     1       4.115   4.557  19.204  0.00  0.00    +0.000 C 
ATOM     24  O   UNL     1       4.517   5.608  19.677  0.00  0.00    +0.000 OA
BRANCH  22  25
ATOM     25  C   UNL     1       6.413   5.430  17.427  0.00  0.00    +0.000 A 
ATOM     26  C   UNL     1       7.539   5.511  18.238  0.00  0.00    +0.000 A 
ATOM     27  C   UNL     1       7.989   6.852  18.217  0.00  0.00    +0.000 A 
ATOM     28  C   UNL     1       7.118   7.527  17.399  0.00  0.00    +0.000 A 
ATOM     29  O   UNL     1       6.163   6.687  16.930  0.00  0.00    +0.000 OA
ENDBRANCH  22  25
ENDBRANCH  16  17
ENDBRANCH   2  16
TORSDOF 5
ENDMDL
MODEL 2
REMARK VINA RESULT:      -8.1      0.530      1.001
REMARK  Name = 
REMARK  5 active torsions:
REMARK  status: ('A' for Active; 'I' for Inactive)
REMARK    1  A    between atoms: C_2  and  C_3
REMARK    2  A    between atoms: C_3  and  N_4
REMARK    3  A    between atoms: C_9  and  C_10
REMARK    4  A    between atoms: N_17  and  C_18
REMARK    5  A    between atoms: C_24  and  C_25
REMARK                            x       y       z     vdW  Elec       q    Type
REMARK                         _______ _______ _______ _____ _____    ______ ____
ROOT
ATOM      1  O   UNL     1       0.414   5.133  20.404  0.00  0.00    +0.000 OA
ATOM      2  C   UNL     1       1.574   5.357  20.740  0.00  0.00    +0.000 C 
ATOM      3  N   UNL     1       2.169   6.615  20.785  0.00  0.00    +0.000 N 
ATOM      4  H   UNL     1       3.192   6.624  20.750  0.00  0.00    +0.000 HD
ENDROOT
BRANCH   3   5
ATOM      5  C   UNL     1       1.497   7.860  20.647  0.00  0.00    +0.000 A 
ATOM      6  C   UNL     1       0.833   8.447  21.740  0.00  0.00    +0.000 A 
ATOM      7  C   UNL     1       0.127   9.647  21.612  0.00  0.00    +0.000 A 
ATOM      8  C   UNL     1       0.081  10.290  20.387  0.00  0.00    +0.000 A 
ATOM      9 CL   UNL     1      -0.815  11.745  20.209  0.00  0.00    +0.000 Cl
ATOM     10  C   UNL     1       0.768   9.757  19.300  0.00  0.00    +0.000 A 
ATOM     11  C   UNL     1       1.495   8.549  19.418  0.00  0.00    +0.000 A 
BRANCH  11  12
ATOM     12  C   UNL     1       2.217   8.077  18.183  0.00  0.00    +0.000 C 
ATOM     13  F   UNL     1       3.572   8.064  18.303  0.00  0.00    +0.000 F 
ATOM     14  F   UNL     1       1.859   6.815  17.820  0.00  0.00    +0.000 F 
ATOM     15  F   UNL     1       1.956   8.865  17.101  0.00  0.00    +0.000 F 
ENDBRANCH  11  12
ENDBRANCH   3   5
BRANCH   2  16
ATOM     16  C   UNL     1       2.531   4.203  21.025  0.00  0.00    +0.000 C 
BRANCH  16  17
ATOM     17  N   UNL     1       3.163   3.804  19.786  0.00  0.00    +0.000 N 
ATOM     18  C   UNL     1       2.762   2.696  19.095  0.00  0.00    +0.000 C 
ATOM     19  O   UNL     1       1.907   1.889  19.418  0.00  0.00    +0.000 OA
ATOM     20  S   UNL     1       3.708   2.539  17.625  0.00  0.00    +0.000 S 
ATOM     21  C   UNL     1       4.661   3.941  17.981  0.00  0.00    +0.000 C 
ATOM     22  C   UNL     1       5.680   4.331  17.205  0.00  0.00    +0.000 C 
ATOM     23  C   UNL     1       4.170   4.564  19.242  0.00  0.00    +0.000 C 
ATOM     24  O   UNL     1       4.563   5.614  19.725  0.00  0.00    +0.000 OA
BRANCH  22  25
ATOM     25  C   UNL     1       6.502   5.442  17.512  0.00  0.00    +0.000 A 
ATOM     26  C   UNL     1       6.538   6.706  16.936  0.00  0.00    +0.000 A 
ATOM     27  C   UNL     1       7.558   7.444  17.582  0.00  0.00    +0.000 A 
ATOM     28  C   UNL     1       8.098   6.598  18.517  0.00  0.00    +0.000 A 
ATOM     29  O   UNL     1       7.481   5.392  18.476  0.00  0.00    +0.000 OA
ENDBRANCH  22  25
ENDBRANCH  16  17
ENDBRANCH   2  16
TORSDOF 5
ENDMDL
MODEL 3
REMARK VINA RESULT:      -6.9      4.542      8.531
REMARK  Name = 
REMARK  5 active torsions:
REMARK  status: ('A' for Active; 'I' for Inactive)
REMARK    1  A    between atoms: C_2  and  C_3
REMARK    2  A    between atoms: C_3  and  N_4
REMARK    3  A    between atoms: C_9  and  C_10
REMARK    4  A    between atoms: N_17  and  C_18
REMARK    5  A    between atoms: C_24  and  C_25
REMARK                            x       y       z     vdW  Elec       q    Type
REMARK                         _______ _______ _______ _____ _____    ______ ____
ROOT
ATOM      1  O   UNL     1      -0.288   7.794  21.475  0.00  0.00    +0.000 OA
ATOM      2  C   UNL     1       0.811   8.329  21.349  0.00  0.00    +0.000 C 
ATOM      3  N   UNL     1       1.933   7.733  20.779  0.00  0.00    +0.000 N 
ATOM      4  H   UNL     1       2.834   8.144  21.038  0.00  0.00    +0.000 HD
ENDROOT
BRANCH   3   5
ATOM      5  C   UNL     1       1.953   6.500  20.073  0.00  0.00    +0.000 A 
ATOM      6  C   UNL     1       1.630   5.293  20.718  0.00  0.00    +0.000 A 
ATOM      7  C   UNL     1       1.690   4.064  20.052  0.00  0.00    +0.000 A 
ATOM      8  C   UNL     1       2.066   4.023  18.720  0.00  0.00    +0.000 A 
ATOM      9 CL   UNL     1       2.180   2.516  17.903  0.00  0.00    +0.000 Cl
ATOM     10  C   UNL     1       2.346   5.206  18.043  0.00  0.00    +0.000 A 
ATOM     11  C   UNL     1       2.279   6.457  18.702  0.00  0.00    +0.000 A 
BRANCH  11  12
ATOM     12  C   UNL     1       2.581   7.673  17.866  0.00  0.00    +0.000 C 
ATOM     13  F   UNL     1       1.479   8.285  17.358  0.00  0.00    +0.000 F 
ATOM     14  F   UNL     1       3.257   8.628  18.561  0.00  0.00    +0.000 F 
ATOM     15  F   UNL     1       3.361   7.375  16.787  0.00  0.00    +0.000 F 
ENDBRANCH  11  12
ENDBRANCH   3   5
BRANCH   2  16
ATOM     16  C   UNL     1       1.073   9.706  21.953  0.00  0.00    +0.000 C 
BRANCH  16  17
ATOM     17  N   UNL     1       0.212  10.671  21.304  0.00  0.00    +0.000 N 
ATOM     18  C   UNL     1       0.384  11.029  19.997  0.00  0.00    +0.000 C 
ATOM     19  O   UNL     1       1.263  10.661  19.236  0.00  0.00    +0.000 OA
ATOM     20  S   UNL     1      -0.857  12.178  19.529  0.00  0.00    +0.000 S 
ATOM     21  C   UNL     1      -1.564  12.198  21.109  0.00  0.00    +0.000 C 
ATOM     22  C   UNL     1      -2.587  13.000  21.427  0.00  0.00    +0.000 C 
ATOM     23  C   UNL     1      -0.841  11.232  21.984  0.00  0.00    +0.000 C 
ATOM     24  O   UNL     1      -1.142  10.937  23.130  0.00  0.00    +0.000 OA
BRANCH  22  25
ATOM     25  C   UNL     1      -3.139  13.067  22.729  0.00  0.00    +0.000 A 
ATOM     26  C   UNL     1      -2.830  13.921  23.781  0.00  0.00    +0.000 A 
ATOM     27  C   UNL     1      -3.645  13.562  24.880  0.00  0.00    +0.000 A 
ATOM     28  C   UNL     1      -4.410  12.507  24.451  0.00  0.00    +0.000 A 
ATOM     29  O   UNL     1      -4.107  12.195  23.167  0.00  0.00    +0.000 OA
ENDBRANCH  22  25
ENDBRANCH  16  17
ENDBRANCH   2  16
TORSDOF 5
ENDMDL
MODEL 4
REMARK VINA RESULT:      -6.9      5.742      9.615
REMARK  Name = 
REMARK  5 active torsions:
REMARK  status: ('A' for Active; 'I' for Inactive)
REMARK    1  A    between atoms: C_2  and  C_3
REMARK    2  A    between atoms: C_3  and  N_4
REMARK    3  A    between atoms: C_9  and  C_10
REMARK    4  A    between atoms: N_17  and  C_18
REMARK    5  A    between atoms: C_24  and  C_25
REMARK                            x       y       z     vdW  Elec       q    Type
REMARK                         _______ _______ _______ _____ _____    ______ ____
ROOT
ATOM      1  O   UNL     1      -1.805   9.595  17.997  0.00  0.00    +0.000 OA
ATOM      2  C   UNL     1      -1.113  10.596  18.166  0.00  0.00    +0.000 C 
ATOM      3  N   UNL     1       0.181  10.600  18.680  0.00  0.00    +0.000 N 
ATOM      4  H   UNL     1       0.500  11.489  19.074  0.00  0.00    +0.000 HD
ENDROOT
BRANCH   3   5
ATOM      5  C   UNL     1       0.991   9.455  18.908  0.00  0.00    +0.000 A 
ATOM      6  C   UNL     1       1.691   8.844  17.852  0.00  0.00    +0.000 A 
ATOM      7  C   UNL     1       2.454   7.688  18.046  0.00  0.00    +0.000 A 
ATOM      8  C   UNL     1       2.540   7.128  19.309  0.00  0.00    +0.000 A 
ATOM      9 CL   UNL     1       3.444   5.687  19.553  0.00  0.00    +0.000 Cl
ATOM     10  C   UNL     1       1.897   7.737  20.383  0.00  0.00    +0.000 A 
ATOM     11  C   UNL     1       1.130   8.912  20.201  0.00  0.00    +0.000 A 
BRANCH  11  12
ATOM     12  C   UNL     1       0.495   9.496  21.436  0.00  0.00    +0.000 C 
ATOM     13  F   UNL     1      -0.864   9.477  21.423  0.00  0.00    +0.000 F 
ATOM     14  F   UNL     1       0.871   8.847  22.572  0.00  0.00    +0.000 F 
ATOM     15  F   UNL     1       0.839  10.803  21.622  0.00  0.00    +0.000 F 
ENDBRANCH  11  12
ENDBRANCH   3   5
BRANCH   2  16
ATOM     16  C   UNL     1      -1.697  11.987  17.932  0.00  0.00    +0.000 C 
BRANCH  16  17
ATOM     17  N   UNL     1      -3.064  12.004  18.404  0.00  0.00    +0.000 N 
ATOM     18  C   UNL     1      -4.114  11.688  17.588  0.00  0.00    +0.000 C 
ATOM     19  O   UNL     1      -4.075  11.415  16.401  0.00  0.00    +0.000 OA
ATOM     20  S   UNL     1      -5.614  11.767  18.495  0.00  0.00    +0.000 S 
ATOM     21  C   UNL     1      -4.816  12.268  19.948  0.00  0.00    +0.000 C 
ATOM     22  C   UNL     1      -5.487  12.578  21.064  0.00  0.00    +0.000 C 
ATOM     23  C   UNL     1      -3.345  12.304  19.715  0.00  0.00    +0.000 C 
ATOM     24  O   UNL     1      -2.489  12.529  20.556  0.00  0.00    +0.000 OA
BRANCH  22  25
ATOM     25  C   UNL     1      -4.852  13.043  22.242  0.00  0.00    +0.000 A 
ATOM     26  C   UNL     1      -4.562  14.342  22.640  0.00  0.00    +0.000 A 
ATOM     27  C   UNL     1      -3.895  14.271  23.886  0.00  0.00    +0.000 A 
ATOM     28  C   UNL     1      -3.806  12.935  24.187  0.00  0.00    +0.000 A 
ATOM     29  O   UNL     1      -4.366  12.190  23.204  0.00  0.00    +0.000 OA
ENDBRANCH  22  25
ENDBRANCH  16  17
ENDBRANCH   2  16
TORSDOF 5
ENDMDL
MODEL 5
REMARK VINA RESULT:      -6.7      5.840      9.906
REMARK  Name = 
REMARK  5 active torsions:
REMARK  status: ('A' for Active; 'I' for Inactive)
REMARK    1  A    between atoms: C_2  and  C_3
REMARK    2  A    between atoms: C_3  and  N_4
REMARK    3  A    between atoms: C_9  and  C_10
REMARK    4  A    between atoms: N_17  and  C_18
REMARK    5  A    between atoms: C_24  and  C_25
REMARK                            x       y       z     vdW  Elec       q    Type
REMARK                         _______ _______ _______ _____ _____    ______ ____
ROOT
ATOM      1  O   UNL     1      -1.594   9.931  18.127  0.00  0.00    +0.000 OA
ATOM      2  C   UNL     1      -0.824  10.853  18.385  0.00  0.00    +0.000 C 
ATOM      3  N   UNL     1       0.482  10.704  18.845  0.00  0.00    +0.000 N 
ATOM      4  H   UNL     1       0.878  11.515  19.329  0.00  0.00    +0.000 HD
ENDROOT
BRANCH   3   5
ATOM      5  C   UNL     1       1.210   9.486  18.905  0.00  0.00    +0.000 A 
ATOM      6  C   UNL     1       1.858   8.975  17.766  0.00  0.00    +0.000 A 
ATOM      7  C   UNL     1       2.539   7.754  17.792  0.00  0.00    +0.000 A 
ATOM      8  C   UNL     1       2.595   7.025  18.968  0.00  0.00    +0.000 A 
ATOM      9 CL   UNL     1       3.396   5.505  19.002  0.00  0.00    +0.000 Cl
ATOM     10  C   UNL     1       2.003   7.527  20.123  0.00  0.00    +0.000 A 
ATOM     11  C   UNL     1       1.319   8.766  20.112  0.00  0.00    +0.000 A 
BRANCH  11  12
ATOM     12  C   UNL     1       0.736   9.222  21.424  0.00  0.00    +0.000 C 
ATOM     13  F   UNL     1       1.081   8.444  22.484  0.00  0.00    +0.000 F 
ATOM     14  F   UNL     1       1.112  10.489  21.749  0.00  0.00    +0.000 F 
ATOM     15  F   UNL     1      -0.627   9.230  21.407  0.00  0.00    +0.000 F 
ENDBRANCH  11  12
ENDBRANCH   3   5
BRANCH   2  16
ATOM     16  C   UNL     1      -1.309  12.300  18.339  0.00  0.00    +0.000 C 
BRANCH  16  17
ATOM     17  N   UNL     1      -1.873  12.643  19.627  0.00  0.00    +0.000 N 
ATOM     18  C   UNL     1      -1.096  13.075  20.664  0.00  0.00    +0.000 C 
ATOM     19  O   UNL     1       0.119  13.179  20.687  0.00  0.00    +0.000 OA
ATOM     20  S   UNL     1      -2.107  13.442  22.050  0.00  0.00    +0.000 S 
ATOM     21  C   UNL     1      -3.558  12.967  21.233  0.00  0.00    +0.000 C 
ATOM     22  C   UNL     1      -4.751  12.956  21.839  0.00  0.00    +0.000 C 
ATOM     23  C   UNL     1      -3.230  12.580  19.832  0.00  0.00    +0.000 C 
ATOM     24  O   UNL     1      -4.034  12.283  18.962  0.00  0.00    +0.000 OA
BRANCH  22  25
ATOM     25  C   UNL     1      -5.937  12.517  21.200  0.00  0.00    +0.000 A 
ATOM     26  C   UNL     1      -6.918  13.254  20.548  0.00  0.00    +0.000 A 
ATOM     27  C   UNL     1      -7.913  12.350  20.107  0.00  0.00    +0.000 A 
ATOM     28  C   UNL     1      -7.495  11.107  20.512  0.00  0.00    +0.000 A 
ATOM     29  O   UNL     1      -6.318  11.197  21.178  0.00  0.00    +0.000 OA
ENDBRANCH  22  25
ENDBRANCH  16  17
ENDBRANCH   2  16
TORSDOF 5
ENDMDL
MODEL 6
REMARK VINA RESULT:      -6.7      2.652      3.354
REMARK  Name = 
REMARK  5 active torsions:
REMARK  status: ('A' for Active; 'I' for Inactive)
REMARK    1  A    between atoms: C_2  and  C_3
REMARK    2  A    between atoms: C_3  and  N_4
REMARK    3  A    between atoms: C_9  and  C_10
REMARK    4  A    between atoms: N_17  and  C_18
REMARK    5  A    between atoms: C_24  and  C_25
REMARK                            x       y       z     vdW  Elec       q    Type
REMARK                         _______ _______ _______ _____ _____    ______ ____
ROOT
ATOM      1  O   UNL     1       1.794   7.663  18.708  0.00  0.00    +0.000 OA
ATOM      2  C   UNL     1       1.928   7.567  19.925  0.00  0.00    +0.000 C 
ATOM      3  N   UNL     1       1.615   8.561  20.849  0.00  0.00    +0.000 N 
ATOM      4  H   UNL     1       2.078   8.484  21.759  0.00  0.00    +0.000 HD
ENDROOT
BRANCH   3   5
ATOM      5  C   UNL     1       0.910   9.763  20.572  0.00  0.00    +0.000 A 
ATOM      6  C   UNL     1       1.128  10.469  19.376  0.00  0.00    +0.000 A 
ATOM      7  C   UNL     1       0.479  11.678  19.106  0.00  0.00    +0.000 A 
ATOM      8  C   UNL     1      -0.413  12.199  20.029  0.00  0.00    +0.000 A 
ATOM      9 CL   UNL     1      -1.187  13.702  19.726  0.00  0.00    +0.000 Cl
ATOM     10  C   UNL     1      -0.685  11.498  21.200  0.00  0.00    +0.000 A 
ATOM     11  C   UNL     1      -0.042  10.268  21.480  0.00  0.00    +0.000 A 
BRANCH  11  12
ATOM     12  C   UNL     1      -0.429   9.588  22.767  0.00  0.00    +0.000 C 
ATOM     13  F   UNL     1       0.604   9.412  23.634  0.00  0.00    +0.000 F 
ATOM     14  F   UNL     1      -1.383  10.274  23.453  0.00  0.00    +0.000 F 
ATOM     15  F   UNL     1      -0.943   8.342  22.557  0.00  0.00    +0.000 F 
ENDBRANCH  11  12
ENDBRANCH   3   5
BRANCH   2  16
ATOM     16  C   UNL     1       2.600   6.338  20.533  0.00  0.00    +0.000 C 
BRANCH  16  17
ATOM     17  N   UNL     1       2.549   5.256  19.573  0.00  0.00    +0.000 N 
ATOM     18  C   UNL     1       1.546   4.330  19.583  0.00  0.00    +0.000 C 
ATOM     19  O   UNL     1       0.627   4.238  20.379  0.00  0.00    +0.000 OA
ATOM     20  S   UNL     1       1.773   3.198  18.261  0.00  0.00    +0.000 S 
ATOM     21  C   UNL     1       3.239   3.957  17.741  0.00  0.00    +0.000 C 
ATOM     22  C   UNL     1       3.980   3.474  16.736  0.00  0.00    +0.000 C 
ATOM     23  C   UNL     1       3.502   5.154  18.589  0.00  0.00    +0.000 C 
ATOM     24  O   UNL     1       4.403   5.963  18.431  0.00  0.00    +0.000 OA
BRANCH  22  25
ATOM     25  C   UNL     1       5.209   4.052  16.336  0.00  0.00    +0.000 A 
ATOM     26  C   UNL     1       5.540   4.702  15.153  0.00  0.00    +0.000 A 
ATOM     27  C   UNL     1       6.904   5.070  15.232  0.00  0.00    +0.000 A 
ATOM     28  C   UNL     1       7.342   4.626  16.455  0.00  0.00    +0.000 A 
ATOM     29  O   UNL     1       6.337   4.005  17.120  0.00  0.00    +0.000 OA
ENDBRANCH  22  25
ENDBRANCH  16  17
ENDBRANCH   2  16
TORSDOF 5
ENDMDL
MODEL 7
REMARK VINA RESULT:      -6.6      5.857      9.645
REMARK  Name = 
REMARK  5 active torsions:
REMARK  status: ('A' for Active; 'I' for Inactive)
REMARK    1  A    between atoms: C_2  and  C_3
REMARK    2  A    between atoms: C_3  and  N_4
REMARK    3  A    between atoms: C_9  and  C_10
REMARK    4  A    between atoms: N_17  and  C_18
REMARK    5  A    between atoms: C_24  and  C_25
REMARK                            x       y       z     vdW  Elec       q    Type
REMARK                         _______ _______ _______ _____ _____    ______ ____
ROOT
ATOM      1  O   UNL     1      -1.921   9.635  18.212  0.00  0.00    +0.000 OA
ATOM      2  C   UNL     1      -1.214  10.635  18.303  0.00  0.00    +0.000 C 
ATOM      3  N   UNL     1       0.108  10.648  18.739  0.00  0.00    +0.000 N 
ATOM      4  H   UNL     1       0.455  11.548  19.082  0.00  0.00    +0.000 HD
ENDROOT
BRANCH   3   5
ATOM      5  C   UNL     1       0.924   9.505  18.957  0.00  0.00    +0.000 A 
ATOM      6  C   UNL     1       1.612   8.895  17.893  0.00  0.00    +0.000 A 
ATOM      7  C   UNL     1       2.381   7.742  18.080  0.00  0.00    +0.000 A 
ATOM      8  C   UNL     1       2.486   7.183  19.343  0.00  0.00    +0.000 A 
ATOM      9 CL   UNL     1       3.397   5.745  19.577  0.00  0.00    +0.000 Cl
ATOM     10  C   UNL     1       1.855   7.792  20.423  0.00  0.00    +0.000 A 
ATOM     11  C   UNL     1       1.081   8.965  20.250  0.00  0.00    +0.000 A 
BRANCH  11  12
ATOM     12  C   UNL     1       0.461   9.550  21.492  0.00  0.00    +0.000 C 
ATOM     13  F   UNL     1       0.623  10.894  21.613  0.00  0.00    +0.000 F 
ATOM     14  F   UNL     1      -0.879   9.324  21.561  0.00  0.00    +0.000 F 
ATOM     15  F   UNL     1       0.989   9.016  22.631  0.00  0.00    +0.000 F 
ENDBRANCH  11  12
ENDBRANCH   3   5
BRANCH   2  16
ATOM     16  C   UNL     1      -1.804  12.022  18.056  0.00  0.00    +0.000 C 
BRANCH  16  17
ATOM     17  N   UNL     1      -3.125  12.078  18.644  0.00  0.00    +0.000 N 
ATOM     18  C   UNL     1      -4.244  11.735  17.940  0.00  0.00    +0.000 C 
ATOM     19  O   UNL     1      -4.311  11.403  16.769  0.00  0.00    +0.000 OA
ATOM     20  S   UNL     1      -5.658  11.876  18.969  0.00  0.00    +0.000 S 
ATOM     21  C   UNL     1      -4.732  12.440  20.319  0.00  0.00    +0.000 C 
ATOM     22  C   UNL     1      -5.300  12.813  21.472  0.00  0.00    +0.000 C 
ATOM     23  C   UNL     1      -3.287  12.447  19.957  0.00  0.00    +0.000 C 
ATOM     24  O   UNL     1      -2.359  12.703  20.709  0.00  0.00    +0.000 OA
BRANCH  22  25
ATOM     25  C   UNL     1      -4.562  13.328  22.565  0.00  0.00    +0.000 A 
ATOM     26  C   UNL     1      -4.110  12.686  23.712  0.00  0.00    +0.000 A 
ATOM     27  C   UNL     1      -3.445  13.647  24.510  0.00  0.00    +0.000 A 
ATOM     28  C   UNL     1      -3.525  14.829  23.816  0.00  0.00    +0.000 A 
ATOM     29  O   UNL     1      -4.202  14.651  22.655  0.00  0.00    +0.000 OA
ENDBRANCH  22  25
ENDBRANCH  16  17
ENDBRANCH   2  16
TORSDOF 5
ENDMDL
MODEL 8
REMARK VINA RESULT:      -6.6      4.599      8.510
REMARK  Name = 
REMARK  5 active torsions:
REMARK  status: ('A' for Active; 'I' for Inactive)
REMARK    1  A    between atoms: C_2  and  C_3
REMARK    2  A    between atoms: C_3  and  N_4
REMARK    3  A    between atoms: C_9  and  C_10
REMARK    4  A    between atoms: N_17  and  C_18
REMARK    5  A    between atoms: C_24  and  C_25
REMARK                            x       y       z     vdW  Elec       q    Type
REMARK                         _______ _______ _______ _____ _____    ______ ____
ROOT
ATOM      1  O   UNL     1      -0.268   7.830  21.445  0.00  0.00    +0.000 OA
ATOM      2  C   UNL     1       0.843   8.337  21.307  0.00  0.00    +0.000 C 
ATOM      3  N   UNL     1       1.954   7.701  20.760  0.00  0.00    +0.000 N 
ATOM      4  H   UNL     1       2.863   8.100  21.010  0.00  0.00    +0.000 HD
ENDROOT
BRANCH   3   5
ATOM      5  C   UNL     1       1.951   6.446  20.092  0.00  0.00    +0.000 A 
ATOM      6  C   UNL     1       1.569   5.271  20.764  0.00  0.00    +0.000 A 
ATOM      7  C   UNL     1       1.605   4.021  20.137  0.00  0.00    +0.000 A 
ATOM      8  C   UNL     1       2.015   3.926  18.818  0.00  0.00    +0.000 A 
ATOM      9 CL   UNL     1       2.099   2.391  18.050  0.00  0.00    +0.000 Cl
ATOM     10  C   UNL     1       2.353   5.077  18.114  0.00  0.00    +0.000 A 
ATOM     11  C   UNL     1       2.311   6.350  18.733  0.00  0.00    +0.000 A 
BRANCH  11  12
ATOM     12  C   UNL     1       2.678   7.528  17.869  0.00  0.00    +0.000 C 
ATOM     13  F   UNL     1       3.364   8.503  18.523  0.00  0.00    +0.000 F 
ATOM     14  F   UNL     1       3.449   7.174  16.805  0.00  0.00    +0.000 F 
ATOM     15  F   UNL     1       1.580   8.145  17.346  0.00  0.00    +0.000 F 
ENDBRANCH  11  12
ENDBRANCH   3   5
BRANCH   2  16
ATOM     16  C   UNL     1       1.132   9.726  21.869  0.00  0.00    +0.000 C 
BRANCH  16  17
ATOM     17  N   UNL     1       0.292  10.688  21.190  0.00  0.00    +0.000 N 
ATOM     18  C   UNL     1       0.473  11.002  19.872  0.00  0.00    +0.000 C 
ATOM     19  O   UNL     1       1.344  10.592  19.125  0.00  0.00    +0.000 OA
ATOM     20  S   UNL     1      -0.743  12.161  19.367  0.00  0.00    +0.000 S 
ATOM     21  C   UNL     1      -1.451  12.245  20.945  0.00  0.00    +0.000 C 
ATOM     22  C   UNL     1      -2.458  13.077  21.236  0.00  0.00    +0.000 C 
ATOM     23  C   UNL     1      -0.750  11.292  21.851  0.00  0.00    +0.000 C 
ATOM     24  O   UNL     1      -1.058  11.039  23.005  0.00  0.00    +0.000 OA
BRANCH  22  25
ATOM     25  C   UNL     1      -3.010  13.197  22.535  0.00  0.00    +0.000 A 
ATOM     26  C   UNL     1      -4.113  12.561  23.092  0.00  0.00    +0.000 A 
ATOM     27  C   UNL     1      -4.266  13.045  24.413  0.00  0.00    +0.000 A 
ATOM     28  C   UNL     1      -3.255  13.954  24.598  0.00  0.00    +0.000 A 
ATOM     29  O   UNL     1      -2.504  14.061  23.476  0.00  0.00    +0.000 OA
ENDBRANCH  22  25
ENDBRANCH  16  17
ENDBRANCH   2  16
TORSDOF 5
ENDMDL
MODEL 9
REMARK VINA RESULT:      -6.5      5.898      9.812
REMARK  Name = 
REMARK  5 active torsions:
REMARK  status: ('A' for Active; 'I' for Inactive)
REMARK    1  A    between atoms: C_2  and  C_3
REMARK    2  A    between atoms: C_3  and  N_4
REMARK    3  A    between atoms: C_9  and  C_10
REMARK    4  A    between atoms: N_17  and  C_18
REMARK    5  A    between atoms: C_24  and  C_25
REMARK                            x       y       z     vdW  Elec       q    Type
REMARK                         _______ _______ _______ _____ _____    ______ ____
ROOT
ATOM      1  O   UNL     1      -1.800   9.587  18.640  0.00  0.00    +0.000 OA
ATOM      2  C   UNL     1      -1.028  10.530  18.488  0.00  0.00    +0.000 C 
ATOM      3  N   UNL     1       0.346  10.488  18.714  0.00  0.00    +0.000 N 
ATOM      4  H   UNL     1       0.798  11.392  18.875  0.00  0.00    +0.000 HD
ENDROOT
BRANCH   3   5
ATOM      5  C   UNL     1       1.114   9.317  18.961  0.00  0.00    +0.000 A 
ATOM      6  C   UNL     1       1.834   8.695  17.926  0.00  0.00    +0.000 A 
ATOM      7  C   UNL     1       2.557   7.516  18.139  0.00  0.00    +0.000 A 
ATOM      8  C   UNL     1       2.581   6.944  19.400  0.00  0.00    +0.000 A 
ATOM      9 CL   UNL     1       3.434   5.476  19.664  0.00  0.00    +0.000 Cl
ATOM     10  C   UNL     1       1.916   7.563  20.454  0.00  0.00    +0.000 A 
ATOM     11  C   UNL     1       1.190   8.762  20.254  0.00  0.00    +0.000 A 
BRANCH  11  12
ATOM     12  C   UNL     1       0.527   9.355  21.470  0.00  0.00    +0.000 C 
ATOM     13  F   UNL     1       0.551  10.714  21.507  0.00  0.00    +0.000 F 
ATOM     14  F   UNL     1      -0.782   8.998  21.577  0.00  0.00    +0.000 F 
ATOM     15  F   UNL     1       1.120   8.949  22.629  0.00  0.00    +0.000 F 
ENDBRANCH  11  12
ENDBRANCH   3   5
BRANCH   2  16
ATOM     16  C   UNL     1      -1.562  11.918  18.146  0.00  0.00    +0.000 C 
BRANCH  16  17
ATOM     17  N   UNL     1      -3.007  11.887  18.196  0.00  0.00    +0.000 N 
ATOM     18  C   UNL     1      -3.758  11.473  17.132  0.00  0.00    +0.000 C 
ATOM     19  O   UNL     1      -3.361  11.140  16.028  0.00  0.00    +0.000 OA
ATOM     20  S   UNL     1      -5.460  11.519  17.555  0.00  0.00    +0.000 S 
ATOM     21  C   UNL     1      -5.144  12.138  19.140  0.00  0.00    +0.000 C 
ATOM     22  C   UNL     1      -6.124  12.470  19.989  0.00  0.00    +0.000 C 
ATOM     23  C   UNL     1      -3.672  12.240  19.345  0.00  0.00    +0.000 C 
ATOM     24  O   UNL     1      -3.111  12.555  20.383  0.00  0.00    +0.000 OA
BRANCH  22  25
ATOM     25  C   UNL     1      -5.882  13.029  21.267  0.00  0.00    +0.000 A 
ATOM     26  C   UNL     1      -5.785  14.362  21.649  0.00  0.00    +0.000 A 
ATOM     27  C   UNL     1      -5.504  14.393  23.035  0.00  0.00    +0.000 A 
ATOM     28  C   UNL     1      -5.439  13.081  23.434  0.00  0.00    +0.000 A 
ATOM     29  O   UNL     1      -5.652  12.256  22.380  0.00  0.00    +0.000 OA
ENDBRANCH  22  25
ENDBRANCH  16  17
ENDBRANCH   2  16
TORSDOF 5
ENDMDL
