MODEL 1
REMARK VINA RESULT:      -6.2      0.000      0.000
REMARK  Name = 
REMARK  6 active torsions:
REMARK  status: ('A' for Active; 'I' for Inactive)
REMARK    1  A    between atoms: C_1  and  C_2
REMARK    2  A    between atoms: C_2  and  S_3
REMARK    3  A    between atoms: S_3  and  C_4
REMARK    4  A    between atoms: C_7  and  C_8
REMARK    5  A    between atoms: C_8  and  C_10
REMARK    6  A    between atoms: C_10  and  O_12
REMARK                            x       y       z     vdW  Elec       q    Type
REMARK                         _______ _______ _______ _____ _____    ______ ____
ROOT
ATOM      1  C   UNL     1       2.470   3.771  18.157  0.00  0.00    +0.000 A 
ATOM      2  C   UNL     1       2.656   5.152  18.230  0.00  0.00    +0.000 A 
ATOM      3  C   UNL     1       3.738   5.755  17.579  0.00  0.00    +0.000 A 
ATOM      4  C   UNL     1       4.660   4.987  16.850  0.00  0.00    +0.000 A 
ATOM      5  C   UNL     1       4.476   3.603  16.788  0.00  0.00    +0.000 A 
ATOM      6  C   UNL     1       3.391   3.001  17.442  0.00  0.00    +0.000 A 
ENDROOT
BRANCH   4   7
ATOM      7  C   UNL     1       5.789   5.702  16.196  0.00  0.00    +0.000 C 
ATOM      8  O   UNL     1       5.671   6.865  15.803  0.00  0.00    +0.000 OA
BRANCH   7   9
ATOM      9  C   UNL     1       7.166   5.074  15.966  0.00  0.00    +0.000 C 
ATOM     10  O   UNL     1       7.809   4.451  16.782  0.00  0.00    +0.000 OA
BRANCH   9  11
ATOM     11  O   UNL     1       7.565   5.317  14.698  0.00  0.00    +0.000 OA
ATOM     12  H   UNL     1       8.378   5.878  14.726  0.00  0.00    +0.000 HD
ENDBRANCH   9  11
ENDBRANCH   7   9
ENDBRANCH   4   7
BRANCH   1  13
ATOM     13  S   UNL     1       1.134   2.957  19.011  0.00  0.00    +0.000 S 
BRANCH  13  15
ATOM     14  C   UNL     1       2.000   3.310  21.589  0.00  0.00    +0.000 C 
ATOM     15  C   UNL     1       1.081   3.932  20.551  0.00  0.00    +0.000 C 
ENDBRANCH  13  15
ENDBRANCH   1  13
TORSDOF 5
ENDMDL
MODEL 2
REMARK VINA RESULT:      -6.1      0.740      1.554
REMARK  Name = 
REMARK  6 active torsions:
REMARK  status: ('A' for Active; 'I' for Inactive)
REMARK    1  A    between atoms: C_1  and  C_2
REMARK    2  A    between atoms: C_2  and  S_3
REMARK    3  A    between atoms: S_3  and  C_4
REMARK    4  A    between atoms: C_7  and  C_8
REMARK    5  A    between atoms: C_8  and  C_10
REMARK    6  A    between atoms: C_10  and  O_12
REMARK                            x       y       z     vdW  Elec       q    Type
REMARK                         _______ _______ _______ _____ _____    ______ ____
ROOT
ATOM      1  C   UNL     1       2.378   3.797  18.222  0.00  0.00    +0.000 A 
ATOM      2  C   UNL     1       3.278   3.174  17.356  0.00  0.00    +0.000 A 
ATOM      3  C   UNL     1       4.294   3.914  16.739  0.00  0.00    +0.000 A 
ATOM      4  C   UNL     1       4.421   5.293  16.969  0.00  0.00    +0.000 A 
ATOM      5  C   UNL     1       3.511   5.915  17.827  0.00  0.00    +0.000 A 
ATOM      6  C   UNL     1       2.494   5.171  18.444  0.00  0.00    +0.000 A 
ENDROOT
BRANCH   4   7
ATOM      7  C   UNL     1       5.520   6.011  16.266  0.00  0.00    +0.000 C 
ATOM      8  O   UNL     1       5.294   6.740  15.298  0.00  0.00    +0.000 OA
BRANCH   7   9
ATOM      9  C   UNL     1       6.990   5.914  16.680  0.00  0.00    +0.000 C 
ATOM     10  O   UNL     1       7.618   4.890  16.839  0.00  0.00    +0.000 OA
BRANCH   9  11
ATOM     11  O   UNL     1       7.495   7.157  16.840  0.00  0.00    +0.000 OA
ATOM     12  H   UNL     1       8.449   7.080  17.083  0.00  0.00    +0.000 HD
ENDBRANCH   9  11
ENDBRANCH   7   9
ENDBRANCH   4   7
BRANCH   1  13
ATOM     13  S   UNL     1       1.042   2.902  18.990  0.00  0.00    +0.000 S 
BRANCH  13  15
ATOM     14  C   UNL     1       2.088   2.934  21.526  0.00  0.00    +0.000 C 
ATOM     15  C   UNL     1       1.062   3.643  20.657  0.00  0.00    +0.000 C 
ENDBRANCH  13  15
ENDBRANCH   1  13
TORSDOF 5
ENDMDL
MODEL 3
REMARK VINA RESULT:      -6.0      0.402      1.565
REMARK  Name = 
REMARK  6 active torsions:
REMARK  status: ('A' for Active; 'I' for Inactive)
REMARK    1  A    between atoms: C_1  and  C_2
REMARK    2  A    between atoms: C_2  and  S_3
REMARK    3  A    between atoms: S_3  and  C_4
REMARK    4  A    between atoms: C_7  and  C_8
REMARK    5  A    between atoms: C_8  and  C_10
REMARK    6  A    between atoms: C_10  and  O_12
REMARK                            x       y       z     vdW  Elec       q    Type
REMARK                         _______ _______ _______ _____ _____    ______ ____
ROOT
ATOM      1  C   UNL     1       2.455   3.704  18.181  0.00  0.00    +0.000 A 
ATOM      2  C   UNL     1       3.463   2.969  17.556  0.00  0.00    +0.000 A 
ATOM      3  C   UNL     1       4.547   3.622  16.958  0.00  0.00    +0.000 A 
ATOM      4  C   UNL     1       4.638   5.023  16.966  0.00  0.00    +0.000 A 
ATOM      5  C   UNL     1       3.621   5.756  17.584  0.00  0.00    +0.000 A 
ATOM      6  C   UNL     1       2.536   5.099  18.182  0.00  0.00    +0.000 A 
ENDROOT
BRANCH   4   7
ATOM      7  C   UNL     1       5.816   5.642  16.299  0.00  0.00    +0.000 C 
ATOM      8  O   UNL     1       5.981   6.864  16.291  0.00  0.00    +0.000 OA
BRANCH   7   9
ATOM      9  C   UNL     1       6.904   4.834  15.589  0.00  0.00    +0.000 C 
ATOM     10  O   UNL     1       6.902   4.510  14.421  0.00  0.00    +0.000 OA
BRANCH   9  11
ATOM     11  O   UNL     1       7.886   4.532  16.467  0.00  0.00    +0.000 OA
ATOM     12  H   UNL     1       8.101   3.572  16.381  0.00  0.00    +0.000 HD
ENDBRANCH   9  11
ENDBRANCH   7   9
ENDBRANCH   4   7
BRANCH   1  13
ATOM     13  S   UNL     1       1.034   2.915  18.912  0.00  0.00    +0.000 S 
BRANCH  13  15
ATOM     14  C   UNL     1       1.930   2.899  21.505  0.00  0.00    +0.000 C 
ATOM     15  C   UNL     1       1.037   3.690  20.564  0.00  0.00    +0.000 C 
ENDBRANCH  13  15
ENDBRANCH   1  13
TORSDOF 5
ENDMDL
MODEL 4
REMARK VINA RESULT:      -6.0      1.696      2.235
REMARK  Name = 
REMARK  6 active torsions:
REMARK  status: ('A' for Active; 'I' for Inactive)
REMARK    1  A    between atoms: C_1  and  C_2
REMARK    2  A    between atoms: C_2  and  S_3
REMARK    3  A    between atoms: S_3  and  C_4
REMARK    4  A    between atoms: C_7  and  C_8
REMARK    5  A    between atoms: C_8  and  C_10
REMARK    6  A    between atoms: C_10  and  O_12
REMARK                            x       y       z     vdW  Elec       q    Type
REMARK                         _______ _______ _______ _____ _____    ______ ____
ROOT
ATOM      1  C   UNL     1       3.109   4.238  18.621  0.00  0.00    +0.000 A 
ATOM      2  C   UNL     1       3.874   5.025  19.483  0.00  0.00    +0.000 A 
ATOM      3  C   UNL     1       5.194   5.356  19.155  0.00  0.00    +0.000 A 
ATOM      4  C   UNL     1       5.776   4.897  17.963  0.00  0.00    +0.000 A 
ATOM      5  C   UNL     1       5.011   4.100  17.108  0.00  0.00    +0.000 A 
ATOM      6  C   UNL     1       3.689   3.770  17.439  0.00  0.00    +0.000 A 
ENDROOT
BRANCH   4   7
ATOM      7  C   UNL     1       7.188   5.283  17.692  0.00  0.00    +0.000 C 
ATOM      8  O   UNL     1       8.018   4.455  17.310  0.00  0.00    +0.000 OA
BRANCH   7   9
ATOM      9  C   UNL     1       7.719   6.709  17.854  0.00  0.00    +0.000 C 
ATOM     10  O   UNL     1       7.577   7.615  17.062  0.00  0.00    +0.000 OA
BRANCH   9  11
ATOM     11  O   UNL     1       8.377   6.813  19.030  0.00  0.00    +0.000 OA
ATOM     12  H   UNL     1       8.363   7.759  19.316  0.00  0.00    +0.000 HD
ENDBRANCH   9  11
ENDBRANCH   7   9
ENDBRANCH   4   7
BRANCH   1  13
ATOM     13  S   UNL     1       1.441   3.754  19.022  0.00  0.00    +0.000 S 
BRANCH  13  15
ATOM     14  C   UNL     1       1.830   2.889  21.596  0.00  0.00    +0.000 C 
ATOM     15  C   UNL     1       1.411   4.119  20.809  0.00  0.00    +0.000 C 
ENDBRANCH  13  15
ENDBRANCH   1  13
TORSDOF 5
ENDMDL
MODEL 5
REMARK VINA RESULT:      -6.0      1.378      1.770
REMARK  Name = 
REMARK  6 active torsions:
REMARK  status: ('A' for Active; 'I' for Inactive)
REMARK    1  A    between atoms: C_1  and  C_2
REMARK    2  A    between atoms: C_2  and  S_3
REMARK    3  A    between atoms: S_3  and  C_4
REMARK    4  A    between atoms: C_7  and  C_8
REMARK    5  A    between atoms: C_8  and  C_10
REMARK    6  A    between atoms: C_10  and  O_12
REMARK                            x       y       z     vdW  Elec       q    Type
REMARK                         _______ _______ _______ _____ _____    ______ ____
ROOT
ATOM      1  C   UNL     1       2.833   4.803  19.313  0.00  0.00    +0.000 A 
ATOM      2  C   UNL     1       2.573   4.071  18.154  0.00  0.00    +0.000 A 
ATOM      3  C   UNL     1       3.549   3.954  17.157  0.00  0.00    +0.000 A 
ATOM      4  C   UNL     1       4.800   4.577  17.297  0.00  0.00    +0.000 A 
ATOM      5  C   UNL     1       5.052   5.318  18.455  0.00  0.00    +0.000 A 
ATOM      6  C   UNL     1       4.073   5.433  19.451  0.00  0.00    +0.000 A 
ENDROOT
BRANCH   4   7
ATOM      7  C   UNL     1       5.779   4.414  16.188  0.00  0.00    +0.000 C 
ATOM      8  O   UNL     1       5.430   4.006  15.078  0.00  0.00    +0.000 OA
BRANCH   7   9
ATOM      9  C   UNL     1       7.269   4.739  16.323  0.00  0.00    +0.000 C 
ATOM     10  O   UNL     1       8.045   4.215  17.093  0.00  0.00    +0.000 OA
BRANCH   9  11
ATOM     11  O   UNL     1       7.599   5.709  15.443  0.00  0.00    +0.000 OA
ATOM     12  H   UNL     1       7.435   6.587  15.865  0.00  0.00    +0.000 HD
ENDBRANCH   9  11
ENDBRANCH   7   9
ENDBRANCH   4   7
BRANCH   1  13
ATOM     13  S   UNL     1       1.602   5.017  20.584  0.00  0.00    +0.000 S 
BRANCH  13  15
ATOM     14  C   UNL     1       2.429   2.626  21.645  0.00  0.00    +0.000 C 
ATOM     15  C   UNL     1       1.228   3.276  20.979  0.00  0.00    +0.000 C 
ENDBRANCH  13  15
ENDBRANCH   1  13
TORSDOF 5
ENDMDL
MODEL 6
REMARK VINA RESULT:      -6.0      1.234      1.358
REMARK  Name = 
REMARK  6 active torsions:
REMARK  status: ('A' for Active; 'I' for Inactive)
REMARK    1  A    between atoms: C_1  and  C_2
REMARK    2  A    between atoms: C_2  and  S_3
REMARK    3  A    between atoms: S_3  and  C_4
REMARK    4  A    between atoms: C_7  and  C_8
REMARK    5  A    between atoms: C_8  and  C_10
REMARK    6  A    between atoms: C_10  and  O_12
REMARK                            x       y       z     vdW  Elec       q    Type
REMARK                         _______ _______ _______ _____ _____    ______ ____
ROOT
ATOM      1  C   UNL     1       2.862   5.303  19.156  0.00  0.00    +0.000 A 
ATOM      2  C   UNL     1       3.221   6.516  18.568  0.00  0.00    +0.000 A 
ATOM      3  C   UNL     1       4.102   6.543  17.481  0.00  0.00    +0.000 A 
ATOM      4  C   UNL     1       4.648   5.355  16.968  0.00  0.00    +0.000 A 
ATOM      5  C   UNL     1       4.294   4.143  17.566  0.00  0.00    +0.000 A 
ATOM      6  C   UNL     1       3.412   4.120  18.655  0.00  0.00    +0.000 A 
ENDROOT
BRANCH   4   7
ATOM      7  C   UNL     1       5.586   5.469  15.817  0.00  0.00    +0.000 C 
ATOM      8  O   UNL     1       5.482   6.378  14.991  0.00  0.00    +0.000 OA
BRANCH   7   9
ATOM      9  C   UNL     1       6.740   4.493  15.569  0.00  0.00    +0.000 C 
ATOM     10  O   UNL     1       7.817   4.509  16.125  0.00  0.00    +0.000 OA
BRANCH   9  11
ATOM     11  O   UNL     1       6.375   3.596  14.628  0.00  0.00    +0.000 OA
ATOM     12  H   UNL     1       5.481   3.244  14.858  0.00  0.00    +0.000 HD
ENDBRANCH   9  11
ENDBRANCH   7   9
ENDBRANCH   4   7
BRANCH   1  13
ATOM     13  S   UNL     1       1.781   5.228  20.571  0.00  0.00    +0.000 S 
BRANCH  13  15
ATOM     14  C   UNL     1       1.530   2.688  21.575  0.00  0.00    +0.000 C 
ATOM     15  C   UNL     1       1.112   3.541  20.389  0.00  0.00    +0.000 C 
ENDBRANCH  13  15
ENDBRANCH   1  13
TORSDOF 5
ENDMDL
MODEL 7
REMARK VINA RESULT:      -5.9      1.258      1.877
REMARK  Name = 
REMARK  6 active torsions:
REMARK  status: ('A' for Active; 'I' for Inactive)
REMARK    1  A    between atoms: C_1  and  C_2
REMARK    2  A    between atoms: C_2  and  S_3
REMARK    3  A    between atoms: S_3  and  C_4
REMARK    4  A    between atoms: C_7  and  C_8
REMARK    5  A    between atoms: C_8  and  C_10
REMARK    6  A    between atoms: C_10  and  O_12
REMARK                            x       y       z     vdW  Elec       q    Type
REMARK                         _______ _______ _______ _____ _____    ______ ____
ROOT
ATOM      1  C   UNL     1       2.945   3.309  18.471  0.00  0.00    +0.000 A 
ATOM      2  C   UNL     1       3.938   3.474  19.438  0.00  0.00    +0.000 A 
ATOM      3  C   UNL     1       5.201   3.960  19.079  0.00  0.00    +0.000 A 
ATOM      4  C   UNL     1       5.497   4.281  17.745  0.00  0.00    +0.000 A 
ATOM      5  C   UNL     1       4.504   4.104  16.778  0.00  0.00    +0.000 A 
ATOM      6  C   UNL     1       3.240   3.617  17.140  0.00  0.00    +0.000 A 
ENDROOT
BRANCH   4   7
ATOM      7  C   UNL     1       6.866   4.781  17.443  0.00  0.00    +0.000 C 
ATOM      8  O   UNL     1       7.842   4.419  18.104  0.00  0.00    +0.000 OA
BRANCH   7   9
ATOM      9  C   UNL     1       7.176   5.761  16.309  0.00  0.00    +0.000 C 
ATOM     10  O   UNL     1       7.446   5.463  15.165  0.00  0.00    +0.000 OA
BRANCH   9  11
ATOM     11  O   UNL     1       7.100   7.027  16.775  0.00  0.00    +0.000 OA
ATOM     12  H   UNL     1       7.478   7.050  17.687  0.00  0.00    +0.000 HD
ENDBRANCH   9  11
ENDBRANCH   7   9
ENDBRANCH   4   7
BRANCH   1  13
ATOM     13  S   UNL     1       1.341   2.648  18.876  0.00  0.00    +0.000 S 
BRANCH  13  15
ATOM     14  C   UNL     1       1.328   2.714  21.618  0.00  0.00    +0.000 C 
ATOM     15  C   UNL     1       0.981   3.568  20.410  0.00  0.00    +0.000 C 
ENDBRANCH  13  15
ENDBRANCH   1  13
TORSDOF 5
ENDMDL
MODEL 8
REMARK VINA RESULT:      -5.9      1.506      2.176
REMARK  Name = 
REMARK  6 active torsions:
REMARK  status: ('A' for Active; 'I' for Inactive)
REMARK    1  A    between atoms: C_1  and  C_2
REMARK    2  A    between atoms: C_2  and  S_3
REMARK    3  A    between atoms: S_3  and  C_4
REMARK    4  A    between atoms: C_7  and  C_8
REMARK    5  A    between atoms: C_8  and  C_10
REMARK    6  A    between atoms: C_10  and  O_12
REMARK                            x       y       z     vdW  Elec       q    Type
REMARK                         _______ _______ _______ _____ _____    ______ ____
ROOT
ATOM      1  C   UNL     1       3.501   5.186  18.997  0.00  0.00    +0.000 A 
ATOM      2  C   UNL     1       3.453   5.233  17.604  0.00  0.00    +0.000 A 
ATOM      3  C   UNL     1       4.607   5.000  16.847  0.00  0.00    +0.000 A 
ATOM      4  C   UNL     1       5.834   4.725  17.472  0.00  0.00    +0.000 A 
ATOM      5  C   UNL     1       5.881   4.688  18.867  0.00  0.00    +0.000 A 
ATOM      6  C   UNL     1       4.723   4.922  19.623  0.00  0.00    +0.000 A 
ENDROOT
BRANCH   4   7
ATOM      7  C   UNL     1       7.018   4.499  16.597  0.00  0.00    +0.000 C 
ATOM      8  O   UNL     1       8.119   4.210  17.070  0.00  0.00    +0.000 OA
BRANCH   7   9
ATOM      9  C   UNL     1       6.970   4.597  15.070  0.00  0.00    +0.000 C 
ATOM     10  O   UNL     1       7.435   5.494  14.400  0.00  0.00    +0.000 OA
BRANCH   9  11
ATOM     11  O   UNL     1       6.327   3.519  14.570  0.00  0.00    +0.000 OA
ATOM     12  H   UNL     1       6.552   3.434  13.612  0.00  0.00    +0.000 HD
ENDBRANCH   9  11
ENDBRANCH   7   9
ENDBRANCH   4   7
BRANCH   1  13
ATOM     13  S   UNL     1       2.067   5.523  19.999  0.00  0.00    +0.000 S 
BRANCH  13  15
ATOM     14  C   UNL     1       1.376   3.116  21.118  0.00  0.00    +0.000 C 
ATOM     15  C   UNL     1       1.180   3.936  19.854  0.00  0.00    +0.000 C 
ENDBRANCH  13  15
ENDBRANCH   1  13
TORSDOF 5
ENDMDL
MODEL 9
REMARK VINA RESULT:      -5.8      0.626      1.066
REMARK  Name = 
REMARK  6 active torsions:
REMARK  status: ('A' for Active; 'I' for Inactive)
REMARK    1  A    between atoms: C_1  and  C_2
REMARK    2  A    between atoms: C_2  and  S_3
REMARK    3  A    between atoms: S_3  and  C_4
REMARK    4  A    between atoms: C_7  and  C_8
REMARK    5  A    between atoms: C_8  and  C_10
REMARK    6  A    between atoms: C_10  and  O_12
REMARK                            x       y       z     vdW  Elec       q    Type
REMARK                         _______ _______ _______ _____ _____    ______ ____
ROOT
ATOM      1  C   UNL     1       2.527   4.121  18.160  0.00  0.00    +0.000 A 
ATOM      2  C   UNL     1       2.742   5.498  18.223  0.00  0.00    +0.000 A 
ATOM      3  C   UNL     1       3.923   6.054  17.717  0.00  0.00    +0.000 A 
ATOM      4  C   UNL     1       4.915   5.240  17.147  0.00  0.00    +0.000 A 
ATOM      5  C   UNL     1       4.701   3.861  17.095  0.00  0.00    +0.000 A 
ATOM      6  C   UNL     1       3.517   3.307  17.602  0.00  0.00    +0.000 A 
ENDROOT
BRANCH   4   7
ATOM      7  C   UNL     1       6.147   5.907  16.642  0.00  0.00    +0.000 C 
ATOM      8  O   UNL     1       6.328   7.117  16.789  0.00  0.00    +0.000 OA
BRANCH   7   9
ATOM      9  C   UNL     1       7.272   5.163  15.918  0.00  0.00    +0.000 C 
ATOM     10  O   UNL     1       7.517   5.224  14.732  0.00  0.00    +0.000 OA
BRANCH   9  11
ATOM     11  O   UNL     1       7.966   4.420  16.808  0.00  0.00    +0.000 OA
ATOM     12  H   UNL     1       8.455   3.716  16.317  0.00  0.00    +0.000 HD
ENDBRANCH   9  11
ENDBRANCH   7   9
ENDBRANCH   4   7
BRANCH   1  13
ATOM     13  S   UNL     1       1.060   3.367  18.835  0.00  0.00    +0.000 S 
BRANCH  13  15
ATOM     14  C   UNL     1       2.068   3.563  21.378  0.00  0.00    +0.000 C 
ATOM     15  C   UNL     1       1.759   2.537  20.301  0.00  0.00    +0.000 C 
ENDBRANCH  13  15
ENDBRANCH   1  13
TORSDOF 5
ENDMDL
