MODEL 1
REMARK VINA RESULT:      -6.8      0.000      0.000
REMARK  Name = 
REMARK  10 active torsions:
REMARK  status: ('A' for Active; 'I' for Inactive)
REMARK    1  A    between atoms: C_1  and  C_2
REMARK    2  A    between atoms: C_2  and  C_3
REMARK    3  A    between atoms: C_3  and  C_4
REMARK    4  A    between atoms: C_4  and  C_5
REMARK    5  A    between atoms: C_5  and  O_6
REMARK    6  A    between atoms: C_5  and  C_7
REMARK    7  A    between atoms: C_8  and  C_9
REMARK    8  A    between atoms: C_14  and  O_15
REMARK    9  A    between atoms: O_15  and  C_16
REMARK   10  A    between atoms: C_17  and  O_18
REMARK                            x       y       z     vdW  Elec       q    Type
REMARK                         _______ _______ _______ _____ _____    ______ ____
ROOT
ATOM      1  C   UNL     1       6.325   4.807  17.460  0.00  0.00    +0.000 C 
ATOM      2  O   UNL     1       7.045   4.485  18.659  0.00  0.00    +0.000 OA
ATOM      3  C   UNL     1       7.611   5.421  19.444  0.00  0.00    +0.000 C 
ATOM      4  O   UNL     1       7.942   5.150  20.596  0.00  0.00    +0.000 OA
ATOM      5  C   UNL     1       7.936   6.761  18.858  0.00  0.00    +0.000 C 
ATOM      6  C   UNL     1       7.131   7.174  17.638  0.00  0.00    +0.000 C 
ATOM      7  C   UNL     1       6.983   5.967  16.701  0.00  0.00    +0.000 C 
ENDROOT
BRANCH   1   9
ATOM      8  C   UNL     1       3.879   4.127  18.122  0.00  0.00    +0.000 C 
ATOM      9  C   UNL     1       4.832   4.980  17.712  0.00  0.00    +0.000 C 
BRANCH   8  10
ATOM     10  C   UNL     1       3.995   2.679  18.491  0.00  0.00    +0.000 C 
BRANCH  10  11
ATOM     11  O   UNL     1       4.894   2.656  19.600  0.00  0.00    +0.000 OA
ATOM     12  H   UNL     1       4.525   3.255  20.270  0.00  0.00    +0.000 HD
ENDBRANCH  10  11
BRANCH  10  13
ATOM     13  C   UNL     1       2.685   1.988  18.899  0.00  0.00    +0.000 C 
BRANCH  13  14
ATOM     14  C   UNL     1       1.454   2.894  19.010  0.00  0.00    +0.000 C 
BRANCH  14  16
ATOM     15  C   UNL     1       1.615   2.681  21.553  0.00  0.00    +0.000 C 
ATOM     16  C   UNL     1       1.211   3.547  20.373  0.00  0.00    +0.000 C 
ENDBRANCH  14  16
ENDBRANCH  13  14
ENDBRANCH  10  13
ENDBRANCH   8  10
ENDBRANCH   1   9
BRANCH   6  17
ATOM     17  O   UNL     1       7.802   8.222  16.912  0.00  0.00    +0.000 OA
ATOM     18  C   UNL     1       8.221   9.321  17.721  0.00  0.00    +0.000 C 
ENDBRANCH   6  17
BRANCH   7  19
ATOM     19  O   UNL     1       6.258   6.266  15.502  0.00  0.00    +0.000 OA
ATOM     20  H   UNL     1       5.599   5.561  15.366  0.00  0.00    +0.000 HD
ENDBRANCH   7  19
TORSDOF 8
ENDMDL
MODEL 2
REMARK VINA RESULT:      -6.7      2.838      6.728
REMARK  Name = 
REMARK  10 active torsions:
REMARK  status: ('A' for Active; 'I' for Inactive)
REMARK    1  A    between atoms: C_1  and  C_2
REMARK    2  A    between atoms: C_2  and  C_3
REMARK    3  A    between atoms: C_3  and  C_4
REMARK    4  A    between atoms: C_4  and  C_5
REMARK    5  A    between atoms: C_5  and  O_6
REMARK    6  A    between atoms: C_5  and  C_7
REMARK    7  A    between atoms: C_8  and  C_9
REMARK    8  A    between atoms: C_14  and  O_15
REMARK    9  A    between atoms: O_15  and  C_16
REMARK   10  A    between atoms: C_17  and  O_18
REMARK                            x       y       z     vdW  Elec       q    Type
REMARK                         _______ _______ _______ _____ _____    ______ ____
ROOT
ATOM      1  C   UNL     1       4.164   3.005  17.849  0.00  0.00    +0.000 C 
ATOM      2  O   UNL     1       2.931   3.292  17.172  0.00  0.00    +0.000 OA
ATOM      3  C   UNL     1       1.834   3.739  17.811  0.00  0.00    +0.000 C 
ATOM      4  O   UNL     1       0.916   4.261  17.181  0.00  0.00    +0.000 OA
ATOM      5  C   UNL     1       1.696   3.489  19.281  0.00  0.00    +0.000 C 
ATOM      6  C   UNL     1       2.989   3.268  20.049  0.00  0.00    +0.000 C 
ATOM      7  C   UNL     1       3.916   2.366  19.223  0.00  0.00    +0.000 C 
ENDROOT
BRANCH   1   9
ATOM      8  C   UNL     1       5.605   4.976  16.891  0.00  0.00    +0.000 C 
ATOM      9  C   UNL     1       5.105   4.204  17.869  0.00  0.00    +0.000 C 
BRANCH   8  10
ATOM     10  C   UNL     1       5.371   4.908  15.412  0.00  0.00    +0.000 C 
BRANCH  10  11
ATOM     11  O   UNL     1       5.848   6.156  14.908  0.00  0.00    +0.000 OA
ATOM     12  H   UNL     1       5.671   6.156  13.952  0.00  0.00    +0.000 HD
ENDBRANCH  10  11
BRANCH  10  13
ATOM     13  C   UNL     1       6.090   3.767  14.675  0.00  0.00    +0.000 C 
BRANCH  13  14
ATOM     14  C   UNL     1       6.660   4.113  13.295  0.00  0.00    +0.000 C 
BRANCH  14  16
ATOM     15  C   UNL     1       4.650   3.423  11.876  0.00  0.00    +0.000 C 
ATOM     16  C   UNL     1       6.142   3.284  12.118  0.00  0.00    +0.000 C 
ENDBRANCH  14  16
ENDBRANCH  13  14
ENDBRANCH  10  13
ENDBRANCH   8  10
ENDBRANCH   1   9
BRANCH   6  17
ATOM     17  O   UNL     1       2.733   2.612  21.305  0.00  0.00    +0.000 OA
ATOM     18  C   UNL     1       1.373   2.679  21.736  0.00  0.00    +0.000 C 
ENDBRANCH   6  17
BRANCH   7  19
ATOM     19  O   UNL     1       5.156   2.075  19.879  0.00  0.00    +0.000 OA
ATOM     20  H   UNL     1       5.056   2.298  20.822  0.00  0.00    +0.000 HD
ENDBRANCH   7  19
TORSDOF 8
ENDMDL
MODEL 3
REMARK VINA RESULT:      -6.7      1.734      3.459
REMARK  Name = 
REMARK  10 active torsions:
REMARK  status: ('A' for Active; 'I' for Inactive)
REMARK    1  A    between atoms: C_1  and  C_2
REMARK    2  A    between atoms: C_2  and  C_3
REMARK    3  A    between atoms: C_3  and  C_4
REMARK    4  A    between atoms: C_4  and  C_5
REMARK    5  A    between atoms: C_5  and  O_6
REMARK    6  A    between atoms: C_5  and  C_7
REMARK    7  A    between atoms: C_8  and  C_9
REMARK    8  A    between atoms: C_14  and  O_15
REMARK    9  A    between atoms: O_15  and  C_16
REMARK   10  A    between atoms: C_17  and  O_18
REMARK                            x       y       z     vdW  Elec       q    Type
REMARK                         _______ _______ _______ _____ _____    ______ ____
ROOT
ATOM      1  C   UNL     1       4.007   4.758  17.898  0.00  0.00    +0.000 C 
ATOM      2  O   UNL     1       4.046   5.839  16.956  0.00  0.00    +0.000 OA
ATOM      3  C   UNL     1       5.149   6.156  16.253  0.00  0.00    +0.000 C 
ATOM      4  O   UNL     1       5.067   6.866  15.252  0.00  0.00    +0.000 OA
ATOM      5  C   UNL     1       6.488   5.729  16.770  0.00  0.00    +0.000 C 
ATOM      6  C   UNL     1       6.496   4.529  17.702  0.00  0.00    +0.000 C 
ATOM      7  C   UNL     1       5.322   4.648  18.683  0.00  0.00    +0.000 C 
ENDROOT
BRANCH   1   9
ATOM      8  C   UNL     1       2.520   2.625  17.548  0.00  0.00    +0.000 C 
ATOM      9  C   UNL     1       3.537   3.455  17.263  0.00  0.00    +0.000 C 
BRANCH   8  10
ATOM     10  C   UNL     1       1.475   2.735  18.617  0.00  0.00    +0.000 C 
BRANCH  10  11
ATOM     11  O   UNL     1       0.487   1.768  18.261  0.00  0.00    +0.000 OA
ATOM     12  H   UNL     1       0.206   1.340  19.089  0.00  0.00    +0.000 HD
ENDBRANCH  10  11
BRANCH  10  13
ATOM     13  C   UNL     1       1.954   2.453  20.049  0.00  0.00    +0.000 C 
BRANCH  13  14
ATOM     14  C   UNL     1       1.954   3.651  21.005  0.00  0.00    +0.000 C 
BRANCH  14  16
ATOM     15  C   UNL     1       1.973   6.164  20.538  0.00  0.00    +0.000 C 
ATOM     16  C   UNL     1       1.162   4.880  20.554  0.00  0.00    +0.000 C 
ENDBRANCH  14  16
ENDBRANCH  13  14
ENDBRANCH  10  13
ENDBRANCH   8  10
ENDBRANCH   1   9
BRANCH   6  17
ATOM     17  O   UNL     1       7.715   4.486  18.470  0.00  0.00    +0.000 OA
ATOM     18  C   UNL     1       7.993   5.683  19.197  0.00  0.00    +0.000 C 
ENDBRANCH   6  17
BRANCH   7  19
ATOM     19  O   UNL     1       5.261   3.571  19.627  0.00  0.00    +0.000 OA
ATOM     20  H   UNL     1       5.724   3.855  20.436  0.00  0.00    +0.000 HD
ENDBRANCH   7  19
TORSDOF 8
ENDMDL
MODEL 4
REMARK VINA RESULT:      -6.6      2.403      6.328
REMARK  Name = 
REMARK  10 active torsions:
REMARK  status: ('A' for Active; 'I' for Inactive)
REMARK    1  A    between atoms: C_1  and  C_2
REMARK    2  A    between atoms: C_2  and  C_3
REMARK    3  A    between atoms: C_3  and  C_4
REMARK    4  A    between atoms: C_4  and  C_5
REMARK    5  A    between atoms: C_5  and  O_6
REMARK    6  A    between atoms: C_5  and  C_7
REMARK    7  A    between atoms: C_8  and  C_9
REMARK    8  A    between atoms: C_14  and  O_15
REMARK    9  A    between atoms: O_15  and  C_16
REMARK   10  A    between atoms: C_17  and  O_18
REMARK                            x       y       z     vdW  Elec       q    Type
REMARK                         _______ _______ _______ _____ _____    ______ ____
ROOT
ATOM      1  C   UNL     1       4.183   3.893  17.727  0.00  0.00    +0.000 C 
ATOM      2  O   UNL     1       2.915   3.897  17.055  0.00  0.00    +0.000 OA
ATOM      3  C   UNL     1       1.743   3.999  17.708  0.00  0.00    +0.000 C 
ATOM      4  O   UNL     1       0.718   4.306  17.103  0.00  0.00    +0.000 OA
ATOM      5  C   UNL     1       1.682   3.620  19.156  0.00  0.00    +0.000 C 
ATOM      6  C   UNL     1       2.992   3.690  19.923  0.00  0.00    +0.000 C 
ATOM      7  C   UNL     1       4.117   3.118  19.050  0.00  0.00    +0.000 C 
ENDROOT
BRANCH   1   9
ATOM      8  C   UNL     1       6.011   5.770  17.593  0.00  0.00    +0.000 C 
ATOM      9  C   UNL     1       4.781   5.290  17.840  0.00  0.00    +0.000 C 
BRANCH   8  10
ATOM     10  C   UNL     1       7.228   5.052  17.093  0.00  0.00    +0.000 C 
BRANCH  10  11
ATOM     11  O   UNL     1       7.624   4.208  18.175  0.00  0.00    +0.000 OA
ATOM     12  H   UNL     1       7.344   4.654  18.993  0.00  0.00    +0.000 HD
ENDBRANCH  10  11
BRANCH  10  13
ATOM     13  C   UNL     1       7.025   4.189  15.839  0.00  0.00    +0.000 C 
BRANCH  13  14
ATOM     14  C   UNL     1       6.432   4.905  14.620  0.00  0.00    +0.000 C 
BRANCH  14  16
ATOM     15  C   UNL     1       6.140   3.441  12.545  0.00  0.00    +0.000 C 
ATOM     16  C   UNL     1       5.477   4.085  13.749  0.00  0.00    +0.000 C 
ENDBRANCH  14  16
ENDBRANCH  13  14
ENDBRANCH  10  13
ENDBRANCH   8  10
ENDBRANCH   1   9
BRANCH   6  17
ATOM     17  O   UNL     1       2.921   2.904  21.129  0.00  0.00    +0.000 OA
ATOM     18  C   UNL     1       1.593   2.595  21.551  0.00  0.00    +0.000 C 
ENDBRANCH   6  17
BRANCH   7  19
ATOM     19  O   UNL     1       5.394   3.114  19.701  0.00  0.00    +0.000 OA
ATOM     20  H   UNL     1       5.858   3.934  19.454  0.00  0.00    +0.000 HD
ENDBRANCH   7  19
TORSDOF 8
ENDMDL
MODEL 5
REMARK VINA RESULT:      -6.4      1.726      3.156
REMARK  Name = 
REMARK  10 active torsions:
REMARK  status: ('A' for Active; 'I' for Inactive)
REMARK    1  A    between atoms: C_1  and  C_2
REMARK    2  A    between atoms: C_2  and  C_3
REMARK    3  A    between atoms: C_3  and  C_4
REMARK    4  A    between atoms: C_4  and  C_5
REMARK    5  A    between atoms: C_5  and  O_6
REMARK    6  A    between atoms: C_5  and  C_7
REMARK    7  A    between atoms: C_8  and  C_9
REMARK    8  A    between atoms: C_14  and  O_15
REMARK    9  A    between atoms: O_15  and  C_16
REMARK   10  A    between atoms: C_17  and  O_18
REMARK                            x       y       z     vdW  Elec       q    Type
REMARK                         _______ _______ _______ _____ _____    ______ ____
ROOT
ATOM      1  C   UNL     1       4.461   4.315  17.155  0.00  0.00    +0.000 C 
ATOM      2  O   UNL     1       4.900   4.260  15.790  0.00  0.00    +0.000 OA
ATOM      3  C   UNL     1       6.199   4.212  15.442  0.00  0.00    +0.000 C 
ATOM      4  O   UNL     1       6.528   3.860  14.311  0.00  0.00    +0.000 OA
ATOM      5  C   UNL     1       7.230   4.702  16.412  0.00  0.00    +0.000 C 
ATOM      6  C   UNL     1       6.832   4.690  17.878  0.00  0.00    +0.000 C 
ATOM      7  C   UNL     1       5.387   5.191  18.010  0.00  0.00    +0.000 C 
ENDROOT
BRANCH   1   9
ATOM      8  C   UNL     1       3.057   2.308  18.097  0.00  0.00    +0.000 C 
ATOM      9  C   UNL     1       4.190   2.929  17.730  0.00  0.00    +0.000 C 
BRANCH   8  10
ATOM     10  C   UNL     1       1.643   2.800  18.037  0.00  0.00    +0.000 C 
BRANCH  10  11
ATOM     11  O   UNL     1       0.873   1.774  18.667  0.00  0.00    +0.000 OA
ATOM     12  H   UNL     1       0.506   1.225  17.953  0.00  0.00    +0.000 HD
ENDBRANCH  10  11
BRANCH  10  13
ATOM     13  C   UNL     1       1.370   4.133  18.750  0.00  0.00    +0.000 C 
BRANCH  13  14
ATOM     14  C   UNL     1       0.952   4.035  20.221  0.00  0.00    +0.000 C 
BRANCH  14  16
ATOM     15  C   UNL     1       2.417   2.625  21.770  0.00  0.00    +0.000 C 
ATOM     16  C   UNL     1       2.086   4.012  21.249  0.00  0.00    +0.000 C 
ENDBRANCH  14  16
ENDBRANCH  13  14
ENDBRANCH  10  13
ENDBRANCH   8  10
ENDBRANCH   1   9
BRANCH   6  17
ATOM     17  O   UNL     1       7.679   5.568  18.645  0.00  0.00    +0.000 OA
ATOM     18  C   UNL     1       7.738   6.907  18.152  0.00  0.00    +0.000 C 
ENDBRANCH   6  17
BRANCH   7  19
ATOM     19  O   UNL     1       4.928   5.243  19.367  0.00  0.00    +0.000 OA
ATOM     20  H   UNL     1       5.286   4.466  19.835  0.00  0.00    +0.000 HD
ENDBRANCH   7  19
TORSDOF 8
ENDMDL
MODEL 6
REMARK VINA RESULT:      -6.4      3.017      6.408
REMARK  Name = 
REMARK  10 active torsions:
REMARK  status: ('A' for Active; 'I' for Inactive)
REMARK    1  A    between atoms: C_1  and  C_2
REMARK    2  A    between atoms: C_2  and  C_3
REMARK    3  A    between atoms: C_3  and  C_4
REMARK    4  A    between atoms: C_4  and  C_5
REMARK    5  A    between atoms: C_5  and  O_6
REMARK    6  A    between atoms: C_5  and  C_7
REMARK    7  A    between atoms: C_8  and  C_9
REMARK    8  A    between atoms: C_14  and  O_15
REMARK    9  A    between atoms: O_15  and  C_16
REMARK   10  A    between atoms: C_17  and  O_18
REMARK                            x       y       z     vdW  Elec       q    Type
REMARK                         _______ _______ _______ _____ _____    ______ ____
ROOT
ATOM      1  C   UNL     1       4.132   3.852  17.623  0.00  0.00    +0.000 C 
ATOM      2  O   UNL     1       3.330   5.017  17.382  0.00  0.00    +0.000 OA
ATOM      3  C   UNL     1       2.725   5.703  18.369  0.00  0.00    +0.000 C 
ATOM      4  O   UNL     1       2.314   6.845  18.171  0.00  0.00    +0.000 OA
ATOM      5  C   UNL     1       2.456   5.017  19.673  0.00  0.00    +0.000 C 
ATOM      6  C   UNL     1       3.346   3.832  20.004  0.00  0.00    +0.000 C 
ATOM      7  C   UNL     1       3.540   2.981  18.740  0.00  0.00    +0.000 C 
ENDROOT
BRANCH   1   9
ATOM      8  C   UNL     1       6.541   4.639  16.942  0.00  0.00    +0.000 C 
ATOM      9  C   UNL     1       5.607   4.193  17.799  0.00  0.00    +0.000 C 
BRANCH   8  10
ATOM     10  C   UNL     1       6.413   4.971  15.487  0.00  0.00    +0.000 C 
BRANCH  10  11
ATOM     11  O   UNL     1       7.674   5.537  15.129  0.00  0.00    +0.000 OA
ATOM     12  H   UNL     1       7.818   5.326  14.191  0.00  0.00    +0.000 HD
ENDBRANCH  10  11
BRANCH  10  13
ATOM     13  C   UNL     1       6.119   3.785  14.556  0.00  0.00    +0.000 C 
BRANCH  13  14
ATOM     14  C   UNL     1       6.273   4.055  13.055  0.00  0.00    +0.000 C 
BRANCH  14  16
ATOM     15  C   UNL     1       4.411   3.280  11.484  0.00  0.00    +0.000 C 
ATOM     16  C   UNL     1       5.757   2.965  12.112  0.00  0.00    +0.000 C 
ENDBRANCH  14  16
ENDBRANCH  13  14
ENDBRANCH  10  13
ENDBRANCH   8  10
ENDBRANCH   1   9
BRANCH   6  17
ATOM     17  O   UNL     1       2.738   2.999  21.010  0.00  0.00    +0.000 OA
ATOM     18  C   UNL     1       1.310   2.996  20.985  0.00  0.00    +0.000 C 
ENDBRANCH   6  17
BRANCH   7  19
ATOM     19  O   UNL     1       4.347   1.817  18.959  0.00  0.00    +0.000 OA
ATOM     20  H   UNL     1       4.050   1.126  18.341  0.00  0.00    +0.000 HD
ENDBRANCH   7  19
TORSDOF 8
ENDMDL
MODEL 7
REMARK VINA RESULT:      -6.2      1.723      2.693
REMARK  Name = 
REMARK  10 active torsions:
REMARK  status: ('A' for Active; 'I' for Inactive)
REMARK    1  A    between atoms: C_1  and  C_2
REMARK    2  A    between atoms: C_2  and  C_3
REMARK    3  A    between atoms: C_3  and  C_4
REMARK    4  A    between atoms: C_4  and  C_5
REMARK    5  A    between atoms: C_5  and  O_6
REMARK    6  A    between atoms: C_5  and  C_7
REMARK    7  A    between atoms: C_8  and  C_9
REMARK    8  A    between atoms: C_14  and  O_15
REMARK    9  A    between atoms: O_15  and  C_16
REMARK   10  A    between atoms: C_17  and  O_18
REMARK                            x       y       z     vdW  Elec       q    Type
REMARK                         _______ _______ _______ _____ _____    ______ ____
ROOT
ATOM      1  C   UNL     1       4.745   4.734  18.365  0.00  0.00    +0.000 C 
ATOM      2  O   UNL     1       3.798   5.810  18.446  0.00  0.00    +0.000 OA
ATOM      3  C   UNL     1       3.884   6.916  17.685  0.00  0.00    +0.000 C 
ATOM      4  O   UNL     1       2.914   7.660  17.555  0.00  0.00    +0.000 OA
ATOM      5  C   UNL     1       5.209   7.291  17.093  0.00  0.00    +0.000 C 
ATOM      6  C   UNL     1       6.206   6.160  16.910  0.00  0.00    +0.000 C 
ATOM      7  C   UNL     1       6.173   5.255  18.149  0.00  0.00    +0.000 C 
ENDROOT
BRANCH   1   9
ATOM      8  C   UNL     1       3.852   2.403  17.558  0.00  0.00    +0.000 C 
ATOM      9  C   UNL     1       4.308   3.654  17.382  0.00  0.00    +0.000 C 
BRANCH   8  10
ATOM     10  C   UNL     1       3.604   1.652  18.831  0.00  0.00    +0.000 C 
BRANCH  10  11
ATOM     11  O   UNL     1       4.818   1.779  19.572  0.00  0.00    +0.000 OA
ATOM     12  H   UNL     1       4.627   1.471  20.474  0.00  0.00    +0.000 HD
ENDBRANCH  10  11
BRANCH  10  13
ATOM     13  C   UNL     1       2.441   2.166  19.692  0.00  0.00    +0.000 C 
BRANCH  13  14
ATOM     14  C   UNL     1       2.824   2.772  21.047  0.00  0.00    +0.000 C 
BRANCH  14  16
ATOM     15  C   UNL     1       1.096   4.549  20.423  0.00  0.00    +0.000 C 
ATOM     16  C   UNL     1       2.160   4.103  21.409  0.00  0.00    +0.000 C 
ENDBRANCH  14  16
ENDBRANCH  13  14
ENDBRANCH  10  13
ENDBRANCH   8  10
ENDBRANCH   1   9
BRANCH   6  17
ATOM     17  O   UNL     1       7.544   6.674  16.771  0.00  0.00    +0.000 OA
ATOM     18  C   UNL     1       7.830   7.800  17.602  0.00  0.00    +0.000 C 
ENDBRANCH   6  17
BRANCH   7  19
ATOM     19  O   UNL     1       7.105   4.168  18.083  0.00  0.00    +0.000 OA
ATOM     20  H   UNL     1       6.638   3.356  18.351  0.00  0.00    +0.000 HD
ENDBRANCH   7  19
TORSDOF 8
ENDMDL
MODEL 8
REMARK VINA RESULT:      -6.2      2.186      3.639
REMARK  Name = 
REMARK  10 active torsions:
REMARK  status: ('A' for Active; 'I' for Inactive)
REMARK    1  A    between atoms: C_1  and  C_2
REMARK    2  A    between atoms: C_2  and  C_3
REMARK    3  A    between atoms: C_3  and  C_4
REMARK    4  A    between atoms: C_4  and  C_5
REMARK    5  A    between atoms: C_5  and  O_6
REMARK    6  A    between atoms: C_5  and  C_7
REMARK    7  A    between atoms: C_8  and  C_9
REMARK    8  A    between atoms: C_14  and  O_15
REMARK    9  A    between atoms: O_15  and  C_16
REMARK   10  A    between atoms: C_17  and  O_18
REMARK                            x       y       z     vdW  Elec       q    Type
REMARK                         _______ _______ _______ _____ _____    ______ ____
ROOT
ATOM      1  C   UNL     1       4.934   5.238  18.230  0.00  0.00    +0.000 C 
ATOM      2  O   UNL     1       5.946   6.255  18.256  0.00  0.00    +0.000 OA
ATOM      3  C   UNL     1       6.651   6.611  17.166  0.00  0.00    +0.000 C 
ATOM      4  O   UNL     1       7.274   7.671  17.146  0.00  0.00    +0.000 OA
ATOM      5  C   UNL     1       6.761   5.647  16.024  0.00  0.00    +0.000 C 
ATOM      6  C   UNL     1       5.657   4.610  15.913  0.00  0.00    +0.000 C 
ATOM      7  C   UNL     1       5.329   4.072  17.313  0.00  0.00    +0.000 C 
ENDROOT
BRANCH   1   9
ATOM      8  C   UNL     1       2.482   6.007  18.760  0.00  0.00    +0.000 C 
ATOM      9  C   UNL     1       3.547   5.811  17.965  0.00  0.00    +0.000 C 
BRANCH   8  10
ATOM     10  C   UNL     1       2.325   5.725  20.223  0.00  0.00    +0.000 C 
BRANCH  10  11
ATOM     11  O   UNL     1       1.860   6.953  20.784  0.00  0.00    +0.000 OA
ATOM     12  H   UNL     1       2.493   7.198  21.480  0.00  0.00    +0.000 HD
ENDBRANCH  10  11
BRANCH  10  13
ATOM     13  C   UNL     1       1.333   4.608  20.584  0.00  0.00    +0.000 C 
BRANCH  13  14
ATOM     14  C   UNL     1       1.948   3.240  20.900  0.00  0.00    +0.000 C 
BRANCH  14  16
ATOM     15  C   UNL     1       0.945   2.585  18.642  0.00  0.00    +0.000 C 
ATOM     16  C   UNL     1       1.808   2.166  19.819  0.00  0.00    +0.000 C 
ENDBRANCH  14  16
ENDBRANCH  13  14
ENDBRANCH  10  13
ENDBRANCH   8  10
ENDBRANCH   1   9
BRANCH   6  17
ATOM     17  O   UNL     1       6.077   3.499  15.098  0.00  0.00    +0.000 OA
ATOM     18  C   UNL     1       6.202   3.805  13.708  0.00  0.00    +0.000 C 
ENDBRANCH   6  17
BRANCH   7  19
ATOM     19  O   UNL     1       4.313   3.062  17.309  0.00  0.00    +0.000 OA
ATOM     20  H   UNL     1       3.491   3.465  16.975  0.00  0.00    +0.000 HD
ENDBRANCH   7  19
TORSDOF 8
ENDMDL
MODEL 9
REMARK VINA RESULT:      -6.2      1.761      5.780
REMARK  Name = 
REMARK  10 active torsions:
REMARK  status: ('A' for Active; 'I' for Inactive)
REMARK    1  A    between atoms: C_1  and  C_2
REMARK    2  A    between atoms: C_2  and  C_3
REMARK    3  A    between atoms: C_3  and  C_4
REMARK    4  A    between atoms: C_4  and  C_5
REMARK    5  A    between atoms: C_5  and  O_6
REMARK    6  A    between atoms: C_5  and  C_7
REMARK    7  A    between atoms: C_8  and  C_9
REMARK    8  A    between atoms: C_14  and  O_15
REMARK    9  A    between atoms: O_15  and  C_16
REMARK   10  A    between atoms: C_17  and  O_18
REMARK                            x       y       z     vdW  Elec       q    Type
REMARK                         _______ _______ _______ _____ _____    ______ ____
ROOT
ATOM      1  C   UNL     1       4.569   4.234  18.337  0.00  0.00    +0.000 C 
ATOM      2  O   UNL     1       5.181   3.389  19.322  0.00  0.00    +0.000 OA
ATOM      3  C   UNL     1       4.512   2.414  19.965  0.00  0.00    +0.000 C 
ATOM      4  O   UNL     1       5.123   1.527  20.558  0.00  0.00    +0.000 OA
ATOM      5  C   UNL     1       3.018   2.489  20.047  0.00  0.00    +0.000 C 
ATOM      6  C   UNL     1       2.327   3.303  18.967  0.00  0.00    +0.000 C 
ATOM      7  C   UNL     1       3.126   4.591  18.720  0.00  0.00    +0.000 C 
ENDROOT
BRANCH   1   9
ATOM      8  C   UNL     1       5.266   4.209  15.808  0.00  0.00    +0.000 C 
ATOM      9  C   UNL     1       4.733   3.686  16.924  0.00  0.00    +0.000 C 
BRANCH   8  10
ATOM     10  C   UNL     1       5.909   5.547  15.599  0.00  0.00    +0.000 C 
BRANCH  10  11
ATOM     11  O   UNL     1       4.940   6.492  16.055  0.00  0.00    +0.000 OA
ATOM     12  H   UNL     1       4.276   5.990  16.558  0.00  0.00    +0.000 HD
ENDBRANCH  10  11
BRANCH  10  13
ATOM     13  C   UNL     1       7.225   5.780  16.356  0.00  0.00    +0.000 C 
BRANCH  13  14
ATOM     14  C   UNL     1       7.345   7.115  17.099  0.00  0.00    +0.000 C 
BRANCH  14  16
ATOM     15  C   UNL     1       7.856   5.690  19.159  0.00  0.00    +0.000 C 
ATOM     16  C   UNL     1       7.944   7.058  18.506  0.00  0.00    +0.000 C 
ENDBRANCH  14  16
ENDBRANCH  13  14
ENDBRANCH  10  13
ENDBRANCH   8  10
ENDBRANCH   1   9
BRANCH   6  17
ATOM     17  O   UNL     1       0.998   3.677  19.379  0.00  0.00    +0.000 OA
ATOM     18  C   UNL     1       0.946   4.404  20.606  0.00  0.00    +0.000 C 
ENDBRANCH   6  17
BRANCH   7  19
ATOM     19  O   UNL     1       2.534   5.444  17.732  0.00  0.00    +0.000 OA
ATOM     20  H   UNL     1       2.038   6.142  18.197  0.00  0.00    +0.000 HD
ENDBRANCH   7  19
TORSDOF 8
ENDMDL
