MODEL 1
REMARK VINA RESULT:      -7.9      0.000      0.000
REMARK  Name = 
REMARK  4 active torsions:
REMARK  status: ('A' for Active; 'I' for Inactive)
REMARK    1  A    between atoms: C_2  and  C_20
REMARK    2  A    between atoms: N_3  and  C_4
REMARK    3  A    between atoms: C_4  and  C_5
REMARK    4  A    between atoms: C_5  and  C_6
REMARK                            x       y       z     vdW  Elec       q    Type
REMARK                         _______ _______ _______ _____ _____    ______ ____
ROOT
ATOM      1  C   UNL     1       1.936   2.605  18.963  0.00  0.00    +0.000 C 
ATOM      2  O   UNL     1       1.814   1.855  19.934  0.00  0.00    +0.000 OA
ATOM      3  N   UNL     1       1.598   3.945  19.032  0.00  0.00    +0.000 N 
ATOM      4  C   UNL     1       1.103   4.510  20.297  0.00  0.00    +0.000 C 
ATOM      5  C   UNL     1       1.893   5.775  20.691  0.00  0.00    +0.000 C 
ATOM      6  N   UNL     1       1.928   6.707  19.562  0.00  0.00    +0.000 N 
ATOM      7  C   UNL     1       1.648   8.036  19.717  0.00  0.00    +0.000 A 
ATOM      8  N   UNL     1       1.226   8.476  20.914  0.00  0.00    +0.000 NA
ATOM      9  C   UNL     1       0.906   9.779  21.029  0.00  0.00    +0.000 A 
ATOM     10  C   UNL     1       0.993  10.674  19.996  0.00  0.00    +0.000 A 
ATOM     11  C   UNL     1       1.440  10.147  18.813  0.00  0.00    +0.000 A 
ATOM     12  N   UNL     1       1.767   8.851  18.655  0.00  0.00    +0.000 NA
ATOM     13  C   UNL     1       2.404   6.181  18.287  0.00  0.00    +0.000 C 
ATOM     14  C   UNL     1       1.613   4.912  17.921  0.00  0.00    +0.000 C 
ENDROOT
BRANCH   1  15
ATOM     15  C   UNL     1       2.564   2.099  17.677  0.00  0.00    +0.000 C 
BRANCH  15  16
ATOM     16  C   UNL     1       4.064   1.893  17.839  0.00  0.00    +0.000 C 
BRANCH  16  19
ATOM     17  O   UNL     1       5.205   3.572  19.800  0.00  0.00    +0.000 OA
ATOM     18  C   UNL     1       5.353   3.860  18.621  0.00  0.00    +0.000 C 
ATOM     19  N   UNL     1       4.800   3.125  17.595  0.00  0.00    +0.000 N 
ATOM     20  H   UNL     1       5.024   3.361  16.637  0.00  0.00    +0.000 HD
BRANCH  18  21
ATOM     21  C   UNL     1       6.133   5.078  18.254  0.00  0.00    +0.000 A 
ATOM     22  C   UNL     1       7.109   5.487  19.182  0.00  0.00    +0.000 A 
ATOM     23  C   UNL     1       7.924   6.592  18.929  0.00  0.00    +0.000 A 
ATOM     24  C   UNL     1       7.780   7.301  17.741  0.00  0.00    +0.000 A 
ATOM     25  C   UNL     1       6.816   6.907  16.811  0.00  0.00    +0.000 A 
ATOM     26  C   UNL     1       5.992   5.800  17.061  0.00  0.00    +0.000 A 
ATOM     27 CL   UNL     1       4.869   5.383  15.814  0.00  0.00    +0.000 Cl
ENDBRANCH  18  21
ENDBRANCH  16  19
ENDBRANCH  15  16
ENDBRANCH   1  15
TORSDOF 4
ENDMDL
MODEL 2
REMARK VINA RESULT:      -7.5      3.622      6.156
REMARK  Name = 
REMARK  4 active torsions:
REMARK  status: ('A' for Active; 'I' for Inactive)
REMARK    1  A    between atoms: C_2  and  C_20
REMARK    2  A    between atoms: N_3  and  C_4
REMARK    3  A    between atoms: C_4  and  C_5
REMARK    4  A    between atoms: C_5  and  C_6
REMARK                            x       y       z     vdW  Elec       q    Type
REMARK                         _______ _______ _______ _____ _____    ______ ____
ROOT
ATOM      1  C   UNL     1       1.097   9.011  19.958  0.00  0.00    +0.000 C 
ATOM      2  O   UNL     1       1.797   8.271  20.653  0.00  0.00    +0.000 OA
ATOM      3  N   UNL     1      -0.031   9.632  20.464  0.00  0.00    +0.000 N 
ATOM      4  C   UNL     1      -0.405   9.433  21.873  0.00  0.00    +0.000 C 
ATOM      5  C   UNL     1      -0.634  10.782  22.586  0.00  0.00    +0.000 C 
ATOM      6  N   UNL     1      -1.559  11.604  21.803  0.00  0.00    +0.000 N 
ATOM      7  C   UNL     1      -2.618  12.246  22.384  0.00  0.00    +0.000 A 
ATOM      8  N   UNL     1      -2.876  12.030  23.685  0.00  0.00    +0.000 NA
ATOM      9  C   UNL     1      -3.954  12.631  24.221  0.00  0.00    +0.000 A 
ATOM     10  C   UNL     1      -4.793  13.452  23.514  0.00  0.00    +0.000 A 
ATOM     11  C   UNL     1      -4.455  13.627  22.199  0.00  0.00    +0.000 A 
ATOM     12  N   UNL     1      -3.388  13.042  21.623  0.00  0.00    +0.000 NA
ATOM     13  C   UNL     1      -1.227  11.817  20.399  0.00  0.00    +0.000 C 
ATOM     14  C   UNL     1      -0.989  10.460  19.711  0.00  0.00    +0.000 C 
ENDROOT
BRANCH   1  15
ATOM     15  C   UNL     1       1.515   9.351  18.539  0.00  0.00    +0.000 C 
BRANCH  15  16
ATOM     16  C   UNL     1       2.616   8.419  18.050  0.00  0.00    +0.000 C 
BRANCH  16  19
ATOM     17  O   UNL     1       4.221   6.230  18.824  0.00  0.00    +0.000 OA
ATOM     18  C   UNL     1       3.049   6.028  18.539  0.00  0.00    +0.000 C 
ATOM     19  N   UNL     1       2.199   7.025  18.112  0.00  0.00    +0.000 N 
ATOM     20  H   UNL     1       1.219   6.817  17.970  0.00  0.00    +0.000 HD
BRANCH  18  21
ATOM     21  C   UNL     1       2.503   4.641  18.615  0.00  0.00    +0.000 A 
ATOM     22  C   UNL     1       1.473   4.435  19.552  0.00  0.00    +0.000 A 
ATOM     23  C   UNL     1       0.861   3.187  19.685  0.00  0.00    +0.000 A 
ATOM     24  C   UNL     1       1.265   2.128  18.878  0.00  0.00    +0.000 A 
ATOM     25  C   UNL     1       2.286   2.318  17.944  0.00  0.00    +0.000 A 
ATOM     26  C   UNL     1       2.906   3.569  17.808  0.00  0.00    +0.000 A 
ATOM     27 CL   UNL     1       4.123   3.691  16.586  0.00  0.00    +0.000 Cl
ENDBRANCH  18  21
ENDBRANCH  16  19
ENDBRANCH  15  16
ENDBRANCH   1  15
TORSDOF 4
ENDMDL
MODEL 3
REMARK VINA RESULT:      -7.5      3.760      6.212
REMARK  Name = 
REMARK  4 active torsions:
REMARK  status: ('A' for Active; 'I' for Inactive)
REMARK    1  A    between atoms: C_2  and  C_20
REMARK    2  A    between atoms: N_3  and  C_4
REMARK    3  A    between atoms: C_4  and  C_5
REMARK    4  A    between atoms: C_5  and  C_6
REMARK                            x       y       z     vdW  Elec       q    Type
REMARK                         _______ _______ _______ _____ _____    ______ ____
ROOT
ATOM      1  C   UNL     1       1.189   9.084  19.736  0.00  0.00    +0.000 C 
ATOM      2  O   UNL     1       1.914   8.374  20.437  0.00  0.00    +0.000 OA
ATOM      3  N   UNL     1       0.053   9.689  20.243  0.00  0.00    +0.000 N 
ATOM      4  C   UNL     1      -0.299   9.511  21.660  0.00  0.00    +0.000 C 
ATOM      5  C   UNL     1      -0.550  10.869  22.348  0.00  0.00    +0.000 C 
ATOM      6  N   UNL     1      -1.503  11.653  21.561  0.00  0.00    +0.000 N 
ATOM      7  C   UNL     1      -2.570  12.283  22.142  0.00  0.00    +0.000 A 
ATOM      8  N   UNL     1      -2.807  12.087  23.450  0.00  0.00    +0.000 NA
ATOM      9  C   UNL     1      -3.892  12.675  23.987  0.00  0.00    +0.000 A 
ATOM     10  C   UNL     1      -4.758  13.463  23.275  0.00  0.00    +0.000 A 
ATOM     11  C   UNL     1      -4.440  13.617  21.952  0.00  0.00    +0.000 A 
ATOM     12  N   UNL     1      -3.367  13.046  21.375  0.00  0.00    +0.000 NA
ATOM     13  C   UNL     1      -1.193  11.844  20.149  0.00  0.00    +0.000 C 
ATOM     14  C   UNL     1      -0.933  10.479  19.485  0.00  0.00    +0.000 C 
ENDROOT
BRANCH   1  15
ATOM     15  C   UNL     1       1.582   9.403  18.305  0.00  0.00    +0.000 C 
BRANCH  15  16
ATOM     16  C   UNL     1       2.638   8.433  17.792  0.00  0.00    +0.000 C 
BRANCH  16  19
ATOM     17  O   UNL     1       4.317   6.208  18.231  0.00  0.00    +0.000 OA
ATOM     18  C   UNL     1       3.107   6.034  18.197  0.00  0.00    +0.000 C 
ATOM     19  N   UNL     1       2.211   7.050  17.949  0.00  0.00    +0.000 N 
ATOM     20  H   UNL     1       1.218   6.866  18.016  0.00  0.00    +0.000 HD
BRANCH  18  21
ATOM     21  C   UNL     1       2.557   4.661  18.394  0.00  0.00    +0.000 A 
ATOM     22  C   UNL     1       2.872   3.721  17.395  0.00  0.00    +0.000 A 
ATOM     23  C   UNL     1       2.442   2.396  17.492  0.00  0.00    +0.000 A 
ATOM     24  C   UNL     1       1.696   1.989  18.593  0.00  0.00    +0.000 A 
ATOM     25  C   UNL     1       1.376   2.910  19.593  0.00  0.00    +0.000 A 
ATOM     26  C   UNL     1       1.802   4.244  19.499  0.00  0.00    +0.000 A 
ATOM     27 CL   UNL     1       1.383   5.276  20.821  0.00  0.00    +0.000 Cl
ENDBRANCH  18  21
ENDBRANCH  16  19
ENDBRANCH  15  16
ENDBRANCH   1  15
TORSDOF 4
ENDMDL
MODEL 4
REMARK VINA RESULT:      -7.4      4.689      7.058
REMARK  Name = 
REMARK  4 active torsions:
REMARK  status: ('A' for Active; 'I' for Inactive)
REMARK    1  A    between atoms: C_2  and  C_20
REMARK    2  A    between atoms: N_3  and  C_4
REMARK    3  A    between atoms: C_4  and  C_5
REMARK    4  A    between atoms: C_5  and  C_6
REMARK                            x       y       z     vdW  Elec       q    Type
REMARK                         _______ _______ _______ _____ _____    ______ ____
ROOT
ATOM      1  C   UNL     1       6.892   7.031  16.957  0.00  0.00    +0.000 C 
ATOM      2  O   UNL     1       7.839   6.502  16.371  0.00  0.00    +0.000 OA
ATOM      3  N   UNL     1       5.731   6.335  17.241  0.00  0.00    +0.000 N 
ATOM      4  C   UNL     1       5.617   4.917  16.863  0.00  0.00    +0.000 C 
ATOM      5  C   UNL     1       5.176   4.052  18.061  0.00  0.00    +0.000 C 
ATOM      6  N   UNL     1       3.981   4.633  18.676  0.00  0.00    +0.000 N 
ATOM      7  C   UNL     1       2.892   3.868  18.993  0.00  0.00    +0.000 A 
ATOM      8  N   UNL     1       2.879   2.574  18.634  0.00  0.00    +0.000 NA
ATOM      9  C   UNL     1       1.775   1.855  18.910  0.00  0.00    +0.000 A 
ATOM     10  C   UNL     1       0.673   2.371  19.540  0.00  0.00    +0.000 A 
ATOM     11  C   UNL     1       0.771   3.694  19.880  0.00  0.00    +0.000 A 
ATOM     12  N   UNL     1       1.854   4.449  19.620  0.00  0.00    +0.000 NA
ATOM     13  C   UNL     1       4.051   6.039  19.057  0.00  0.00    +0.000 C 
ATOM     14  C   UNL     1       4.506   6.881  17.851  0.00  0.00    +0.000 C 
ENDROOT
BRANCH   1  15
ATOM     15  C   UNL     1       7.012   8.450  17.482  0.00  0.00    +0.000 C 
BRANCH  15  16
ATOM     16  C   UNL     1       8.320   8.651  18.236  0.00  0.00    +0.000 C 
BRANCH  16  19
ATOM     17  O   UNL     1       9.399  10.429  20.144  0.00  0.00    +0.000 OA
ATOM     18  C   UNL     1       9.432  10.743  18.962  0.00  0.00    +0.000 C 
ATOM     19  N   UNL     1       8.896   9.960  17.964  0.00  0.00    +0.000 N 
ATOM     20  H   UNL     1       9.026  10.228  16.997  0.00  0.00    +0.000 HD
BRANCH  18  21
ATOM     21  C   UNL     1      10.044  12.045  18.565  0.00  0.00    +0.000 A 
ATOM     22  C   UNL     1      11.005  11.985  17.538  0.00  0.00    +0.000 A 
ATOM     23  C   UNL     1      11.618  13.145  17.059  0.00  0.00    +0.000 A 
ATOM     24  C   UNL     1      11.274  14.382  17.595  0.00  0.00    +0.000 A 
ATOM     25  C   UNL     1      10.322  14.456  18.614  0.00  0.00    +0.000 A 
ATOM     26  C   UNL     1       9.705  13.294  19.102  0.00  0.00    +0.000 A 
ATOM     27 CL   UNL     1       8.510  13.519  20.330  0.00  0.00    +0.000 Cl
ENDBRANCH  18  21
ENDBRANCH  16  19
ENDBRANCH  15  16
ENDBRANCH   1  15
TORSDOF 4
ENDMDL
MODEL 5
REMARK VINA RESULT:      -7.3      4.622      6.972
REMARK  Name = 
REMARK  4 active torsions:
REMARK  status: ('A' for Active; 'I' for Inactive)
REMARK    1  A    between atoms: C_2  and  C_20
REMARK    2  A    between atoms: N_3  and  C_4
REMARK    3  A    between atoms: C_4  and  C_5
REMARK    4  A    between atoms: C_5  and  C_6
REMARK                            x       y       z     vdW  Elec       q    Type
REMARK                         _______ _______ _______ _____ _____    ______ ____
ROOT
ATOM      1  C   UNL     1       7.137   6.586  17.062  0.00  0.00    +0.000 C 
ATOM      2  O   UNL     1       7.624   6.291  15.968  0.00  0.00    +0.000 OA
ATOM      3  N   UNL     1       5.913   6.087  17.471  0.00  0.00    +0.000 N 
ATOM      4  C   UNL     1       5.173   5.160  16.600  0.00  0.00    +0.000 C 
ATOM      5  C   UNL     1       4.759   3.886  17.365  0.00  0.00    +0.000 C 
ATOM      6  N   UNL     1       4.078   4.255  18.607  0.00  0.00    +0.000 N 
ATOM      7  C   UNL     1       2.900   3.668  18.983  0.00  0.00    +0.000 A 
ATOM      8  N   UNL     1       2.302   2.812  18.139  0.00  0.00    +0.000 NA
ATOM      9  C   UNL     1       1.118   2.288  18.509  0.00  0.00    +0.000 A 
ATOM     10  C   UNL     1       0.499   2.578  19.697  0.00  0.00    +0.000 A 
ATOM     11  C   UNL     1       1.179   3.452  20.502  0.00  0.00    +0.000 A 
ATOM     12  N   UNL     1       2.362   4.000  20.170  0.00  0.00    +0.000 NA
ATOM     13  C   UNL     1       4.775   5.180  19.493  0.00  0.00    +0.000 C 
ATOM     14  C   UNL     1       5.192   6.436  18.707  0.00  0.00    +0.000 C 
ENDROOT
BRANCH   1  15
ATOM     15  C   UNL     1       7.921   7.432  18.047  0.00  0.00    +0.000 C 
BRANCH  15  16
ATOM     16  C   UNL     1       8.233   8.806  17.470  0.00  0.00    +0.000 C 
BRANCH  16  19
ATOM     17  O   UNL     1      10.189  10.838  17.580  0.00  0.00    +0.000 OA
ATOM     18  C   UNL     1       9.349  10.782  18.466  0.00  0.00    +0.000 C 
ATOM     19  N   UNL     1       8.380   9.803  18.521  0.00  0.00    +0.000 N 
ATOM     20  H   UNL     1       7.660   9.855  19.230  0.00  0.00    +0.000 HD
BRANCH  18  21
ATOM     21  C   UNL     1       9.378  11.786  19.570  0.00  0.00    +0.000 A 
ATOM     22  C   UNL     1       9.335  11.267  20.877  0.00  0.00    +0.000 A 
ATOM     23  C   UNL     1       9.393  12.110  21.989  0.00  0.00    +0.000 A 
ATOM     24  C   UNL     1       9.501  13.486  21.809  0.00  0.00    +0.000 A 
ATOM     25  C   UNL     1       9.546  14.015  20.518  0.00  0.00    +0.000 A 
ATOM     26  C   UNL     1       9.485  13.173  19.397  0.00  0.00    +0.000 A 
ATOM     27 CL   UNL     1       9.596  13.943  17.853  0.00  0.00    +0.000 Cl
ENDBRANCH  18  21
ENDBRANCH  16  19
ENDBRANCH  15  16
ENDBRANCH   1  15
TORSDOF 4
ENDMDL
MODEL 6
REMARK VINA RESULT:      -7.2      1.172      1.490
REMARK  Name = 
REMARK  4 active torsions:
REMARK  status: ('A' for Active; 'I' for Inactive)
REMARK    1  A    between atoms: C_2  and  C_20
REMARK    2  A    between atoms: N_3  and  C_4
REMARK    3  A    between atoms: C_4  and  C_5
REMARK    4  A    between atoms: C_5  and  C_6
REMARK                            x       y       z     vdW  Elec       q    Type
REMARK                         _______ _______ _______ _____ _____    ______ ____
ROOT
ATOM      1  C   UNL     1       2.121   2.828  19.057  0.00  0.00    +0.000 C 
ATOM      2  O   UNL     1       1.953   2.065  20.012  0.00  0.00    +0.000 OA
ATOM      3  N   UNL     1       1.730   4.153  19.107  0.00  0.00    +0.000 N 
ATOM      4  C   UNL     1       1.119   4.690  20.333  0.00  0.00    +0.000 C 
ATOM      5  C   UNL     1       1.829   5.980  20.794  0.00  0.00    +0.000 C 
ATOM      6  N   UNL     1       1.918   6.921  19.676  0.00  0.00    +0.000 N 
ATOM      7  C   UNL     1       1.577   8.238  19.817  0.00  0.00    +0.000 A 
ATOM      8  N   UNL     1       1.048   8.653  20.980  0.00  0.00    +0.000 NA
ATOM      9  C   UNL     1       0.673   9.942  21.077  0.00  0.00    +0.000 A 
ATOM     10  C   UNL     1       0.807  10.849  20.058  0.00  0.00    +0.000 A 
ATOM     11  C   UNL     1       1.362  10.347  18.911  0.00  0.00    +0.000 A 
ATOM     12  N   UNL     1       1.748   9.066  18.771  0.00  0.00    +0.000 NA
ATOM     13  C   UNL     1       2.510   6.424  18.439  0.00  0.00    +0.000 C 
ATOM     14  C   UNL     1       1.796   5.130  18.006  0.00  0.00    +0.000 C 
ENDROOT
BRANCH   1  15
ATOM     15  C   UNL     1       2.865   2.355  17.821  0.00  0.00    +0.000 C 
BRANCH  15  16
ATOM     16  C   UNL     1       4.356   2.207  18.097  0.00  0.00    +0.000 C 
BRANCH  16  19
ATOM     17  O   UNL     1       5.242   4.144  19.948  0.00  0.00    +0.000 OA
ATOM     18  C   UNL     1       5.503   4.299  18.764  0.00  0.00    +0.000 C 
ATOM     19  N   UNL     1       5.079   3.430  17.782  0.00  0.00    +0.000 N 
ATOM     20  H   UNL     1       5.395   3.562  16.830  0.00  0.00    +0.000 HD
BRANCH  18  21
ATOM     21  C   UNL     1       6.284   5.497  18.334  0.00  0.00    +0.000 A 
ATOM     22  C   UNL     1       5.729   6.249  17.281  0.00  0.00    +0.000 A 
ATOM     23  C   UNL     1       6.353   7.410  16.820  0.00  0.00    +0.000 A 
ATOM     24  C   UNL     1       7.537   7.841  17.411  0.00  0.00    +0.000 A 
ATOM     25  C   UNL     1       8.098   7.105  18.457  0.00  0.00    +0.000 A 
ATOM     26  C   UNL     1       7.478   5.936  18.922  0.00  0.00    +0.000 A 
ATOM     27 CL   UNL     1       8.244   5.140  20.251  0.00  0.00    +0.000 Cl
ENDBRANCH  18  21
ENDBRANCH  16  19
ENDBRANCH  15  16
ENDBRANCH   1  15
TORSDOF 4
ENDMDL
MODEL 7
REMARK VINA RESULT:      -7.2      1.483      1.970
REMARK  Name = 
REMARK  4 active torsions:
REMARK  status: ('A' for Active; 'I' for Inactive)
REMARK    1  A    between atoms: C_2  and  C_20
REMARK    2  A    between atoms: N_3  and  C_4
REMARK    3  A    between atoms: C_4  and  C_5
REMARK    4  A    between atoms: C_5  and  C_6
REMARK                            x       y       z     vdW  Elec       q    Type
REMARK                         _______ _______ _______ _____ _____    ______ ____
ROOT
ATOM      1  C   UNL     1       1.656   2.673  19.848  0.00  0.00    +0.000 C 
ATOM      2  O   UNL     1       1.440   2.215  20.972  0.00  0.00    +0.000 OA
ATOM      3  N   UNL     1       1.434   4.005  19.550  0.00  0.00    +0.000 N 
ATOM      4  C   UNL     1       0.952   4.919  20.597  0.00  0.00    +0.000 C 
ATOM      5  C   UNL     1       1.836   6.179  20.691  0.00  0.00    +0.000 C 
ATOM      6  N   UNL     1       1.988   6.776  19.364  0.00  0.00    +0.000 N 
ATOM      7  C   UNL     1       1.820   8.118  19.155  0.00  0.00    +0.000 A 
ATOM      8  N   UNL     1       1.401   8.887  20.173  0.00  0.00    +0.000 NA
ATOM      9  C   UNL     1       1.192  10.194  19.930  0.00  0.00    +0.000 A 
ATOM     10  C   UNL     1       1.389  10.778  18.706  0.00  0.00    +0.000 A 
ATOM     11  C   UNL     1       1.825   9.927  17.726  0.00  0.00    +0.000 A 
ATOM     12  N   UNL     1       2.043   8.614  17.925  0.00  0.00    +0.000 NA
ATOM     13  C   UNL     1       2.456   5.900  18.295  0.00  0.00    +0.000 C 
ATOM     14  C   UNL     1       1.569   4.644  18.229  0.00  0.00    +0.000 C 
ENDROOT
BRANCH   1  15
ATOM     15  C   UNL     1       2.278   1.801  18.772  0.00  0.00    +0.000 C 
BRANCH  15  16
ATOM     16  C   UNL     1       3.794   1.753  18.908  0.00  0.00    +0.000 C 
BRANCH  16  19
ATOM     17  O   UNL     1       5.418   4.052  19.115  0.00  0.00    +0.000 OA
ATOM     18  C   UNL     1       5.255   3.543  18.015  0.00  0.00    +0.000 C 
ATOM     19  N   UNL     1       4.449   2.446  17.808  0.00  0.00    +0.000 N 
ATOM     20  H   UNL     1       4.417   2.017  16.892  0.00  0.00    +0.000 HD
BRANCH  18  21
ATOM     21  C   UNL     1       5.921   4.145  16.822  0.00  0.00    +0.000 A 
ATOM     22  C   UNL     1       5.428   3.735  15.569  0.00  0.00    +0.000 A 
ATOM     23  C   UNL     1       5.949   4.259  14.384  0.00  0.00    +0.000 A 
ATOM     24  C   UNL     1       6.968   5.206  14.435  0.00  0.00    +0.000 A 
ATOM     25  C   UNL     1       7.467   5.622  15.671  0.00  0.00    +0.000 A 
ATOM     26  C   UNL     1       6.949   5.097  16.864  0.00  0.00    +0.000 A 
ATOM     27 CL   UNL     1       7.616   5.725  18.330  0.00  0.00    +0.000 Cl
ENDBRANCH  18  21
ENDBRANCH  16  19
ENDBRANCH  15  16
ENDBRANCH   1  15
TORSDOF 4
ENDMDL
MODEL 8
REMARK VINA RESULT:      -7.2      4.723      7.081
REMARK  Name = 
REMARK  4 active torsions:
REMARK  status: ('A' for Active; 'I' for Inactive)
REMARK    1  A    between atoms: C_2  and  C_20
REMARK    2  A    between atoms: N_3  and  C_4
REMARK    3  A    between atoms: C_4  and  C_5
REMARK    4  A    between atoms: C_5  and  C_6
REMARK                            x       y       z     vdW  Elec       q    Type
REMARK                         _______ _______ _______ _____ _____    ______ ____
ROOT
ATOM      1  C   UNL     1       6.919   6.950  17.018  0.00  0.00    +0.000 C 
ATOM      2  O   UNL     1       7.912   6.397  16.539  0.00  0.00    +0.000 OA
ATOM      3  N   UNL     1       5.755   6.253  17.284  0.00  0.00    +0.000 N 
ATOM      4  C   UNL     1       5.691   4.807  17.017  0.00  0.00    +0.000 C 
ATOM      5  C   UNL     1       5.188   4.032  18.253  0.00  0.00    +0.000 C 
ATOM      6  N   UNL     1       3.945   4.633  18.740  0.00  0.00    +0.000 N 
ATOM      7  C   UNL     1       2.851   3.872  19.049  0.00  0.00    +0.000 A 
ATOM      8  N   UNL     1       2.884   2.553  18.798  0.00  0.00    +0.000 NA
ATOM      9  C   UNL     1       1.778   1.834  19.062  0.00  0.00    +0.000 A 
ATOM     10  C   UNL     1       0.628   2.374  19.576  0.00  0.00    +0.000 A 
ATOM     11  C   UNL     1       0.680   3.722  19.811  0.00  0.00    +0.000 A 
ATOM     12  N   UNL     1       1.765   4.478  19.559  0.00  0.00    +0.000 NA
ATOM     13  C   UNL     1       3.965   6.067  19.008  0.00  0.00    +0.000 C 
ATOM     14  C   UNL     1       4.483   6.819  17.768  0.00  0.00    +0.000 C 
ENDROOT
BRANCH   1  15
ATOM     15  C   UNL     1       6.980   8.409  17.432  0.00  0.00    +0.000 C 
BRANCH  15  16
ATOM     16  C   UNL     1       8.264   8.714  18.193  0.00  0.00    +0.000 C 
BRANCH  16  19
ATOM     17  O   UNL     1       9.156  10.537  20.154  0.00  0.00    +0.000 OA
ATOM     18  C   UNL     1       9.163  10.884  18.981  0.00  0.00    +0.000 C 
ATOM     19  N   UNL     1       8.709  10.080  17.959  0.00  0.00    +0.000 N 
ATOM     20  H   UNL     1       8.816  10.386  17.000  0.00  0.00    +0.000 HD
BRANCH  18  21
ATOM     21  C   UNL     1       9.646  12.250  18.622  0.00  0.00    +0.000 A 
ATOM     22  C   UNL     1       8.654  13.176  18.247  0.00  0.00    +0.000 A 
ATOM     23  C   UNL     1       8.985  14.494  17.925  0.00  0.00    +0.000 A 
ATOM     24  C   UNL     1      10.312  14.908  17.981  0.00  0.00    +0.000 A 
ATOM     25  C   UNL     1      11.307  14.001  18.353  0.00  0.00    +0.000 A 
ATOM     26  C   UNL     1      10.981  12.675  18.674  0.00  0.00    +0.000 A 
ATOM     27 CL   UNL     1      12.293  11.661  19.163  0.00  0.00    +0.000 Cl
ENDBRANCH  18  21
ENDBRANCH  16  19
ENDBRANCH  15  16
ENDBRANCH   1  15
TORSDOF 4
ENDMDL
MODEL 9
REMARK VINA RESULT:      -7.1      4.824      6.863
REMARK  Name = 
REMARK  4 active torsions:
REMARK  status: ('A' for Active; 'I' for Inactive)
REMARK    1  A    between atoms: C_2  and  C_20
REMARK    2  A    between atoms: N_3  and  C_4
REMARK    3  A    between atoms: C_4  and  C_5
REMARK    4  A    between atoms: C_5  and  C_6
REMARK                            x       y       z     vdW  Elec       q    Type
REMARK                         _______ _______ _______ _____ _____    ______ ____
ROOT
ATOM      1  C   UNL     1       0.286  10.407  19.049  0.00  0.00    +0.000 C 
ATOM      2  O   UNL     1       1.048  10.859  19.906  0.00  0.00    +0.000 OA
ATOM      3  N   UNL     1      -1.082  10.601  19.116  0.00  0.00    +0.000 N 
ATOM      4  C   UNL     1      -1.655  11.387  20.220  0.00  0.00    +0.000 C 
ATOM      5  C   UNL     1      -2.588  12.497  19.691  0.00  0.00    +0.000 C 
ATOM      6  N   UNL     1      -3.561  11.922  18.761  0.00  0.00    +0.000 N 
ATOM      7  C   UNL     1      -4.895  12.214  18.846  0.00  0.00    +0.000 A 
ATOM      8  N   UNL     1      -5.334  12.960  19.872  0.00  0.00    +0.000 NA
ATOM      9  C   UNL     1      -6.657  13.190  19.963  0.00  0.00    +0.000 A 
ATOM     10  C   UNL     1      -7.573  12.709  19.065  0.00  0.00    +0.000 A 
ATOM     11  C   UNL     1      -7.043  11.965  18.045  0.00  0.00    +0.000 A 
ATOM     12  N   UNL     1      -5.728  11.710  17.918  0.00  0.00    +0.000 NA
ATOM     13  C   UNL     1      -3.032  11.128  17.658  0.00  0.00    +0.000 C 
ATOM     14  C   UNL     1      -2.095  10.037  18.207  0.00  0.00    +0.000 C 
ENDROOT
BRANCH   1  15
ATOM     15  C   UNL     1       0.841   9.703  17.824  0.00  0.00    +0.000 C 
BRANCH  15  16
ATOM     16  C   UNL     1       2.336   9.446  17.964  0.00  0.00    +0.000 C 
BRANCH  16  19
ATOM     17  O   UNL     1       2.357   7.292  19.787  0.00  0.00    +0.000 OA
ATOM     18  C   UNL     1       2.615   7.071  18.613  0.00  0.00    +0.000 C 
ATOM     19  N   UNL     1       2.668   8.062  17.658  0.00  0.00    +0.000 N 
ATOM     20  H   UNL     1       2.804   7.812  16.687  0.00  0.00    +0.000 HD
BRANCH  18  21
ATOM     21  C   UNL     1       2.924   5.677  18.178  0.00  0.00    +0.000 A 
ATOM     22  C   UNL     1       1.830   4.792  18.121  0.00  0.00    +0.000 A 
ATOM     23  C   UNL     1       1.994   3.473  17.694  0.00  0.00    +0.000 A 
ATOM     24  C   UNL     1       3.253   3.021  17.310  0.00  0.00    +0.000 A 
ATOM     25  C   UNL     1       4.346   3.887  17.360  0.00  0.00    +0.000 A 
ATOM     26  C   UNL     1       4.189   5.212  17.792  0.00  0.00    +0.000 A 
ATOM     27 CL   UNL     1       5.608   6.200  17.766  0.00  0.00    +0.000 Cl
ENDBRANCH  18  21
ENDBRANCH  16  19
ENDBRANCH  15  16
ENDBRANCH   1  15
TORSDOF 4
ENDMDL
