MODEL 1
REMARK VINA RESULT:      -9.4      0.000      0.000
REMARK  Name = 
REMARK  9 active torsions:
REMARK  status: ('A' for Active; 'I' for Inactive)
REMARK    1  A    between atoms: C_1  and  N_2
REMARK    2  A    between atoms: C_4  and  N_5
REMARK    3  A    between atoms: C_10  and  C_11
REMARK    4  A    between atoms: C_21  and  N_22
REMARK    5  A    between atoms: C_23  and  C_25
REMARK    6  A    between atoms: N_27  and  C_28
REMARK    7  A    between atoms: C_28  and  C_29
REMARK    8  A    between atoms: C_28  and  C_30
REMARK    9  A    between atoms: C_28  and  C_31
REMARK                            x       y       z     vdW  Elec       q    Type
REMARK                         _______ _______ _______ _____ _____    ______ ____
ROOT
ATOM      1  C   UNL     1       1.784   7.642  20.016  0.00  0.00    +0.000 A 
ATOM      2  C   UNL     1       2.846   7.612  19.106  0.00  0.00    +0.000 A 
ATOM      3  C   UNL     1       3.407   6.403  18.685  0.00  0.00    +0.000 A 
ATOM      4  C   UNL     1       2.921   5.169  19.151  0.00  0.00    +0.000 A 
ATOM      5  C   UNL     1       1.951   5.185  20.170  0.00  0.00    +0.000 A 
ATOM      6  C   UNL     1       1.396   6.414  20.580  0.00  0.00    +0.000 A 
ATOM      7  C   UNL     1       1.448   3.922  20.828  0.00  0.00    +0.000 C 
ATOM      8  C   UNL     1       2.564   3.116  21.491  0.00  0.00    +0.000 C 
ATOM      9  C   UNL     1       3.332   2.227  20.518  0.00  0.00    +0.000 C 
ATOM     10  C   UNL     1       4.174   2.972  19.482  0.00  0.00    +0.000 C 
ATOM     11  C   UNL     1       3.364   3.851  18.519  0.00  0.00    +0.000 C 
ENDROOT
BRANCH   1  17
ATOM     12  N   UNL     1       1.048  12.169  18.913  0.00  0.00    +0.000 N 
ATOM     13  C   UNL     1       0.707  11.103  19.749  0.00  0.00    +0.000 A 
ATOM     14  N   UNL     1      -0.155  11.279  20.762  0.00  0.00    +0.000 NA
ATOM     15  C   UNL     1      -0.395  10.234  21.561  0.00  0.00    +0.000 A 
ATOM     16  C   UNL     1       0.207   9.015  21.395  0.00  0.00    +0.000 A 
ATOM     17  C   UNL     1       1.088   8.905  20.333  0.00  0.00    +0.000 A 
ATOM     18  N   UNL     1       1.324   9.940  19.495  0.00  0.00    +0.000 NA
ATOM     19  H   UNL     1       1.726  11.832  18.242  0.00  0.00    +0.000 HD
BRANCH  12  23
ATOM     20  C   UNL     1      -0.694  16.688  18.673  0.00  0.00    +0.000 C 
ATOM     21  N   UNL     1       0.065  15.513  19.031  0.00  0.00    +0.000 N 
ATOM     22  C   UNL     1      -0.200  14.222  18.672  0.00  0.00    +0.000 A 
ATOM     23  C   UNL     1       0.865  13.486  19.129  0.00  0.00    +0.000 A 
ATOM     24  C   UNL     1       1.687  14.420  19.795  0.00  0.00    +0.000 A 
ATOM     25  N   UNL     1       1.196  15.661  19.738  0.00  0.00    +0.000 NA
ENDBRANCH  12  23
ENDBRANCH   1  17
BRANCH  11  26
ATOM     26  N   UNL     1       4.127   4.049  17.292  0.00  0.00    +0.000 N 
ATOM     27  C   UNL     1       5.500   4.186  17.295  0.00  0.00    +0.000 C 
ATOM     28  O   UNL     1       6.174   4.279  18.316  0.00  0.00    +0.000 OA
ATOM     29  H   UNL     1       3.689   3.847  16.401  0.00  0.00    +0.000 HD
BRANCH  27  30
ATOM     30  C   UNL     1       6.094   4.188  15.965  0.00  0.00    +0.000 A 
ATOM     31  C   UNL     1       5.574   3.620  14.822  0.00  0.00    +0.000 A 
ATOM     32  N   UNL     1       6.473   3.926  13.841  0.00  0.00    +0.000 N 
ATOM     33  N   UNL     1       7.499   4.644  14.351  0.00  0.00    +0.000 NA
ATOM     34  N   UNL     1       7.281   4.804  15.651  0.00  0.00    +0.000 NA
BRANCH  32  35
ATOM     35  C   UNL     1       6.358   3.707  12.391  0.00  0.00    +0.000 C 
ATOM     36  C   UNL     1       7.141   4.814  11.664  0.00  0.00    +0.000 C 
ATOM     37  C   UNL     1       6.931   2.332  11.986  0.00  0.00    +0.000 C 
ATOM     38  C   UNL     1       4.887   3.749  11.927  0.00  0.00    +0.000 C 
ENDBRANCH  32  35
ENDBRANCH  27  30
ENDBRANCH  11  26
TORSDOF 5
ENDMDL
MODEL 2
REMARK VINA RESULT:      -9.3      1.759      2.586
REMARK  Name = 
REMARK  9 active torsions:
REMARK  status: ('A' for Active; 'I' for Inactive)
REMARK    1  A    between atoms: C_1  and  N_2
REMARK    2  A    between atoms: C_4  and  N_5
REMARK    3  A    between atoms: C_10  and  C_11
REMARK    4  A    between atoms: C_21  and  N_22
REMARK    5  A    between atoms: C_23  and  C_25
REMARK    6  A    between atoms: N_27  and  C_28
REMARK    7  A    between atoms: C_28  and  C_29
REMARK    8  A    between atoms: C_28  and  C_30
REMARK    9  A    between atoms: C_28  and  C_31
REMARK                            x       y       z     vdW  Elec       q    Type
REMARK                         _______ _______ _______ _____ _____    ______ ____
ROOT
ATOM      1  C   UNL     1       1.730   8.091  19.471  0.00  0.00    +0.000 A 
ATOM      2  C   UNL     1       2.796   7.977  18.573  0.00  0.00    +0.000 A 
ATOM      3  C   UNL     1       3.360   6.735  18.270  0.00  0.00    +0.000 A 
ATOM      4  C   UNL     1       2.873   5.549  18.847  0.00  0.00    +0.000 A 
ATOM      5  C   UNL     1       1.898   5.660  19.856  0.00  0.00    +0.000 A 
ATOM      6  C   UNL     1       1.340   6.922  20.146  0.00  0.00    +0.000 A 
ATOM      7  C   UNL     1       1.392   4.464  20.627  0.00  0.00    +0.000 C 
ATOM      8  C   UNL     1       2.505   3.725  21.369  0.00  0.00    +0.000 C 
ATOM      9  C   UNL     1       3.280   2.750  20.488  0.00  0.00    +0.000 C 
ATOM     10  C   UNL     1       4.126   3.395  19.390  0.00  0.00    +0.000 C 
ATOM     11  C   UNL     1       3.320   4.178  18.345  0.00  0.00    +0.000 C 
ENDROOT
BRANCH   1  17
ATOM     12  N   UNL     1      -0.318  11.100  22.472  0.00  0.00    +0.000 N 
ATOM     13  C   UNL     1       0.075  10.855  21.154  0.00  0.00    +0.000 A 
ATOM     14  N   UNL     1      -0.219  11.730  20.181  0.00  0.00    +0.000 NA
ATOM     15  C   UNL     1       0.134  11.410  18.931  0.00  0.00    +0.000 A 
ATOM     16  C   UNL     1       0.761  10.235  18.612  0.00  0.00    +0.000 A 
ATOM     17  C   UNL     1       1.031   9.377  19.664  0.00  0.00    +0.000 A 
ATOM     18  N   UNL     1       0.709   9.693  20.939  0.00  0.00    +0.000 NA
ATOM     19  H   UNL     1      -0.025  10.312  23.035  0.00  0.00    +0.000 HD
BRANCH  12  23
ATOM     20  C   UNL     1      -4.509  13.061  23.921  0.00  0.00    +0.000 C 
ATOM     21  N   UNL     1      -3.121  12.851  23.585  0.00  0.00    +0.000 N 
ATOM     22  C   UNL     1      -2.512  11.660  23.310  0.00  0.00    +0.000 A 
ATOM     23  C   UNL     1      -1.237  11.980  22.916  0.00  0.00    +0.000 A 
ATOM     24  C   UNL     1      -1.163  13.383  23.043  0.00  0.00    +0.000 A 
ATOM     25  N   UNL     1      -2.316  13.917  23.455  0.00  0.00    +0.000 NA
ENDBRANCH  12  23
ENDBRANCH   1  17
BRANCH  11  26
ATOM     26  N   UNL     1       4.089   4.260  17.109  0.00  0.00    +0.000 N 
ATOM     27  C   UNL     1       5.462   4.393  17.105  0.00  0.00    +0.000 C 
ATOM     28  O   UNL     1       6.133   4.576  18.117  0.00  0.00    +0.000 OA
ATOM     29  H   UNL     1       3.655   3.979  16.237  0.00  0.00    +0.000 HD
BRANCH  27  30
ATOM     30  C   UNL     1       6.062   4.271  15.784  0.00  0.00    +0.000 A 
ATOM     31  C   UNL     1       5.500   3.693  14.666  0.00  0.00    +0.000 A 
ATOM     32  N   UNL     1       6.429   3.865  13.680  0.00  0.00    +0.000 N 
ATOM     33  N   UNL     1       7.513   4.513  14.164  0.00  0.00    +0.000 NA
ATOM     34  N   UNL     1       7.302   4.760  15.451  0.00  0.00    +0.000 NA
BRANCH  32  35
ATOM     35  C   UNL     1       6.303   3.581  12.243  0.00  0.00    +0.000 C 
ATOM     36  C   UNL     1       7.109   4.634  11.462  0.00  0.00    +0.000 C 
ATOM     37  C   UNL     1       6.842   2.176  11.900  0.00  0.00    +0.000 C 
ATOM     38  C   UNL     1       4.832   3.637  11.781  0.00  0.00    +0.000 C 
ENDBRANCH  32  35
ENDBRANCH  27  30
ENDBRANCH  11  26
TORSDOF 5
ENDMDL
MODEL 3
REMARK VINA RESULT:      -9.2      1.878      2.693
REMARK  Name = 
REMARK  9 active torsions:
REMARK  status: ('A' for Active; 'I' for Inactive)
REMARK    1  A    between atoms: C_1  and  N_2
REMARK    2  A    between atoms: C_4  and  N_5
REMARK    3  A    between atoms: C_10  and  C_11
REMARK    4  A    between atoms: C_21  and  N_22
REMARK    5  A    between atoms: C_23  and  C_25
REMARK    6  A    between atoms: N_27  and  C_28
REMARK    7  A    between atoms: C_28  and  C_29
REMARK    8  A    between atoms: C_28  and  C_30
REMARK    9  A    between atoms: C_28  and  C_31
REMARK                            x       y       z     vdW  Elec       q    Type
REMARK                         _______ _______ _______ _____ _____    ______ ____
ROOT
ATOM      1  C   UNL     1       1.639   8.216  19.419  0.00  0.00    +0.000 A 
ATOM      2  C   UNL     1       2.706   8.149  18.517  0.00  0.00    +0.000 A 
ATOM      3  C   UNL     1       3.317   6.931  18.206  0.00  0.00    +0.000 A 
ATOM      4  C   UNL     1       2.879   5.725  18.779  0.00  0.00    +0.000 A 
ATOM      5  C   UNL     1       1.903   5.792  19.792  0.00  0.00    +0.000 A 
ATOM      6  C   UNL     1       1.297   7.030  20.089  0.00  0.00    +0.000 A 
ATOM      7  C   UNL     1       1.448   4.573  20.558  0.00  0.00    +0.000 C 
ATOM      8  C   UNL     1       2.591   3.875  21.293  0.00  0.00    +0.000 C 
ATOM      9  C   UNL     1       3.400   2.936  20.405  0.00  0.00    +0.000 C 
ATOM     10  C   UNL     1       4.217   3.618  19.308  0.00  0.00    +0.000 C 
ATOM     11  C   UNL     1       3.377   4.374  18.269  0.00  0.00    +0.000 C 
ENDROOT
BRANCH   1  17
ATOM     12  N   UNL     1      -0.374  11.209  22.459  0.00  0.00    +0.000 N 
ATOM     13  C   UNL     1      -0.048  10.946  21.127  0.00  0.00    +0.000 A 
ATOM     14  N   UNL     1      -0.440  11.779  20.151  0.00  0.00    +0.000 NA
ATOM     15  C   UNL     1      -0.145  11.440  18.891  0.00  0.00    +0.000 A 
ATOM     16  C   UNL     1       0.519  10.287  18.565  0.00  0.00    +0.000 A 
ATOM     17  C   UNL     1       0.891   9.473  19.620  0.00  0.00    +0.000 A 
ATOM     18  N   UNL     1       0.628   9.809  20.904  0.00  0.00    +0.000 NA
ATOM     19  H   UNL     1      -0.012  10.452  23.023  0.00  0.00    +0.000 HD
BRANCH  12  23
ATOM     20  C   UNL     1      -2.526  15.144  24.303  0.00  0.00    +0.000 C 
ATOM     21  N   UNL     1      -2.273  13.837  23.746  0.00  0.00    +0.000 N 
ATOM     22  C   UNL     1      -1.108  13.391  23.191  0.00  0.00    +0.000 A 
ATOM     23  C   UNL     1      -1.308  12.057  22.934  0.00  0.00    +0.000 A 
ATOM     24  C   UNL     1      -2.643  11.814  23.321  0.00  0.00    +0.000 A 
ATOM     25  N   UNL     1      -3.235  12.904  23.815  0.00  0.00    +0.000 NA
ENDBRANCH  12  23
ENDBRANCH   1  17
BRANCH  11  26
ATOM     26  N   UNL     1       4.139   4.492  17.031  0.00  0.00    +0.000 N 
ATOM     27  C   UNL     1       5.507   4.666  17.023  0.00  0.00    +0.000 C 
ATOM     28  O   UNL     1       6.176   4.860  18.034  0.00  0.00    +0.000 OA
ATOM     29  H   UNL     1       3.709   4.208  16.158  0.00  0.00    +0.000 HD
BRANCH  27  30
ATOM     30  C   UNL     1       6.105   4.576  15.698  0.00  0.00    +0.000 A 
ATOM     31  C   UNL     1       5.651   3.833  14.630  0.00  0.00    +0.000 A 
ATOM     32  N   UNL     1       6.520   4.114  13.616  0.00  0.00    +0.000 N 
ATOM     33  N   UNL     1       7.466   4.984  14.034  0.00  0.00    +0.000 NA
ATOM     34  N   UNL     1       7.226   5.268  15.309  0.00  0.00    +0.000 NA
BRANCH  32  35
ATOM     35  C   UNL     1       6.434   3.721  12.201  0.00  0.00    +0.000 C 
ATOM     36  C   UNL     1       4.950   3.593  11.816  0.00  0.00    +0.000 C 
ATOM     37  C   UNL     1       7.105   4.769  11.287  0.00  0.00    +0.000 C 
ATOM     38  C   UNL     1       7.133   2.369  11.945  0.00  0.00    +0.000 C 
ENDBRANCH  32  35
ENDBRANCH  27  30
ENDBRANCH  11  26
TORSDOF 5
ENDMDL
MODEL 4
REMARK VINA RESULT:      -8.8      2.420     10.401
REMARK  Name = 
REMARK  9 active torsions:
REMARK  status: ('A' for Active; 'I' for Inactive)
REMARK    1  A    between atoms: C_1  and  N_2
REMARK    2  A    between atoms: C_4  and  N_5
REMARK    3  A    between atoms: C_10  and  C_11
REMARK    4  A    between atoms: C_21  and  N_22
REMARK    5  A    between atoms: C_23  and  C_25
REMARK    6  A    between atoms: N_27  and  C_28
REMARK    7  A    between atoms: C_28  and  C_29
REMARK    8  A    between atoms: C_28  and  C_30
REMARK    9  A    between atoms: C_28  and  C_31
REMARK                            x       y       z     vdW  Elec       q    Type
REMARK                         _______ _______ _______ _____ _____    ______ ____
ROOT
ATOM      1  C   UNL     1       1.883   7.788  19.237  0.00  0.00    +0.000 A 
ATOM      2  C   UNL     1       1.583   8.947  18.513  0.00  0.00    +0.000 A 
ATOM      3  C   UNL     1       1.075  10.085  19.145  0.00  0.00    +0.000 A 
ATOM      4  C   UNL     1       0.854  10.116  20.532  0.00  0.00    +0.000 A 
ATOM      5  C   UNL     1       1.017   8.917  21.252  0.00  0.00    +0.000 A 
ATOM      6  C   UNL     1       1.533   7.780  20.598  0.00  0.00    +0.000 A 
ATOM      7  C   UNL     1       0.692   8.806  22.723  0.00  0.00    +0.000 C 
ATOM      8  C   UNL     1      -0.766   9.144  23.033  0.00  0.00    +0.000 C 
ATOM      9  C   UNL     1      -1.030  10.641  23.153  0.00  0.00    +0.000 C 
ATOM     10  C   UNL     1      -0.883  11.434  21.854  0.00  0.00    +0.000 C 
ATOM     11  C   UNL     1       0.531  11.420  21.258  0.00  0.00    +0.000 C 
ENDROOT
BRANCH   1  17
ATOM     12  N   UNL     1       5.312   6.314  16.352  0.00  0.00    +0.000 N 
ATOM     13  C   UNL     1       4.282   5.946  17.220  0.00  0.00    +0.000 A 
ATOM     14  N   UNL     1       3.962   4.655  17.390  0.00  0.00    +0.000 NA
ATOM     15  C   UNL     1       2.928   4.373  18.191  0.00  0.00    +0.000 A 
ATOM     16  C   UNL     1       2.188   5.337  18.821  0.00  0.00    +0.000 A 
ATOM     17  C   UNL     1       2.571   6.648  18.598  0.00  0.00    +0.000 A 
ATOM     18  N   UNL     1       3.631   6.956  17.815  0.00  0.00    +0.000 NA
ATOM     19  H   UNL     1       5.370   7.324  16.348  0.00  0.00    +0.000 HD
BRANCH  12  23
ATOM     20  C   UNL     1       5.957   3.336  12.580  0.00  0.00    +0.000 C 
ATOM     21  N   UNL     1       6.174   4.247  13.678  0.00  0.00    +0.000 N 
ATOM     22  C   UNL     1       5.227   4.966  14.350  0.00  0.00    +0.000 A 
ATOM     23  C   UNL     1       5.891   5.572  15.387  0.00  0.00    +0.000 A 
ATOM     24  C   UNL     1       7.241   5.198  15.217  0.00  0.00    +0.000 A 
ATOM     25  N   UNL     1       7.415   4.389  14.169  0.00  0.00    +0.000 NA
ENDBRANCH  12  23
ENDBRANCH   1  17
BRANCH  11  26
ATOM     26  N   UNL     1       0.704  12.591  20.405  0.00  0.00    +0.000 N 
ATOM     27  C   UNL     1       1.694  13.524  20.631  0.00  0.00    +0.000 C 
ATOM     28  O   UNL     1       2.422  13.521  21.620  0.00  0.00    +0.000 OA
ATOM     29  H   UNL     1       0.255  12.611  19.497  0.00  0.00    +0.000 HD
BRANCH  27  30
ATOM     30  C   UNL     1       1.822  14.515  19.572  0.00  0.00    +0.000 A 
ATOM     31  C   UNL     1       1.005  15.602  19.346  0.00  0.00    +0.000 A 
ATOM     32  N   UNL     1       1.560  16.239  18.274  0.00  0.00    +0.000 N 
ATOM     33  N   UNL     1       2.662  15.579  17.854  0.00  0.00    +0.000 NA
ATOM     34  N   UNL     1       2.828  14.518  18.636  0.00  0.00    +0.000 NA
BRANCH  32  35
ATOM     35  C   UNL     1       1.197  17.540  17.692  0.00  0.00    +0.000 C 
ATOM     36  C   UNL     1       1.410  18.630  18.757  0.00  0.00    +0.000 C 
ATOM     37  C   UNL     1       2.065  17.863  16.458  0.00  0.00    +0.000 C 
ATOM     38  C   UNL     1      -0.278  17.566  17.241  0.00  0.00    +0.000 C 
ENDBRANCH  32  35
ENDBRANCH  27  30
ENDBRANCH  11  26
TORSDOF 5
ENDMDL
MODEL 5
REMARK VINA RESULT:      -8.3      0.933      1.302
REMARK  Name = 
REMARK  9 active torsions:
REMARK  status: ('A' for Active; 'I' for Inactive)
REMARK    1  A    between atoms: C_1  and  N_2
REMARK    2  A    between atoms: C_4  and  N_5
REMARK    3  A    between atoms: C_10  and  C_11
REMARK    4  A    between atoms: C_21  and  N_22
REMARK    5  A    between atoms: C_23  and  C_25
REMARK    6  A    between atoms: N_27  and  C_28
REMARK    7  A    between atoms: C_28  and  C_29
REMARK    8  A    between atoms: C_28  and  C_30
REMARK    9  A    between atoms: C_28  and  C_31
REMARK                            x       y       z     vdW  Elec       q    Type
REMARK                         _______ _______ _______ _____ _____    ______ ____
ROOT
ATOM      1  C   UNL     1       1.801   7.311  20.293  0.00  0.00    +0.000 A 
ATOM      2  C   UNL     1       2.895   7.307  19.422  0.00  0.00    +0.000 A 
ATOM      3  C   UNL     1       3.307   6.136  18.780  0.00  0.00    +0.000 A 
ATOM      4  C   UNL     1       2.632   4.918  18.975  0.00  0.00    +0.000 A 
ATOM      5  C   UNL     1       1.621   4.874  19.953  0.00  0.00    +0.000 A 
ATOM      6  C   UNL     1       1.218   6.067  20.589  0.00  0.00    +0.000 A 
ATOM      7  C   UNL     1       0.915   3.594  20.330  0.00  0.00    +0.000 C 
ATOM      8  C   UNL     1       1.872   2.520  20.845  0.00  0.00    +0.000 C 
ATOM      9  C   UNL     1       2.562   1.737  19.732  0.00  0.00    +0.000 C 
ATOM     10  C   UNL     1       3.552   2.540  18.888  0.00  0.00    +0.000 C 
ATOM     11  C   UNL     1       2.922   3.699  18.102  0.00  0.00    +0.000 C 
ENDROOT
BRANCH   1  17
ATOM     12  N   UNL     1      -0.265  11.465  19.437  0.00  0.00    +0.000 N 
ATOM     13  C   UNL     1       0.217  10.581  20.405  0.00  0.00    +0.000 A 
ATOM     14  N   UNL     1       0.209  10.921  21.703  0.00  0.00    +0.000 NA
ATOM     15  C   UNL     1       0.738  10.054  22.574  0.00  0.00    +0.000 A 
ATOM     16  C   UNL     1       1.291   8.859  22.194  0.00  0.00    +0.000 A 
ATOM     17  C   UNL     1       1.269   8.575  20.841  0.00  0.00    +0.000 A 
ATOM     18  N   UNL     1       0.714   9.424  19.945  0.00  0.00    +0.000 NA
ATOM     19  H   UNL     1      -0.143  11.030  18.532  0.00  0.00    +0.000 HD
BRANCH  12  23
ATOM     20  C   UNL     1       0.403  16.260  19.706  0.00  0.00    +0.000 C 
ATOM     21  N   UNL     1      -0.190  14.944  19.659  0.00  0.00    +0.000 N 
ATOM     22  C   UNL     1       0.430  13.775  19.323  0.00  0.00    +0.000 A 
ATOM     23  C   UNL     1      -0.494  12.787  19.559  0.00  0.00    +0.000 A 
ATOM     24  C   UNL     1      -1.653  13.473  19.981  0.00  0.00    +0.000 A 
ATOM     25  N   UNL     1      -1.468  14.794  20.040  0.00  0.00    +0.000 NA
ENDBRANCH  12  23
ENDBRANCH   1  17
BRANCH  11  26
ATOM     26  N   UNL     1       3.770   4.020  16.959  0.00  0.00    +0.000 N 
ATOM     27  C   UNL     1       5.136   4.166  17.076  0.00  0.00    +0.000 C 
ATOM     28  O   UNL     1       5.734   4.163  18.148  0.00  0.00    +0.000 OA
ATOM     29  H   UNL     1       3.400   3.904  16.023  0.00  0.00    +0.000 HD
BRANCH  27  30
ATOM     30  C   UNL     1       5.825   4.301  15.800  0.00  0.00    +0.000 A 
ATOM     31  C   UNL     1       5.549   3.624  14.631  0.00  0.00    +0.000 A 
ATOM     32  N   UNL     1       6.434   4.127  13.720  0.00  0.00    +0.000 N 
ATOM     33  N   UNL     1       7.219   5.065  14.296  0.00  0.00    +0.000 NA
ATOM     34  N   UNL     1       6.860   5.174  15.570  0.00  0.00    +0.000 NA
BRANCH  32  35
ATOM     35  C   UNL     1       6.496   3.883  12.271  0.00  0.00    +0.000 C 
ATOM     36  C   UNL     1       7.370   2.642  12.021  0.00  0.00    +0.000 C 
ATOM     37  C   UNL     1       5.090   3.637  11.684  0.00  0.00    +0.000 C 
ATOM     38  C   UNL     1       7.107   5.083  11.519  0.00  0.00    +0.000 C 
ENDBRANCH  32  35
ENDBRANCH  27  30
ENDBRANCH  11  26
TORSDOF 5
ENDMDL
MODEL 6
REMARK VINA RESULT:      -8.3      1.057      1.274
REMARK  Name = 
REMARK  9 active torsions:
REMARK  status: ('A' for Active; 'I' for Inactive)
REMARK    1  A    between atoms: C_1  and  N_2
REMARK    2  A    between atoms: C_4  and  N_5
REMARK    3  A    between atoms: C_10  and  C_11
REMARK    4  A    between atoms: C_21  and  N_22
REMARK    5  A    between atoms: C_23  and  C_25
REMARK    6  A    between atoms: N_27  and  C_28
REMARK    7  A    between atoms: C_28  and  C_29
REMARK    8  A    between atoms: C_28  and  C_30
REMARK    9  A    between atoms: C_28  and  C_31
REMARK                            x       y       z     vdW  Elec       q    Type
REMARK                         _______ _______ _______ _____ _____    ______ ____
ROOT
ATOM      1  C   UNL     1       1.660   8.427  19.214  0.00  0.00    +0.000 A 
ATOM      2  C   UNL     1       2.737   8.271  18.335  0.00  0.00    +0.000 A 
ATOM      3  C   UNL     1       3.305   7.015  18.100  0.00  0.00    +0.000 A 
ATOM      4  C   UNL     1       2.811   5.859  18.728  0.00  0.00    +0.000 A 
ATOM      5  C   UNL     1       1.824   6.018  19.718  0.00  0.00    +0.000 A 
ATOM      6  C   UNL     1       1.262   7.292  19.940  0.00  0.00    +0.000 A 
ATOM      7  C   UNL     1       1.308   4.860  20.540  0.00  0.00    +0.000 C 
ATOM      8  C   UNL     1       2.412   4.158  21.330  0.00  0.00    +0.000 C 
ATOM      9  C   UNL     1       3.197   3.142  20.506  0.00  0.00    +0.000 C 
ATOM     10  C   UNL     1       4.057   3.734  19.389  0.00  0.00    +0.000 C 
ATOM     11  C   UNL     1       3.264   4.465  18.298  0.00  0.00    +0.000 C 
ENDROOT
BRANCH   1  17
ATOM     12  N   UNL     1       1.760  13.092  18.518  0.00  0.00    +0.000 N 
ATOM     13  C   UNL     1       1.010  11.994  18.945  0.00  0.00    +0.000 A 
ATOM     14  N   UNL     1      -0.221  12.163  19.451  0.00  0.00    +0.000 NA
ATOM     15  C   UNL     1      -0.863  11.077  19.895  0.00  0.00    +0.000 A 
ATOM     16  C   UNL     1      -0.315   9.822  19.866  0.00  0.00    +0.000 A 
ATOM     17  C   UNL     1       0.959   9.721  19.336  0.00  0.00    +0.000 A 
ATOM     18  N   UNL     1       1.617  10.801  18.854  0.00  0.00    +0.000 NA
ATOM     19  H   UNL     1       2.658  12.751  18.203  0.00  0.00    +0.000 HD
BRANCH  12  23
ATOM     20  C   UNL     1       2.429  17.633  20.083  0.00  0.00    +0.000 C 
ATOM     21  N   UNL     1       1.874  16.440  19.488  0.00  0.00    +0.000 N 
ATOM     22  C   UNL     1       2.526  15.267  19.236  0.00  0.00    +0.000 A 
ATOM     23  C   UNL     1       1.560  14.395  18.799  0.00  0.00    +0.000 A 
ATOM     24  C   UNL     1       0.373  15.157  18.772  0.00  0.00    +0.000 A 
ATOM     25  N   UNL     1       0.565  16.411  19.191  0.00  0.00    +0.000 NA
ENDBRANCH  12  23
ENDBRANCH   1  17
BRANCH  11  26
ATOM     26  N   UNL     1       4.048   4.488  17.068  0.00  0.00    +0.000 N 
ATOM     27  C   UNL     1       5.420   4.636  17.074  0.00  0.00    +0.000 C 
ATOM     28  O   UNL     1       6.075   4.882  18.083  0.00  0.00    +0.000 OA
ATOM     29  H   UNL     1       3.628   4.155  16.208  0.00  0.00    +0.000 HD
BRANCH  27  30
ATOM     30  C   UNL     1       6.038   4.448  15.769  0.00  0.00    +0.000 A 
ATOM     31  C   UNL     1       5.464   3.881  14.652  0.00  0.00    +0.000 A 
ATOM     32  N   UNL     1       6.423   3.974  13.683  0.00  0.00    +0.000 N 
ATOM     33  N   UNL     1       7.533   4.565  14.177  0.00  0.00    +0.000 NA
ATOM     34  N   UNL     1       7.312   4.853  15.454  0.00  0.00    +0.000 NA
BRANCH  32  35
ATOM     35  C   UNL     1       6.309   3.666  12.250  0.00  0.00    +0.000 C 
ATOM     36  C   UNL     1       7.071   4.742  11.455  0.00  0.00    +0.000 C 
ATOM     37  C   UNL     1       6.906   2.281  11.925  0.00  0.00    +0.000 C 
ATOM     38  C   UNL     1       4.837   3.655  11.788  0.00  0.00    +0.000 C 
ENDBRANCH  32  35
ENDBRANCH  27  30
ENDBRANCH  11  26
TORSDOF 5
ENDMDL
MODEL 7
REMARK VINA RESULT:      -8.3      7.021      9.620
REMARK  Name = 
REMARK  9 active torsions:
REMARK  status: ('A' for Active; 'I' for Inactive)
REMARK    1  A    between atoms: C_1  and  N_2
REMARK    2  A    between atoms: C_4  and  N_5
REMARK    3  A    between atoms: C_10  and  C_11
REMARK    4  A    between atoms: C_21  and  N_22
REMARK    5  A    between atoms: C_23  and  C_25
REMARK    6  A    between atoms: N_27  and  C_28
REMARK    7  A    between atoms: C_28  and  C_29
REMARK    8  A    between atoms: C_28  and  C_30
REMARK    9  A    between atoms: C_28  and  C_31
REMARK                            x       y       z     vdW  Elec       q    Type
REMARK                         _______ _______ _______ _____ _____    ______ ____
ROOT
ATOM      1  C   UNL     1       0.852  13.207  19.053  0.00  0.00    +0.000 A 
ATOM      2  C   UNL     1       2.026  13.109  18.299  0.00  0.00    +0.000 A 
ATOM      3  C   UNL     1       3.129  13.925  18.565  0.00  0.00    +0.000 A 
ATOM      4  C   UNL     1       3.107  14.869  19.607  0.00  0.00    +0.000 A 
ATOM      5  C   UNL     1       1.890  15.077  20.282  0.00  0.00    +0.000 A 
ATOM      6  C   UNL     1       0.789  14.243  20.001  0.00  0.00    +0.000 A 
ATOM      7  C   UNL     1       1.721  16.148  21.333  0.00  0.00    +0.000 C 
ATOM      8  C   UNL     1       2.010  17.551  20.800  0.00  0.00    +0.000 C 
ATOM      9  C   UNL     1       3.495  17.898  20.776  0.00  0.00    +0.000 C 
ATOM     10  C   UNL     1       4.335  17.097  19.781  0.00  0.00    +0.000 C 
ATOM     11  C   UNL     1       4.378  15.588  20.055  0.00  0.00    +0.000 C 
ENDROOT
BRANCH   1  17
ATOM     12  N   UNL     1      -3.795  12.477  18.695  0.00  0.00    +0.000 N 
ATOM     13  C   UNL     1      -2.520  11.908  18.660  0.00  0.00    +0.000 A 
ATOM     14  N   UNL     1      -2.369  10.582  18.518  0.00  0.00    +0.000 NA
ATOM     15  C   UNL     1      -1.125  10.093  18.551  0.00  0.00    +0.000 A 
ATOM     16  C   UNL     1      -0.019  10.880  18.735  0.00  0.00    +0.000 A 
ATOM     17  C   UNL     1      -0.248  12.237  18.879  0.00  0.00    +0.000 A 
ATOM     18  N   UNL     1      -1.496  12.758  18.821  0.00  0.00    +0.000 NA
ATOM     19  H   UNL     1      -3.686  13.473  18.836  0.00  0.00    +0.000 HD
BRANCH  12  23
ATOM     20  C   UNL     1      -7.791  10.752  20.834  0.00  0.00    +0.000 C 
ATOM     21  N   UNL     1      -6.780  11.104  19.864  0.00  0.00    +0.000 N 
ATOM     22  C   UNL     1      -5.728  11.955  20.046  0.00  0.00    +0.000 A 
ATOM     23  C   UNL     1      -4.976  11.861  18.901  0.00  0.00    +0.000 A 
ATOM     24  C   UNL     1      -5.692  10.971  18.073  0.00  0.00    +0.000 A 
ATOM     25  N   UNL     1      -6.799  10.509  18.661  0.00  0.00    +0.000 NA
ENDBRANCH  12  23
ENDBRANCH   1  17
BRANCH  11  26
ATOM     26  N   UNL     1       5.580  15.025  19.452  0.00  0.00    +0.000 N 
ATOM     27  C   UNL     1       6.837  15.245  19.976  0.00  0.00    +0.000 C 
ATOM     28  O   UNL     1       7.065  16.018  20.901  0.00  0.00    +0.000 OA
ATOM     29  H   UNL     1       5.489  14.269  18.783  0.00  0.00    +0.000 HD
BRANCH  27  30
ATOM     30  C   UNL     1       7.884  14.452  19.347  0.00  0.00    +0.000 A 
ATOM     31  C   UNL     1       8.741  13.567  19.965  0.00  0.00    +0.000 A 
ATOM     32  N   UNL     1       9.499  13.051  18.953  0.00  0.00    +0.000 N 
ATOM     33  N   UNL     1       9.133  13.592  17.769  0.00  0.00    +0.000 NA
ATOM     34  N   UNL     1       8.151  14.456  17.999  0.00  0.00    +0.000 NA
BRANCH  32  35
ATOM     35  C   UNL     1      10.472  11.950  19.006  0.00  0.00    +0.000 C 
ATOM     36  C   UNL     1       9.721  10.622  18.804  0.00  0.00    +0.000 C 
ATOM     37  C   UNL     1      11.545  12.097  17.907  0.00  0.00    +0.000 C 
ATOM     38  C   UNL     1      11.204  11.906  20.364  0.00  0.00    +0.000 C 
ENDBRANCH  32  35
ENDBRANCH  27  30
ENDBRANCH  11  26
TORSDOF 5
ENDMDL
MODEL 8
REMARK VINA RESULT:      -8.3      1.251      1.548
REMARK  Name = 
REMARK  9 active torsions:
REMARK  status: ('A' for Active; 'I' for Inactive)
REMARK    1  A    between atoms: C_1  and  N_2
REMARK    2  A    between atoms: C_4  and  N_5
REMARK    3  A    between atoms: C_10  and  C_11
REMARK    4  A    between atoms: C_21  and  N_22
REMARK    5  A    between atoms: C_23  and  C_25
REMARK    6  A    between atoms: N_27  and  C_28
REMARK    7  A    between atoms: C_28  and  C_29
REMARK    8  A    between atoms: C_28  and  C_30
REMARK    9  A    between atoms: C_28  and  C_31
REMARK                            x       y       z     vdW  Elec       q    Type
REMARK                         _______ _______ _______ _____ _____    ______ ____
ROOT
ATOM      1  C   UNL     1       1.742   8.674  18.958  0.00  0.00    +0.000 A 
ATOM      2  C   UNL     1       2.821   8.536  18.080  0.00  0.00    +0.000 A 
ATOM      3  C   UNL     1       3.416   7.292  17.851  0.00  0.00    +0.000 A 
ATOM      4  C   UNL     1       2.948   6.129  18.487  0.00  0.00    +0.000 A 
ATOM      5  C   UNL     1       1.958   6.272  19.477  0.00  0.00    +0.000 A 
ATOM      6  C   UNL     1       1.369   7.535  19.692  0.00  0.00    +0.000 A 
ATOM      7  C   UNL     1       1.470   5.108  20.307  0.00  0.00    +0.000 C 
ATOM      8  C   UNL     1       2.589   4.436  21.100  0.00  0.00    +0.000 C 
ATOM      9  C   UNL     1       3.396   3.432  20.282  0.00  0.00    +0.000 C 
ATOM     10  C   UNL     1       4.241   4.036  19.160  0.00  0.00    +0.000 C 
ATOM     11  C   UNL     1       3.431   4.743  18.065  0.00  0.00    +0.000 C 
ENDROOT
BRANCH   1  17
ATOM     12  N   UNL     1       1.959  13.385  19.095  0.00  0.00    +0.000 N 
ATOM     13  C   UNL     1       1.136  12.256  19.092  0.00  0.00    +0.000 A 
ATOM     14  N   UNL     1      -0.193  12.380  19.225  0.00  0.00    +0.000 NA
ATOM     15  C   UNL     1      -0.919  11.258  19.272  0.00  0.00    +0.000 A 
ATOM     16  C   UNL     1      -0.364  10.007  19.206  0.00  0.00    +0.000 A 
ATOM     17  C   UNL     1       1.012   9.953  19.073  0.00  0.00    +0.000 A 
ATOM     18  N   UNL     1       1.764  11.075  18.994  0.00  0.00    +0.000 NA
ATOM     19  H   UNL     1       2.917  13.070  19.013  0.00  0.00    +0.000 HD
BRANCH  12  23
ATOM     20  C   UNL     1       0.961  18.130  19.116  0.00  0.00    +0.000 C 
ATOM     21  N   UNL     1       1.192  16.761  19.513  0.00  0.00    +0.000 N 
ATOM     22  C   UNL     1       1.311  15.676  18.692  0.00  0.00    +0.000 A 
ATOM     23  C   UNL     1       1.660  14.631  19.511  0.00  0.00    +0.000 A 
ATOM     24  C   UNL     1       1.669  15.180  20.811  0.00  0.00    +0.000 A 
ATOM     25  N   UNL     1       1.380  16.485  20.813  0.00  0.00    +0.000 NA
ENDBRANCH  12  23
ENDBRANCH   1  17
BRANCH  11  26
ATOM     26  N   UNL     1       4.214   4.775  16.835  0.00  0.00    +0.000 N 
ATOM     27  C   UNL     1       5.588   4.892  16.841  0.00  0.00    +0.000 C 
ATOM     28  O   UNL     1       6.251   5.100  17.853  0.00  0.00    +0.000 OA
ATOM     29  H   UNL     1       3.784   4.471  15.969  0.00  0.00    +0.000 HD
BRANCH  27  30
ATOM     30  C   UNL     1       6.200   4.719  15.531  0.00  0.00    +0.000 A 
ATOM     31  C   UNL     1       5.723   3.959  14.484  0.00  0.00    +0.000 A 
ATOM     32  N   UNL     1       6.620   4.156  13.474  0.00  0.00    +0.000 N 
ATOM     33  N   UNL     1       7.604   4.992  13.875  0.00  0.00    +0.000 NA
ATOM     34  N   UNL     1       7.361   5.337  15.134  0.00  0.00    +0.000 NA
BRANCH  32  35
ATOM     35  C   UNL     1       6.535   3.713  12.075  0.00  0.00    +0.000 C 
ATOM     36  C   UNL     1       5.062   3.417  11.742  0.00  0.00    +0.000 C 
ATOM     37  C   UNL     1       7.063   4.797  11.111  0.00  0.00    +0.000 C 
ATOM     38  C   UNL     1       7.366   2.435  11.833  0.00  0.00    +0.000 C 
ENDBRANCH  32  35
ENDBRANCH  27  30
ENDBRANCH  11  26
TORSDOF 5
ENDMDL
MODEL 9
REMARK VINA RESULT:      -8.3      1.809      1.994
REMARK  Name = 
REMARK  9 active torsions:
REMARK  status: ('A' for Active; 'I' for Inactive)
REMARK    1  A    between atoms: C_1  and  N_2
REMARK    2  A    between atoms: C_4  and  N_5
REMARK    3  A    between atoms: C_10  and  C_11
REMARK    4  A    between atoms: C_21  and  N_22
REMARK    5  A    between atoms: C_23  and  C_25
REMARK    6  A    between atoms: N_27  and  C_28
REMARK    7  A    between atoms: C_28  and  C_29
REMARK    8  A    between atoms: C_28  and  C_30
REMARK    9  A    between atoms: C_28  and  C_31
REMARK                            x       y       z     vdW  Elec       q    Type
REMARK                         _______ _______ _______ _____ _____    ______ ____
ROOT
ATOM      1  C   UNL     1       1.582   8.541  19.053  0.00  0.00    +0.000 A 
ATOM      2  C   UNL     1       2.656   8.439  18.163  0.00  0.00    +0.000 A 
ATOM      3  C   UNL     1       3.305   7.220  17.945  0.00  0.00    +0.000 A 
ATOM      4  C   UNL     1       2.898   6.046  18.603  0.00  0.00    +0.000 A 
ATOM      5  C   UNL     1       1.914   6.159  19.603  0.00  0.00    +0.000 A 
ATOM      6  C   UNL     1       1.270   7.397  19.807  0.00  0.00    +0.000 A 
ATOM      7  C   UNL     1       1.489   4.987  20.455  0.00  0.00    +0.000 C 
ATOM      8  C   UNL     1       2.647   4.378  21.244  0.00  0.00    +0.000 C 
ATOM      9  C   UNL     1       3.489   3.400  20.431  0.00  0.00    +0.000 C 
ATOM     10  C   UNL     1       4.292   4.024  19.290  0.00  0.00    +0.000 C 
ATOM     11  C   UNL     1       3.438   4.678  18.195  0.00  0.00    +0.000 C 
ENDROOT
BRANCH   1  17
ATOM     12  N   UNL     1       0.887  12.633  21.295  0.00  0.00    +0.000 N 
ATOM     13  C   UNL     1       0.503  11.803  20.239  0.00  0.00    +0.000 A 
ATOM     14  N   UNL     1      -0.524  12.141  19.445  0.00  0.00    +0.000 NA
ATOM     15  C   UNL     1      -0.878  11.276  18.488  0.00  0.00    +0.000 A 
ATOM     16  C   UNL     1      -0.252  10.072  18.302  0.00  0.00    +0.000 A 
ATOM     17  C   UNL     1       0.796   9.787  19.158  0.00  0.00    +0.000 A 
ATOM     18  N   UNL     1       1.191  10.659  20.115  0.00  0.00    +0.000 NA
ATOM     19  H   UNL     1       1.654  12.184  21.779  0.00  0.00    +0.000 HD
BRANCH  12  23
ATOM     20  C   UNL     1      -2.538  15.105  23.676  0.00  0.00    +0.000 C 
ATOM     21  N   UNL     1      -1.346  14.741  22.948  0.00  0.00    +0.000 N 
ATOM     22  C   UNL     1      -0.891  13.479  22.693  0.00  0.00    +0.000 A 
ATOM     23  C   UNL     1       0.189  13.637  21.860  0.00  0.00    +0.000 A 
ATOM     24  C   UNL     1       0.333  15.034  21.720  0.00  0.00    +0.000 A 
ATOM     25  N   UNL     1      -0.605  15.711  22.388  0.00  0.00    +0.000 NA
ENDBRANCH  12  23
ENDBRANCH   1  17
BRANCH  11  26
ATOM     26  N   UNL     1       4.204   4.727  16.954  0.00  0.00    +0.000 N 
ATOM     27  C   UNL     1       5.573   4.894  16.942  0.00  0.00    +0.000 C 
ATOM     28  O   UNL     1       6.240   5.136  17.944  0.00  0.00    +0.000 OA
ATOM     29  H   UNL     1       3.775   4.399  16.096  0.00  0.00    +0.000 HD
BRANCH  27  30
ATOM     30  C   UNL     1       6.174   4.732  15.626  0.00  0.00    +0.000 A 
ATOM     31  C   UNL     1       5.688   3.982  14.576  0.00  0.00    +0.000 A 
ATOM     32  N   UNL     1       6.578   4.185  13.561  0.00  0.00    +0.000 N 
ATOM     33  N   UNL     1       7.566   5.015  13.962  0.00  0.00    +0.000 NA
ATOM     34  N   UNL     1       7.334   5.350  15.226  0.00  0.00    +0.000 NA
BRANCH  32  35
ATOM     35  C   UNL     1       6.481   3.755  12.158  0.00  0.00    +0.000 C 
ATOM     36  C   UNL     1       7.103   4.844  11.267  0.00  0.00    +0.000 C 
ATOM     37  C   UNL     1       7.230   2.425  11.928  0.00  0.00    +0.000 C 
ATOM     38  C   UNL     1       5.014   3.539  11.732  0.00  0.00    +0.000 C 
ENDBRANCH  32  35
ENDBRANCH  27  30
ENDBRANCH  11  26
TORSDOF 5
ENDMDL
