MODEL 1
REMARK VINA RESULT:      -6.5      0.000      0.000
REMARK  Name = 
REMARK  9 active torsions:
REMARK  status: ('A' for Active; 'I' for Inactive)
REMARK    1  A    between atoms: C_1  and  C_2
REMARK    2  A    between atoms: C_2  and  C_4
REMARK    3  A    between atoms: C_10  and  N_11
REMARK    4  A    between atoms: N_11  and  C_12
REMARK    5  A    between atoms: C_12  and  C_13
REMARK    6  A    between atoms: N_15  and  C_16
REMARK    7  A    between atoms: N_15  and  C_17
REMARK    8  A    between atoms: C_17  and  C_18
REMARK    9  A    between atoms: C_18  and  C_19
REMARK                            x       y       z     vdW  Elec       q    Type
REMARK                         _______ _______ _______ _____ _____    ______ ____
ROOT
ATOM      1  N   UNL     1       2.652   3.830  17.581  0.00  0.00    +0.000 N 
ATOM      2  H   UNL     1       2.481   4.230  16.657  0.00  0.00    +0.000 HD
ENDROOT
BRANCH   1   9
ATOM      3  C   UNL     1       1.815   4.661  19.776  0.00  0.00    +0.000 A 
ATOM      4  C   UNL     1       1.574   5.742  20.662  0.00  0.00    +0.000 A 
ATOM      5  C   UNL     1       1.819   7.035  20.270  0.00  0.00    +0.000 A 
ATOM      6 BR   UNL     1       1.555   8.511  21.411  0.00  0.00    +0.000 Br
ATOM      7  C   UNL     1       2.239   7.244  18.978  0.00  0.00    +0.000 A 
ATOM      8  C   UNL     1       2.609   6.172  18.157  0.00  0.00    +0.000 A 
ATOM      9  C   UNL     1       2.472   4.842  18.529  0.00  0.00    +0.000 A 
BRANCH   3  11
ATOM     10  C   UNL     1       1.662   2.805  21.538  0.00  0.00    +0.000 C 
ATOM     11  C   UNL     1       1.236   3.392  20.223  0.00  0.00    +0.000 C 
ATOM     12  O   UNL     1       0.396   2.822  19.519  0.00  0.00    +0.000 OA
ENDBRANCH   3  11
ENDBRANCH   1   9
BRANCH   1  13
ATOM     13  C   UNL     1       3.915   3.014  17.496  0.00  0.00    +0.000 C 
BRANCH  13  14
ATOM     14  C   UNL     1       5.188   3.635  18.120  0.00  0.00    +0.000 C 
ATOM     15  O   UNL     1       5.399   3.507  19.333  0.00  0.00    +0.000 OA
ATOM     16  N   UNL     1       6.126   4.285  17.310  0.00  0.00    +0.000 N 
ATOM     17  C   UNL     1       5.957   4.600  15.894  0.00  0.00    +0.000 C 
BRANCH  16  18
ATOM     18  C   UNL     1       7.407   4.732  17.894  0.00  0.00    +0.000 C 
BRANCH  18  19
ATOM     19  C   UNL     1       7.344   6.028  18.710  0.00  0.00    +0.000 C 
BRANCH  19  20
ATOM     20  C   UNL     1       7.561   7.264  17.852  0.00  0.00    +0.000 C 
ATOM     21  N   UNL     1       7.742   8.288  17.140  0.00  0.00    +0.000 NA
ENDBRANCH  19  20
ENDBRANCH  18  19
ENDBRANCH  16  18
ENDBRANCH  13  14
ENDBRANCH   1  13
TORSDOF 7
ENDMDL
MODEL 2
REMARK VINA RESULT:      -6.4      1.600      1.896
REMARK  Name = 
REMARK  9 active torsions:
REMARK  status: ('A' for Active; 'I' for Inactive)
REMARK    1  A    between atoms: C_1  and  C_2
REMARK    2  A    between atoms: C_2  and  C_4
REMARK    3  A    between atoms: C_10  and  N_11
REMARK    4  A    between atoms: N_11  and  C_12
REMARK    5  A    between atoms: C_12  and  C_13
REMARK    6  A    between atoms: N_15  and  C_16
REMARK    7  A    between atoms: N_15  and  C_17
REMARK    8  A    between atoms: C_17  and  C_18
REMARK    9  A    between atoms: C_18  and  C_19
REMARK                            x       y       z     vdW  Elec       q    Type
REMARK                         _______ _______ _______ _____ _____    ______ ____
ROOT
ATOM      1  N   UNL     1       4.166   4.605  17.868  0.00  0.00    +0.000 N 
ATOM      2  H   UNL     1       4.155   5.011  16.930  0.00  0.00    +0.000 HD
ENDROOT
BRANCH   1   9
ATOM      3  C   UNL     1       2.647   5.011  19.801  0.00  0.00    +0.000 A 
ATOM      4  C   UNL     1       1.864   5.907  20.572  0.00  0.00    +0.000 A 
ATOM      5  C   UNL     1       1.723   7.219  20.190  0.00  0.00    +0.000 A 
ATOM      6 BR   UNL     1       0.727   8.467  21.190  0.00  0.00    +0.000 Br
ATOM      7  C   UNL     1       2.308   7.608  19.008  0.00  0.00    +0.000 A 
ATOM      8  C   UNL     1       3.193   6.763  18.328  0.00  0.00    +0.000 A 
ATOM      9  C   UNL     1       3.450   5.456  18.715  0.00  0.00    +0.000 A 
BRANCH   3  11
ATOM     10  C   UNL     1       2.279   3.229  21.607  0.00  0.00    +0.000 C 
ATOM     11  C   UNL     1       2.465   3.604  20.165  0.00  0.00    +0.000 C 
ATOM     12  O   UNL     1       2.454   2.741  19.281  0.00  0.00    +0.000 OA
ENDBRANCH   3  11
ENDBRANCH   1   9
BRANCH   1  13
ATOM     13  C   UNL     1       5.580   4.173  18.158  0.00  0.00    +0.000 C 
BRANCH  13  14
ATOM     14  C   UNL     1       6.542   5.259  18.696  0.00  0.00    +0.000 C 
ATOM     15  O   UNL     1       6.924   5.209  19.874  0.00  0.00    +0.000 OA
ATOM     16  N   UNL     1       7.027   6.258  17.845  0.00  0.00    +0.000 N 
ATOM     17  C   UNL     1       6.583   6.499  16.475  0.00  0.00    +0.000 C 
BRANCH  16  18
ATOM     18  C   UNL     1       8.064   7.190  18.331  0.00  0.00    +0.000 C 
BRANCH  18  19
ATOM     19  C   UNL     1       7.969   8.622  17.793  0.00  0.00    +0.000 C 
BRANCH  19  20
ATOM     20  C   UNL     1       8.768   9.609  18.628  0.00  0.00    +0.000 C 
ATOM     21  N   UNL     1       9.431  10.427  19.321  0.00  0.00    +0.000 NA
ENDBRANCH  19  20
ENDBRANCH  18  19
ENDBRANCH  16  18
ENDBRANCH  13  14
ENDBRANCH   1  13
TORSDOF 7
ENDMDL
MODEL 3
REMARK VINA RESULT:      -6.3      3.145      6.513
REMARK  Name = 
REMARK  9 active torsions:
REMARK  status: ('A' for Active; 'I' for Inactive)
REMARK    1  A    between atoms: C_1  and  C_2
REMARK    2  A    between atoms: C_2  and  C_4
REMARK    3  A    between atoms: C_10  and  N_11
REMARK    4  A    between atoms: N_11  and  C_12
REMARK    5  A    between atoms: C_12  and  C_13
REMARK    6  A    between atoms: N_15  and  C_16
REMARK    7  A    between atoms: N_15  and  C_17
REMARK    8  A    between atoms: C_17  and  C_18
REMARK    9  A    between atoms: C_18  and  C_19
REMARK                            x       y       z     vdW  Elec       q    Type
REMARK                         _______ _______ _______ _____ _____    ______ ____
ROOT
ATOM      1  N   UNL     1       5.167   4.798  19.155  0.00  0.00    +0.000 N 
ATOM      2  H   UNL     1       5.933   5.072  19.773  0.00  0.00    +0.000 HD
ENDROOT
BRANCH   1   9
ATOM      3  C   UNL     1       6.792   5.404  17.367  0.00  0.00    +0.000 A 
ATOM      4  C   UNL     1       7.216   5.308  16.017  0.00  0.00    +0.000 A 
ATOM      5  C   UNL     1       6.461   4.625  15.095  0.00  0.00    +0.000 A 
ATOM      6 BR   UNL     1       6.986   4.429  13.296  0.00  0.00    +0.000 Br
ATOM      7  C   UNL     1       5.260   4.102  15.511  0.00  0.00    +0.000 A 
ATOM      8  C   UNL     1       4.915   4.077  16.868  0.00  0.00    +0.000 A 
ATOM      9  C   UNL     1       5.680   4.669  17.862  0.00  0.00    +0.000 A 
BRANCH   3  11
ATOM     10  C   UNL     1       7.708   7.787  17.613  0.00  0.00    +0.000 C 
ATOM     11  C   UNL     1       7.535   6.395  18.149  0.00  0.00    +0.000 C 
ATOM     12  O   UNL     1       8.003   6.078  19.248  0.00  0.00    +0.000 OA
ENDBRANCH   3  11
ENDBRANCH   1   9
BRANCH   1  13
ATOM     13  C   UNL     1       3.988   5.679  19.476  0.00  0.00    +0.000 C 
BRANCH  13  14
ATOM     14  C   UNL     1       2.584   5.094  19.194  0.00  0.00    +0.000 C 
ATOM     15  O   UNL     1       2.011   5.362  18.129  0.00  0.00    +0.000 OA
ATOM     16  N   UNL     1       1.987   4.219  20.108  0.00  0.00    +0.000 N 
ATOM     17  C   UNL     1       2.495   3.902  21.441  0.00  0.00    +0.000 C 
BRANCH  16  18
ATOM     18  C   UNL     1       0.721   3.546  19.755  0.00  0.00    +0.000 C 
BRANCH  18  19
ATOM     19  C   UNL     1       0.852   2.347  18.809  0.00  0.00    +0.000 C 
BRANCH  19  20
ATOM     20  C   UNL     1       2.283   1.848  18.701  0.00  0.00    +0.000 C 
ATOM     21  N   UNL     1       3.470   1.433  18.612  0.00  0.00    +0.000 NA
ENDBRANCH  19  20
ENDBRANCH  18  19
ENDBRANCH  16  18
ENDBRANCH  13  14
ENDBRANCH   1  13
TORSDOF 7
ENDMDL
MODEL 4
REMARK VINA RESULT:      -6.1      2.602      6.181
REMARK  Name = 
REMARK  9 active torsions:
REMARK  status: ('A' for Active; 'I' for Inactive)
REMARK    1  A    between atoms: C_1  and  C_2
REMARK    2  A    between atoms: C_2  and  C_4
REMARK    3  A    between atoms: C_10  and  N_11
REMARK    4  A    between atoms: N_11  and  C_12
REMARK    5  A    between atoms: C_12  and  C_13
REMARK    6  A    between atoms: N_15  and  C_16
REMARK    7  A    between atoms: N_15  and  C_17
REMARK    8  A    between atoms: C_17  and  C_18
REMARK    9  A    between atoms: C_18  and  C_19
REMARK                            x       y       z     vdW  Elec       q    Type
REMARK                         _______ _______ _______ _____ _____    ______ ____
ROOT
ATOM      1  N   UNL     1       6.574   4.015  18.317  0.00  0.00    +0.000 N 
ATOM      2  H   UNL     1       6.767   3.656  19.253  0.00  0.00    +0.000 HD
ENDROOT
BRANCH   1   9
ATOM      3  C   UNL     1       6.978   6.151  17.099  0.00  0.00    +0.000 A 
ATOM      4  C   UNL     1       7.480   7.477  17.091  0.00  0.00    +0.000 A 
ATOM      5  C   UNL     1       8.135   7.982  18.188  0.00  0.00    +0.000 A 
ATOM      6 BR   UNL     1       8.794   9.746  18.255  0.00  0.00    +0.000 Br
ATOM      7  C   UNL     1       8.341   7.140  19.255  0.00  0.00    +0.000 A 
ATOM      8  C   UNL     1       7.723   5.885  19.315  0.00  0.00    +0.000 A 
ATOM      9  C   UNL     1       6.971   5.354  18.277  0.00  0.00    +0.000 A 
BRANCH   3  11
ATOM     10  C   UNL     1       5.253   6.089  15.203  0.00  0.00    +0.000 C 
ATOM     11  C   UNL     1       6.574   5.665  15.777  0.00  0.00    +0.000 C 
ATOM     12  O   UNL     1       7.329   4.921  15.143  0.00  0.00    +0.000 OA
ENDBRANCH   3  11
ENDBRANCH   1   9
BRANCH   1  13
ATOM     13  C   UNL     1       5.185   3.570  17.939  0.00  0.00    +0.000 C 
BRANCH  13  14
ATOM     14  C   UNL     1       4.208   3.276  19.102  0.00  0.00    +0.000 C 
ATOM     15  O   UNL     1       4.166   2.140  19.595  0.00  0.00    +0.000 OA
ATOM     16  N   UNL     1       3.417   4.299  19.635  0.00  0.00    +0.000 N 
ATOM     17  C   UNL     1       3.284   5.647  19.089  0.00  0.00    +0.000 C 
BRANCH  16  18
ATOM     18  C   UNL     1       2.608   4.041  20.843  0.00  0.00    +0.000 C 
BRANCH  18  19
ATOM     19  C   UNL     1       1.094   3.954  20.619  0.00  0.00    +0.000 C 
BRANCH  19  20
ATOM     20  C   UNL     1       0.729   3.003  19.491  0.00  0.00    +0.000 C 
ATOM     21  N   UNL     1       0.427   2.213  18.557  0.00  0.00    +0.000 NA
ENDBRANCH  19  20
ENDBRANCH  18  19
ENDBRANCH  16  18
ENDBRANCH  13  14
ENDBRANCH   1  13
TORSDOF 7
ENDMDL
MODEL 5
REMARK VINA RESULT:      -6.1      2.023      2.933
REMARK  Name = 
REMARK  9 active torsions:
REMARK  status: ('A' for Active; 'I' for Inactive)
REMARK    1  A    between atoms: C_1  and  C_2
REMARK    2  A    between atoms: C_2  and  C_4
REMARK    3  A    between atoms: C_10  and  N_11
REMARK    4  A    between atoms: N_11  and  C_12
REMARK    5  A    between atoms: C_12  and  C_13
REMARK    6  A    between atoms: N_15  and  C_16
REMARK    7  A    between atoms: N_15  and  C_17
REMARK    8  A    between atoms: C_17  and  C_18
REMARK    9  A    between atoms: C_18  and  C_19
REMARK                            x       y       z     vdW  Elec       q    Type
REMARK                         _______ _______ _______ _____ _____    ______ ____
ROOT
ATOM      1  N   UNL     1       5.194   3.975  16.975  0.00  0.00    +0.000 N 
ATOM      2  H   UNL     1       4.790   4.145  16.051  0.00  0.00    +0.000 HD
ENDROOT
BRANCH   1   9
ATOM      3  C   UNL     1       3.850   4.067  19.071  0.00  0.00    +0.000 A 
ATOM      4  C   UNL     1       2.997   4.788  19.945  0.00  0.00    +0.000 A 
ATOM      5  C   UNL     1       2.559   6.047  19.613  0.00  0.00    +0.000 A 
ATOM      6 BR   UNL     1       1.456   7.071  20.746  0.00  0.00    +0.000 Br
ATOM      7  C   UNL     1       2.921   6.548  18.385  0.00  0.00    +0.000 A 
ATOM      8  C   UNL     1       3.873   5.896  17.591  0.00  0.00    +0.000 A 
ATOM      9  C   UNL     1       4.424   4.665  17.915  0.00  0.00    +0.000 A 
BRANCH   3  11
ATOM     10  C   UNL     1       3.063   1.642  18.802  0.00  0.00    +0.000 C 
ATOM     11  C   UNL     1       3.989   2.651  19.418  0.00  0.00    +0.000 C 
ATOM     12  O   UNL     1       4.874   2.299  20.204  0.00  0.00    +0.000 OA
ENDBRANCH   3  11
ENDBRANCH   1   9
BRANCH   1  13
ATOM     13  C   UNL     1       6.685   4.155  16.858  0.00  0.00    +0.000 C 
BRANCH  13  14
ATOM     14  C   UNL     1       7.196   5.598  16.627  0.00  0.00    +0.000 C 
ATOM     15  O   UNL     1       7.288   6.037  15.473  0.00  0.00    +0.000 OA
ATOM     16  N   UNL     1       7.496   6.423  17.716  0.00  0.00    +0.000 N 
ATOM     17  C   UNL     1       7.535   6.008  19.116  0.00  0.00    +0.000 C 
BRANCH  16  18
ATOM     18  C   UNL     1       7.829   7.843  17.485  0.00  0.00    +0.000 C 
BRANCH  18  19
ATOM     19  C   UNL     1       8.590   8.536  18.620  0.00  0.00    +0.000 C 
BRANCH  19  20
ATOM     20  C   UNL     1       8.832  10.010  18.341  0.00  0.00    +0.000 C 
ATOM     21  N   UNL     1       9.033  11.233  18.111  0.00  0.00    +0.000 NA
ENDBRANCH  19  20
ENDBRANCH  18  19
ENDBRANCH  16  18
ENDBRANCH  13  14
ENDBRANCH   1  13
TORSDOF 7
ENDMDL
MODEL 6
REMARK VINA RESULT:      -6.1      3.524      6.512
REMARK  Name = 
REMARK  9 active torsions:
REMARK  status: ('A' for Active; 'I' for Inactive)
REMARK    1  A    between atoms: C_1  and  C_2
REMARK    2  A    between atoms: C_2  and  C_4
REMARK    3  A    between atoms: C_10  and  N_11
REMARK    4  A    between atoms: N_11  and  C_12
REMARK    5  A    between atoms: C_12  and  C_13
REMARK    6  A    between atoms: N_15  and  C_16
REMARK    7  A    between atoms: N_15  and  C_17
REMARK    8  A    between atoms: C_17  and  C_18
REMARK    9  A    between atoms: C_18  and  C_19
REMARK                            x       y       z     vdW  Elec       q    Type
REMARK                         _______ _______ _______ _____ _____    ______ ____
ROOT
ATOM      1  N   UNL     1       5.056   3.929  18.271  0.00  0.00    +0.000 N 
ATOM      2  H   UNL     1       5.601   4.369  19.015  0.00  0.00    +0.000 HD
ENDROOT
BRANCH   1   9
ATOM      3  C   UNL     1       6.896   4.938  16.926  0.00  0.00    +0.000 A 
ATOM      4  C   UNL     1       7.491   5.188  15.664  0.00  0.00    +0.000 A 
ATOM      5  C   UNL     1       6.864   4.796  14.506  0.00  0.00    +0.000 A 
ATOM      6 BR   UNL     1       7.619   5.067  12.801  0.00  0.00    +0.000 Br
ATOM      7  C   UNL     1       5.622   4.219  14.614  0.00  0.00    +0.000 A 
ATOM      8  C   UNL     1       5.105   3.846  15.861  0.00  0.00    +0.000 A 
ATOM      9  C   UNL     1       5.733   4.131  17.064  0.00  0.00    +0.000 A 
BRANCH   3  11
ATOM     10  C   UNL     1       7.688   7.154  17.945  0.00  0.00    +0.000 C 
ATOM     11  C   UNL     1       7.528   5.663  18.031  0.00  0.00    +0.000 C 
ATOM     12  O   UNL     1       7.913   5.043  19.028  0.00  0.00    +0.000 OA
ENDBRANCH   3  11
ENDBRANCH   1   9
BRANCH   1  13
ATOM     13  C   UNL     1       3.616   4.324  18.468  0.00  0.00    +0.000 C 
BRANCH  13  14
ATOM     14  C   UNL     1       3.342   5.809  18.806  0.00  0.00    +0.000 C 
ATOM     15  O   UNL     1       3.933   6.699  18.178  0.00  0.00    +0.000 OA
ATOM     16  N   UNL     1       2.388   6.149  19.771  0.00  0.00    +0.000 N 
ATOM     17  C   UNL     1       1.700   5.213  20.656  0.00  0.00    +0.000 C 
BRANCH  16  18
ATOM     18  C   UNL     1       2.025   7.567  19.970  0.00  0.00    +0.000 C 
BRANCH  18  19
ATOM     19  C   UNL     1       1.123   7.855  21.175  0.00  0.00    +0.000 C 
BRANCH  19  20
ATOM     20  C   UNL     1       1.030   9.339  21.488  0.00  0.00    +0.000 C 
ATOM     21  N   UNL     1       0.952  10.570  21.748  0.00  0.00    +0.000 NA
ENDBRANCH  19  20
ENDBRANCH  18  19
ENDBRANCH  16  18
ENDBRANCH  13  14
ENDBRANCH   1  13
TORSDOF 7
ENDMDL
MODEL 7
REMARK VINA RESULT:      -6.0      1.734      2.262
REMARK  Name = 
REMARK  9 active torsions:
REMARK  status: ('A' for Active; 'I' for Inactive)
REMARK    1  A    between atoms: C_1  and  C_2
REMARK    2  A    between atoms: C_2  and  C_4
REMARK    3  A    between atoms: C_10  and  N_11
REMARK    4  A    between atoms: N_11  and  C_12
REMARK    5  A    between atoms: C_12  and  C_13
REMARK    6  A    between atoms: N_15  and  C_16
REMARK    7  A    between atoms: N_15  and  C_17
REMARK    8  A    between atoms: C_17  and  C_18
REMARK    9  A    between atoms: C_18  and  C_19
REMARK                            x       y       z     vdW  Elec       q    Type
REMARK                         _______ _______ _______ _____ _____    ______ ____
ROOT
ATOM      1  N   UNL     1       4.015   4.141  17.212  0.00  0.00    +0.000 N 
ATOM      2  H   UNL     1       3.422   4.158  16.380  0.00  0.00    +0.000 HD
ENDROOT
BRANCH   1   9
ATOM      3  C   UNL     1       2.902   4.648  19.382  0.00  0.00    +0.000 A 
ATOM      4  C   UNL     1       2.286   5.585  20.250  0.00  0.00    +0.000 A 
ATOM      5  C   UNL     1       2.075   6.880  19.843  0.00  0.00    +0.000 A 
ATOM      6 BR   UNL     1       1.295   8.182  20.960  0.00  0.00    +0.000 Br
ATOM      7  C   UNL     1       2.420   7.211  18.554  0.00  0.00    +0.000 A 
ATOM      8  C   UNL     1       3.154   6.327  17.754  0.00  0.00    +0.000 A 
ATOM      9  C   UNL     1       3.479   5.036  18.142  0.00  0.00    +0.000 A 
BRANCH   3  11
ATOM     10  C   UNL     1       1.434   2.659  20.062  0.00  0.00    +0.000 C 
ATOM     11  C   UNL     1       2.791   3.260  19.838  0.00  0.00    +0.000 C 
ATOM     12  O   UNL     1       3.816   2.595  20.024  0.00  0.00    +0.000 OA
ENDBRANCH   3  11
ENDBRANCH   1   9
BRANCH   1  13
ATOM     13  C   UNL     1       5.447   4.213  16.748  0.00  0.00    +0.000 C 
BRANCH  13  14
ATOM     14  C   UNL     1       6.042   5.627  16.544  0.00  0.00    +0.000 C 
ATOM     15  O   UNL     1       5.826   6.235  15.487  0.00  0.00    +0.000 OA
ATOM     16  N   UNL     1       6.769   6.242  17.569  0.00  0.00    +0.000 N 
ATOM     17  C   UNL     1       7.188   5.607  18.816  0.00  0.00    +0.000 C 
BRANCH  16  18
ATOM     18  C   UNL     1       7.194   7.648  17.419  0.00  0.00    +0.000 C 
BRANCH  18  19
ATOM     19  C   UNL     1       8.328   8.097  18.348  0.00  0.00    +0.000 C 
BRANCH  19  20
ATOM     20  C   UNL     1       8.605   9.588  18.245  0.00  0.00    +0.000 C 
ATOM     21  N   UNL     1       8.836  10.824  18.160  0.00  0.00    +0.000 NA
ENDBRANCH  19  20
ENDBRANCH  18  19
ENDBRANCH  16  18
ENDBRANCH  13  14
ENDBRANCH   1  13
TORSDOF 7
ENDMDL
MODEL 8
REMARK VINA RESULT:      -6.0      3.142      6.526
REMARK  Name = 
REMARK  9 active torsions:
REMARK  status: ('A' for Active; 'I' for Inactive)
REMARK    1  A    between atoms: C_1  and  C_2
REMARK    2  A    between atoms: C_2  and  C_4
REMARK    3  A    between atoms: C_10  and  N_11
REMARK    4  A    between atoms: N_11  and  C_12
REMARK    5  A    between atoms: C_12  and  C_13
REMARK    6  A    between atoms: N_15  and  C_16
REMARK    7  A    between atoms: N_15  and  C_17
REMARK    8  A    between atoms: C_17  and  C_18
REMARK    9  A    between atoms: C_18  and  C_19
REMARK                            x       y       z     vdW  Elec       q    Type
REMARK                         _______ _______ _______ _____ _____    ______ ____
ROOT
ATOM      1  N   UNL     1       4.489   3.707  17.349  0.00  0.00    +0.000 N 
ATOM      2  H   UNL     1       4.992   3.694  18.237  0.00  0.00    +0.000 HD
ENDROOT
BRANCH   1   9
ATOM      3  C   UNL     1       6.611   4.735  16.544  0.00  0.00    +0.000 A 
ATOM      4  C   UNL     1       7.461   5.101  15.470  0.00  0.00    +0.000 A 
ATOM      5  C   UNL     1       7.063   4.912  14.169  0.00  0.00    +0.000 A 
ATOM      6 BR   UNL     1       8.161   5.343  12.699  0.00  0.00    +0.000 Br
ATOM      7  C   UNL     1       5.798   4.423  13.951  0.00  0.00    +0.000 A 
ATOM      8  C   UNL     1       5.021   3.934  15.007  0.00  0.00    +0.000 A 
ATOM      9  C   UNL     1       5.405   4.011  16.338  0.00  0.00    +0.000 A 
BRANCH   3  11
ATOM     10  C   UNL     1       7.498   6.687  17.952  0.00  0.00    +0.000 C 
ATOM     11  C   UNL     1       7.041   5.260  17.843  0.00  0.00    +0.000 C 
ATOM     12  O   UNL     1       7.013   4.528  18.837  0.00  0.00    +0.000 OA
ENDBRANCH   3  11
ENDBRANCH   1   9
BRANCH   1  13
ATOM     13  C   UNL     1       3.221   4.494  17.557  0.00  0.00    +0.000 C 
BRANCH  13  14
ATOM     14  C   UNL     1       2.099   3.804  18.368  0.00  0.00    +0.000 C 
ATOM     15  O   UNL     1       1.584   2.763  17.937  0.00  0.00    +0.000 OA
ATOM     16  N   UNL     1       1.706   4.317  19.609  0.00  0.00    +0.000 N 
ATOM     17  C   UNL     1       2.146   5.585  20.185  0.00  0.00    +0.000 C 
BRANCH  16  18
ATOM     18  C   UNL     1       0.748   3.561  20.440  0.00  0.00    +0.000 C 
BRANCH  18  19
ATOM     19  C   UNL     1       1.357   2.797  21.620  0.00  0.00    +0.000 C 
BRANCH  19  20
ATOM     20  C   UNL     1       2.817   2.442  21.389  0.00  0.00    +0.000 C 
ATOM     21  N   UNL     1       4.027   2.147  21.196  0.00  0.00    +0.000 NA
ENDBRANCH  19  20
ENDBRANCH  18  19
ENDBRANCH  16  18
ENDBRANCH  13  14
ENDBRANCH   1  13
TORSDOF 7
ENDMDL
MODEL 9
REMARK VINA RESULT:      -5.9      4.091      6.496
REMARK  Name = 
REMARK  9 active torsions:
REMARK  status: ('A' for Active; 'I' for Inactive)
REMARK    1  A    between atoms: C_1  and  C_2
REMARK    2  A    between atoms: C_2  and  C_4
REMARK    3  A    between atoms: C_10  and  N_11
REMARK    4  A    between atoms: N_11  and  C_12
REMARK    5  A    between atoms: C_12  and  C_13
REMARK    6  A    between atoms: N_15  and  C_16
REMARK    7  A    between atoms: N_15  and  C_17
REMARK    8  A    between atoms: C_17  and  C_18
REMARK    9  A    between atoms: C_18  and  C_19
REMARK                            x       y       z     vdW  Elec       q    Type
REMARK                         _______ _______ _______ _____ _____    ______ ____
ROOT
ATOM      1  N   UNL     1       2.385   6.082  18.926  0.00  0.00    +0.000 N 
ATOM      2  H   UNL     1       2.430   5.384  19.670  0.00  0.00    +0.000 HD
ENDROOT
BRANCH   1   9
ATOM      3  C   UNL     1       3.390   4.448  17.335  0.00  0.00    +0.000 A 
ATOM      4  C   UNL     1       4.416   4.109  16.417  0.00  0.00    +0.000 A 
ATOM      5  C   UNL     1       5.479   4.955  16.215  0.00  0.00    +0.000 A 
ATOM      6 BR   UNL     1       6.855   4.579  14.983  0.00  0.00    +0.000 Br
ATOM      7  C   UNL     1       5.543   6.097  16.976  0.00  0.00    +0.000 A 
ATOM      8  C   UNL     1       4.463   6.495  17.773  0.00  0.00    +0.000 A 
ATOM      9  C   UNL     1       3.320   5.729  17.948  0.00  0.00    +0.000 A 
BRANCH   3  11
ATOM     10  C   UNL     1       3.072   1.986  17.978  0.00  0.00    +0.000 C 
ATOM     11  C   UNL     1       2.494   3.334  17.657  0.00  0.00    +0.000 C 
ATOM     12  O   UNL     1       1.272   3.518  17.672  0.00  0.00    +0.000 OA
ENDBRANCH   3  11
ENDBRANCH   1   9
BRANCH   1  13
ATOM     13  C   UNL     1       2.368   7.440  19.578  0.00  0.00    +0.000 C 
BRANCH  13  14
ATOM     14  C   UNL     1       1.680   8.581  18.791  0.00  0.00    +0.000 C 
ATOM     15  O   UNL     1       1.801   8.635  17.560  0.00  0.00    +0.000 OA
ATOM     16  N   UNL     1       0.879   9.515  19.457  0.00  0.00    +0.000 N 
ATOM     17  C   UNL     1       0.735   9.636  20.906  0.00  0.00    +0.000 C 
BRANCH  16  18
ATOM     18  C   UNL     1       0.105  10.500  18.676  0.00  0.00    +0.000 C 
BRANCH  18  19
ATOM     19  C   UNL     1      -1.413  10.288  18.664  0.00  0.00    +0.000 C 
BRANCH  19  20
ATOM     20  C   UNL     1      -1.958  10.073  17.262  0.00  0.00    +0.000 C 
ATOM     21  N   UNL     1      -2.410   9.895  16.099  0.00  0.00    +0.000 NA
ENDBRANCH  19  20
ENDBRANCH  18  19
ENDBRANCH  16  18
ENDBRANCH  13  14
ENDBRANCH   1  13
TORSDOF 7
ENDMDL
