MODEL 1
REMARK VINA RESULT:      -8.7      0.000      0.000
REMARK  Name = 
REMARK  13 active torsions:
REMARK  status: ('A' for Active; 'I' for Inactive)
REMARK    1  A    between atoms: C_2  and  O_3
REMARK    2  A    between atoms: C_2  and  C_4
REMARK    3  A    between atoms: C_4  and  C_5
REMARK    4  A    between atoms: C_5  and  N_6
REMARK    5  A    between atoms: C_5  and  C_24
REMARK    6  A    between atoms: N_9  and  N_10
REMARK    7  A    between atoms: C_11  and  C_13
REMARK    8  A    between atoms: C_13  and  C_14
REMARK    9  A    between atoms: C_14  and  C_15
REMARK   10  A    between atoms: C_15  and  C_16
REMARK   11  A    between atoms: C_16  and  N_17
REMARK   12  A    between atoms: C_27  and  O_28
REMARK   13  A    between atoms: O_28  and  C_29
REMARK                            x       y       z     vdW  Elec       q    Type
REMARK                         _______ _______ _______ _____ _____    ______ ____
ROOT
ATOM      1  N   UNL     1       6.450   6.989  16.648  0.00  0.00    +0.000 N 
ATOM      2  C   UNL     1       7.331   7.451  17.583  0.00  0.00    +0.000 C 
ATOM      3  O   UNL     1       7.892   6.749  18.417  0.00  0.00    +0.000 OA
ATOM      4  N   UNL     1       7.635   8.790  17.441  0.00  0.00    +0.000 N 
ATOM      5  H   UNL     1       5.815   7.665  16.245  0.00  0.00    +0.000 HD
ATOM      6  H   UNL     1       6.976   9.455  17.054  0.00  0.00    +0.000 HD
ENDROOT
BRANCH   4   7
ATOM      7  N   UNL     1       8.600   9.291  18.314  0.00  0.00    +0.000 N 
ATOM      8  C   UNL     1       8.852  10.643  18.334  0.00  0.00    +0.000 C 
ATOM      9  O   UNL     1       8.200  11.457  17.688  0.00  0.00    +0.000 OA
ATOM     10  H   UNL     1       9.232   8.599  18.718  0.00  0.00    +0.000 HD
BRANCH   8  11
ATOM     11  C   UNL     1      10.017  11.017  19.234  0.00  0.00    +0.000 C 
BRANCH  11  12
ATOM     12  C   UNL     1      11.244  11.449  18.432  0.00  0.00    +0.000 C 
BRANCH  12  13
ATOM     13  C   UNL     1      10.943  12.471  17.326  0.00  0.00    +0.000 C 
BRANCH  13  14
ATOM     14  C   UNL     1      11.157  13.913  17.787  0.00  0.00    +0.000 C 
BRANCH  14  15
ATOM     15  N   UNL     1      10.008  14.727  17.442  0.00  0.00    +0.000 N 
ATOM     16  C   UNL     1       8.916  14.734  18.298  0.00  0.00    +0.000 A 
ATOM     17  C   UNL     1       9.034  14.655  19.683  0.00  0.00    +0.000 A 
ATOM     18  C   UNL     1       7.895  14.733  20.479  0.00  0.00    +0.000 A 
ATOM     19  C   UNL     1       6.661  14.914  19.875  0.00  0.00    +0.000 A 
ATOM     20  C   UNL     1       6.625  14.989  18.495  0.00  0.00    +0.000 A 
ATOM     21  N   UNL     1       7.719  14.894  17.703  0.00  0.00    +0.000 NA
ATOM     22  H   UNL     1       9.641  14.613  16.499  0.00  0.00    +0.000 HD
ENDBRANCH  14  15
ENDBRANCH  13  14
ENDBRANCH  12  13
ENDBRANCH  11  12
ENDBRANCH   8  11
ENDBRANCH   4   7
BRANCH   1  23
ATOM     23  C   UNL     1       6.084   5.580  16.512  0.00  0.00    +0.000 C 
BRANCH  23  24
ATOM     24  C   UNL     1       5.079   5.191  17.600  0.00  0.00    +0.000 A 
ATOM     25  C   UNL     1       5.370   4.166  18.511  0.00  0.00    +0.000 A 
ATOM     26  C   UNL     1       4.492   3.887  19.568  0.00  0.00    +0.000 A 
ATOM     27  C   UNL     1       3.325   4.636  19.751  0.00  0.00    +0.000 A 
ATOM     28  C   UNL     1       3.001   5.612  18.820  0.00  0.00    +0.000 A 
ATOM     29  C   UNL     1       3.881   5.900  17.776  0.00  0.00    +0.000 A 
BRANCH  27  30
ATOM     30  O   UNL     1       2.578   4.302  20.838  0.00  0.00    +0.000 OA
BRANCH  30  31
ATOM     31  C   UNL     1       1.417   3.496  20.668  0.00  0.00    +0.000 C 
ATOM     32  F   UNL     1       1.072   2.763  21.747  0.00  0.00    +0.000 F 
ATOM     33  F   UNL     1       0.373   4.284  20.330  0.00  0.00    +0.000 F 
ATOM     34  F   UNL     1       1.639   2.636  19.647  0.00  0.00    +0.000 F 
ENDBRANCH  30  31
ENDBRANCH  27  30
ENDBRANCH  23  24
BRANCH  23  35
ATOM     35  C   UNL     1       5.605   5.174  15.104  0.00  0.00    +0.000 C 
BRANCH  35  37
ATOM     36  O   UNL     1       6.650   3.903  13.322  0.00  0.00    +0.000 OA
ATOM     37  C   UNL     1       6.726   4.752  14.198  0.00  0.00    +0.000 C 
BRANCH  37  38
ATOM     38  O   UNL     1       7.874   5.426  14.454  0.00  0.00    +0.000 OA
ATOM     39  H   UNL     1       7.806   6.076  15.181  0.00  0.00    +0.000 HD
ENDBRANCH  37  38
ENDBRANCH  35  37
ENDBRANCH  23  35
ENDBRANCH   1  23
TORSDOF 13
ENDMDL
MODEL 2
REMARK VINA RESULT:      -8.3      6.768      9.723
REMARK  Name = 
REMARK  13 active torsions:
REMARK  status: ('A' for Active; 'I' for Inactive)
REMARK    1  A    between atoms: C_2  and  O_3
REMARK    2  A    between atoms: C_2  and  C_4
REMARK    3  A    between atoms: C_4  and  C_5
REMARK    4  A    between atoms: C_5  and  N_6
REMARK    5  A    between atoms: C_5  and  C_24
REMARK    6  A    between atoms: N_9  and  N_10
REMARK    7  A    between atoms: C_11  and  C_13
REMARK    8  A    between atoms: C_13  and  C_14
REMARK    9  A    between atoms: C_14  and  C_15
REMARK   10  A    between atoms: C_15  and  C_16
REMARK   11  A    between atoms: C_16  and  N_17
REMARK   12  A    between atoms: C_27  and  O_28
REMARK   13  A    between atoms: O_28  and  C_29
REMARK                            x       y       z     vdW  Elec       q    Type
REMARK                         _______ _______ _______ _____ _____    ______ ____
ROOT
ATOM      1  N   UNL     1       2.766   5.563  20.088  0.00  0.00    +0.000 N 
ATOM      2  C   UNL     1       2.338   6.651  19.382  0.00  0.00    +0.000 C 
ATOM      3  O   UNL     1       2.075   6.644  18.185  0.00  0.00    +0.000 OA
ATOM      4  N   UNL     1       2.114   7.764  20.166  0.00  0.00    +0.000 N 
ATOM      5  H   UNL     1       3.257   5.743  20.953  0.00  0.00    +0.000 HD
ATOM      6  H   UNL     1       2.634   7.937  21.020  0.00  0.00    +0.000 HD
ENDROOT
BRANCH   4   7
ATOM      7  N   UNL     1       1.590   8.877  19.509  0.00  0.00    +0.000 N 
ATOM      8  C   UNL     1       0.429   9.449  19.976  0.00  0.00    +0.000 C 
ATOM      9  O   UNL     1      -0.127   9.091  21.010  0.00  0.00    +0.000 OA
ATOM     10  H   UNL     1       1.967   9.058  18.579  0.00  0.00    +0.000 HD
BRANCH   8  11
ATOM     11  C   UNL     1      -0.086  10.562  19.081  0.00  0.00    +0.000 C 
BRANCH  11  12
ATOM     12  C   UNL     1      -1.560  10.374  18.725  0.00  0.00    +0.000 C 
BRANCH  12  13
ATOM     13  C   UNL     1      -1.842  10.346  17.215  0.00  0.00    +0.000 C 
BRANCH  13  14
ATOM     14  C   UNL     1      -3.337  10.307  16.900  0.00  0.00    +0.000 C 
BRANCH  14  15
ATOM     15  N   UNL     1      -3.885  11.649  16.891  0.00  0.00    +0.000 N 
ATOM     16  C   UNL     1      -5.130  11.863  17.465  0.00  0.00    +0.000 A 
ATOM     17  C   UNL     1      -5.572  11.185  18.598  0.00  0.00    +0.000 A 
ATOM     18  C   UNL     1      -6.808  11.503  19.155  0.00  0.00    +0.000 A 
ATOM     19  C   UNL     1      -7.568  12.509  18.582  0.00  0.00    +0.000 A 
ATOM     20  C   UNL     1      -7.059  13.140  17.461  0.00  0.00    +0.000 A 
ATOM     21  N   UNL     1      -5.870  12.832  16.893  0.00  0.00    +0.000 NA
ATOM     22  H   UNL     1      -3.891  12.127  15.992  0.00  0.00    +0.000 HD
ENDBRANCH  14  15
ENDBRANCH  13  14
ENDBRANCH  12  13
ENDBRANCH  11  12
ENDBRANCH   8  11
ENDBRANCH   4   7
BRANCH   1  23
ATOM     23  C   UNL     1       2.937   4.237  19.497  0.00  0.00    +0.000 C 
BRANCH  23  24
ATOM     24  C   UNL     1       4.158   4.227  18.573  0.00  0.00    +0.000 A 
ATOM     25  C   UNL     1       4.067   3.718  17.270  0.00  0.00    +0.000 A 
ATOM     26  C   UNL     1       5.160   3.809  16.396  0.00  0.00    +0.000 A 
ATOM     27  C   UNL     1       6.350   4.427  16.793  0.00  0.00    +0.000 A 
ATOM     28  C   UNL     1       6.467   4.881  18.099  0.00  0.00    +0.000 A 
ATOM     29  C   UNL     1       5.376   4.804  18.965  0.00  0.00    +0.000 A 
BRANCH  27  30
ATOM     30  O   UNL     1       7.320   4.497  15.842  0.00  0.00    +0.000 OA
BRANCH  30  31
ATOM     31  C   UNL     1       6.963   4.807  14.499  0.00  0.00    +0.000 C 
ATOM     32  F   UNL     1       6.628   3.742  13.741  0.00  0.00    +0.000 F 
ATOM     33  F   UNL     1       5.928   5.676  14.503  0.00  0.00    +0.000 F 
ATOM     34  F   UNL     1       8.016   5.413  13.905  0.00  0.00    +0.000 F 
ENDBRANCH  30  31
ENDBRANCH  27  30
ENDBRANCH  23  24
BRANCH  23  35
ATOM     35  C   UNL     1       2.968   3.080  20.515  0.00  0.00    +0.000 C 
BRANCH  35  37
ATOM     36  O   UNL     1       1.542   2.419  22.363  0.00  0.00    +0.000 OA
ATOM     37  C   UNL     1       1.669   2.903  21.249  0.00  0.00    +0.000 C 
BRANCH  37  38
ATOM     38  O   UNL     1       0.610   3.347  20.528  0.00  0.00    +0.000 OA
ATOM     39  H   UNL     1       0.392   4.289  20.669  0.00  0.00    +0.000 HD
ENDBRANCH  37  38
ENDBRANCH  35  37
ENDBRANCH  23  35
ENDBRANCH   1  23
TORSDOF 13
ENDMDL
MODEL 3
REMARK VINA RESULT:      -8.2      1.303      1.807
REMARK  Name = 
REMARK  13 active torsions:
REMARK  status: ('A' for Active; 'I' for Inactive)
REMARK    1  A    between atoms: C_2  and  O_3
REMARK    2  A    between atoms: C_2  and  C_4
REMARK    3  A    between atoms: C_4  and  C_5
REMARK    4  A    between atoms: C_5  and  N_6
REMARK    5  A    between atoms: C_5  and  C_24
REMARK    6  A    between atoms: N_9  and  N_10
REMARK    7  A    between atoms: C_11  and  C_13
REMARK    8  A    between atoms: C_13  and  C_14
REMARK    9  A    between atoms: C_14  and  C_15
REMARK   10  A    between atoms: C_15  and  C_16
REMARK   11  A    between atoms: C_16  and  N_17
REMARK   12  A    between atoms: C_27  and  O_28
REMARK   13  A    between atoms: O_28  and  C_29
REMARK                            x       y       z     vdW  Elec       q    Type
REMARK                         _______ _______ _______ _____ _____    ______ ____
ROOT
ATOM      1  N   UNL     1       6.431   6.855  16.697  0.00  0.00    +0.000 N 
ATOM      2  C   UNL     1       7.335   7.315  17.610  0.00  0.00    +0.000 C 
ATOM      3  O   UNL     1       7.926   6.609  18.421  0.00  0.00    +0.000 OA
ATOM      4  N   UNL     1       7.624   8.658  17.474  0.00  0.00    +0.000 N 
ATOM      5  H   UNL     1       5.779   7.529  16.320  0.00  0.00    +0.000 HD
ATOM      6  H   UNL     1       6.948   9.321  17.113  0.00  0.00    +0.000 HD
ENDROOT
BRANCH   4   7
ATOM      7  N   UNL     1       8.610   9.158  18.323  0.00  0.00    +0.000 N 
ATOM      8  C   UNL     1       8.908  10.501  18.290  0.00  0.00    +0.000 C 
ATOM      9  O   UNL     1       8.280  11.312  17.616  0.00  0.00    +0.000 OA
ATOM     10  H   UNL     1       9.220   8.461  18.751  0.00  0.00    +0.000 HD
BRANCH   8  11
ATOM     11  C   UNL     1      10.089  10.869  19.171  0.00  0.00    +0.000 C 
BRANCH  11  12
ATOM     12  C   UNL     1      10.435  12.354  19.074  0.00  0.00    +0.000 C 
BRANCH  12  13
ATOM     13  C   UNL     1      11.034  12.944  20.359  0.00  0.00    +0.000 C 
BRANCH  13  14
ATOM     14  C   UNL     1       9.974  13.566  21.268  0.00  0.00    +0.000 C 
BRANCH  14  15
ATOM     15  N   UNL     1      10.064  15.012  21.231  0.00  0.00    +0.000 N 
ATOM     16  C   UNL     1       9.347  15.699  20.262  0.00  0.00    +0.000 A 
ATOM     17  C   UNL     1       8.090  15.298  19.818  0.00  0.00    +0.000 A 
ATOM     18  C   UNL     1       7.404  16.076  18.890  0.00  0.00    +0.000 A 
ATOM     19  C   UNL     1       7.979  17.254  18.441  0.00  0.00    +0.000 A 
ATOM     20  C   UNL     1       9.227  17.588  18.932  0.00  0.00    +0.000 A 
ATOM     21  N   UNL     1       9.919  16.835  19.819  0.00  0.00    +0.000 NA
ATOM     22  H   UNL     1      11.003  15.406  21.235  0.00  0.00    +0.000 HD
ENDBRANCH  14  15
ENDBRANCH  13  14
ENDBRANCH  12  13
ENDBRANCH  11  12
ENDBRANCH   8  11
ENDBRANCH   4   7
BRANCH   1  23
ATOM     23  C   UNL     1       6.073   5.444  16.557  0.00  0.00    +0.000 C 
BRANCH  23  24
ATOM     24  C   UNL     1       5.056   5.051  17.633  0.00  0.00    +0.000 A 
ATOM     25  C   UNL     1       5.343   4.032  18.552  0.00  0.00    +0.000 A 
ATOM     26  C   UNL     1       4.452   3.750  19.598  0.00  0.00    +0.000 A 
ATOM     27  C   UNL     1       3.277   4.490  19.762  0.00  0.00    +0.000 A 
ATOM     28  C   UNL     1       2.959   5.461  18.823  0.00  0.00    +0.000 A 
ATOM     29  C   UNL     1       3.851   5.752  17.790  0.00  0.00    +0.000 A 
BRANCH  27  30
ATOM     30  O   UNL     1       2.518   4.154  20.840  0.00  0.00    +0.000 OA
BRANCH  30  31
ATOM     31  C   UNL     1       1.366   3.338  20.657  0.00  0.00    +0.000 C 
ATOM     32  F   UNL     1       1.478   2.410  19.683  0.00  0.00    +0.000 F 
ATOM     33  F   UNL     1       1.075   2.711  21.818  0.00  0.00    +0.000 F 
ATOM     34  F   UNL     1       0.322   4.137  20.339  0.00  0.00    +0.000 F 
ENDBRANCH  30  31
ENDBRANCH  27  30
ENDBRANCH  23  24
BRANCH  23  35
ATOM     35  C   UNL     1       5.613   5.035  15.144  0.00  0.00    +0.000 C 
BRANCH  35  37
ATOM     36  O   UNL     1       7.768   5.385  14.088  0.00  0.00    +0.000 OA
ATOM     37  C   UNL     1       6.755   4.716  14.221  0.00  0.00    +0.000 C 
BRANCH  37  38
ATOM     38  O   UNL     1       6.545   3.573  13.523  0.00  0.00    +0.000 OA
ATOM     39  H   UNL     1       6.130   2.855  14.040  0.00  0.00    +0.000 HD
ENDBRANCH  37  38
ENDBRANCH  35  37
ENDBRANCH  23  35
ENDBRANCH   1  23
TORSDOF 13
ENDMDL
MODEL 4
REMARK VINA RESULT:      -8.1      1.390      2.377
REMARK  Name = 
REMARK  13 active torsions:
REMARK  status: ('A' for Active; 'I' for Inactive)
REMARK    1  A    between atoms: C_2  and  O_3
REMARK    2  A    between atoms: C_2  and  C_4
REMARK    3  A    between atoms: C_4  and  C_5
REMARK    4  A    between atoms: C_5  and  N_6
REMARK    5  A    between atoms: C_5  and  C_24
REMARK    6  A    between atoms: N_9  and  N_10
REMARK    7  A    between atoms: C_11  and  C_13
REMARK    8  A    between atoms: C_13  and  C_14
REMARK    9  A    between atoms: C_14  and  C_15
REMARK   10  A    between atoms: C_15  and  C_16
REMARK   11  A    between atoms: C_16  and  N_17
REMARK   12  A    between atoms: C_27  and  O_28
REMARK   13  A    between atoms: O_28  and  C_29
REMARK                            x       y       z     vdW  Elec       q    Type
REMARK                         _______ _______ _______ _____ _____    ______ ____
ROOT
ATOM      1  N   UNL     1       6.345   6.808  16.696  0.00  0.00    +0.000 N 
ATOM      2  C   UNL     1       7.306   7.236  17.566  0.00  0.00    +0.000 C 
ATOM      3  O   UNL     1       8.011   6.495  18.243  0.00  0.00    +0.000 OA
ATOM      4  N   UNL     1       7.503   8.602  17.543  0.00  0.00    +0.000 N 
ATOM      5  H   UNL     1       5.623   7.471  16.451  0.00  0.00    +0.000 HD
ATOM      6  H   UNL     1       6.759   9.251  17.316  0.00  0.00    +0.000 HD
ENDROOT
BRANCH   4   7
ATOM      7  N   UNL     1       8.537   9.081  18.347  0.00  0.00    +0.000 N 
ATOM      8  C   UNL     1       8.860  10.418  18.301  0.00  0.00    +0.000 C 
ATOM      9  O   UNL     1       8.219  11.242  17.655  0.00  0.00    +0.000 OA
ATOM     10  H   UNL     1       9.151   8.372  18.747  0.00  0.00    +0.000 HD
BRANCH   8  11
ATOM     11  C   UNL     1      10.087  10.761  19.127  0.00  0.00    +0.000 C 
BRANCH  11  12
ATOM     12  C   UNL     1       9.715  11.342  20.491  0.00  0.00    +0.000 C 
BRANCH  12  13
ATOM     13  C   UNL     1      10.101  12.817  20.671  0.00  0.00    +0.000 C 
BRANCH  13  14
ATOM     14  C   UNL     1       9.009  13.772  20.188  0.00  0.00    +0.000 C 
BRANCH  14  15
ATOM     15  N   UNL     1       9.485  15.140  20.222  0.00  0.00    +0.000 N 
ATOM     16  C   UNL     1      10.303  15.586  19.193  0.00  0.00    +0.000 A 
ATOM     17  C   UNL     1      10.156  15.176  17.871  0.00  0.00    +0.000 A 
ATOM     18  C   UNL     1      10.974  15.718  16.884  0.00  0.00    +0.000 A 
ATOM     19  C   UNL     1      11.908  16.679  17.234  0.00  0.00    +0.000 A 
ATOM     20  C   UNL     1      11.991  17.039  18.567  0.00  0.00    +0.000 A 
ATOM     21  N   UNL     1      11.220  16.509  19.544  0.00  0.00    +0.000 NA
ATOM     22  H   UNL     1       9.916  15.446  21.093  0.00  0.00    +0.000 HD
ENDBRANCH  14  15
ENDBRANCH  13  14
ENDBRANCH  12  13
ENDBRANCH  11  12
ENDBRANCH   8  11
ENDBRANCH   4   7
BRANCH   1  23
ATOM     23  C   UNL     1       6.056   5.397  16.444  0.00  0.00    +0.000 C 
BRANCH  23  24
ATOM     24  C   UNL     1       5.054   4.874  17.478  0.00  0.00    +0.000 A 
ATOM     25  C   UNL     1       4.513   3.586  17.363  0.00  0.00    +0.000 A 
ATOM     26  C   UNL     1       3.679   3.076  18.368  0.00  0.00    +0.000 A 
ATOM     27  C   UNL     1       3.389   3.825  19.512  0.00  0.00    +0.000 A 
ATOM     28  C   UNL     1       3.873   5.122  19.606  0.00  0.00    +0.000 A 
ATOM     29  C   UNL     1       4.715   5.626  18.613  0.00  0.00    +0.000 A 
BRANCH  27  30
ATOM     30  O   UNL     1       2.608   3.205  20.438  0.00  0.00    +0.000 OA
BRANCH  30  31
ATOM     31  C   UNL     1       1.207   3.457  20.451  0.00  0.00    +0.000 C 
ATOM     32  F   UNL     1       0.866   4.760  20.520  0.00  0.00    +0.000 F 
ATOM     33  F   UNL     1       0.647   2.922  19.344  0.00  0.00    +0.000 F 
ATOM     34  F   UNL     1       0.672   2.840  21.531  0.00  0.00    +0.000 F 
ENDBRANCH  30  31
ENDBRANCH  27  30
ENDBRANCH  23  24
BRANCH  23  35
ATOM     35  C   UNL     1       5.623   5.078  15.000  0.00  0.00    +0.000 C 
BRANCH  35  37
ATOM     36  O   UNL     1       7.869   5.388  14.138  0.00  0.00    +0.000 OA
ATOM     37  C   UNL     1       6.783   4.833  14.077  0.00  0.00    +0.000 C 
BRANCH  37  38
ATOM     38  O   UNL     1       6.498   3.903  13.132  0.00  0.00    +0.000 OA
ATOM     39  H   UNL     1       7.185   3.803  12.444  0.00  0.00    +0.000 HD
ENDBRANCH  37  38
ENDBRANCH  35  37
ENDBRANCH  23  35
ENDBRANCH   1  23
TORSDOF 13
ENDMDL
MODEL 5
REMARK VINA RESULT:      -8.1      5.303      8.376
REMARK  Name = 
REMARK  13 active torsions:
REMARK  status: ('A' for Active; 'I' for Inactive)
REMARK    1  A    between atoms: C_2  and  O_3
REMARK    2  A    between atoms: C_2  and  C_4
REMARK    3  A    between atoms: C_4  and  C_5
REMARK    4  A    between atoms: C_5  and  N_6
REMARK    5  A    between atoms: C_5  and  C_24
REMARK    6  A    between atoms: N_9  and  N_10
REMARK    7  A    between atoms: C_11  and  C_13
REMARK    8  A    between atoms: C_13  and  C_14
REMARK    9  A    between atoms: C_14  and  C_15
REMARK   10  A    between atoms: C_15  and  C_16
REMARK   11  A    between atoms: C_16  and  N_17
REMARK   12  A    between atoms: C_27  and  O_28
REMARK   13  A    between atoms: O_28  and  C_29
REMARK                            x       y       z     vdW  Elec       q    Type
REMARK                         _______ _______ _______ _____ _____    ______ ____
ROOT
ATOM      1  N   UNL     1       6.833   4.348  18.116  0.00  0.00    +0.000 N 
ATOM      2  C   UNL     1       5.544   4.246  18.554  0.00  0.00    +0.000 C 
ATOM      3  O   UNL     1       4.613   4.931  18.143  0.00  0.00    +0.000 OA
ATOM      4  N   UNL     1       5.342   3.208  19.440  0.00  0.00    +0.000 N 
ATOM      5  H   UNL     1       7.553   3.992  18.729  0.00  0.00    +0.000 HD
ATOM      6  H   UNL     1       6.073   2.880  20.062  0.00  0.00    +0.000 HD
ENDROOT
BRANCH   4   7
ATOM      7  N   UNL     1       4.025   3.002  19.848  0.00  0.00    +0.000 N 
ATOM      8  C   UNL     1       3.242   2.102  19.164  0.00  0.00    +0.000 C 
ATOM      9  O   UNL     1       3.670   1.389  18.262  0.00  0.00    +0.000 OA
ATOM     10  H   UNL     1       3.644   3.705  20.482  0.00  0.00    +0.000 HD
BRANCH   8  11
ATOM     11  C   UNL     1       1.800   2.087  19.640  0.00  0.00    +0.000 C 
BRANCH  11  12
ATOM     12  C   UNL     1       1.575   3.037  20.815  0.00  0.00    +0.000 C 
BRANCH  12  13
ATOM     13  C   UNL     1       1.106   4.442  20.407  0.00  0.00    +0.000 C 
BRANCH  13  14
ATOM     14  C   UNL     1       1.943   5.548  21.050  0.00  0.00    +0.000 C 
BRANCH  14  15
ATOM     15  N   UNL     1       2.693   6.265  20.037  0.00  0.00    +0.000 N 
ATOM     16  C   UNL     1       2.171   7.448  19.535  0.00  0.00    +0.000 A 
ATOM     17  C   UNL     1       1.452   8.353  20.312  0.00  0.00    +0.000 A 
ATOM     18  C   UNL     1       1.016   9.551  19.753  0.00  0.00    +0.000 A 
ATOM     19  C   UNL     1       1.328   9.832  18.433  0.00  0.00    +0.000 A 
ATOM     20  C   UNL     1       2.050   8.886  17.727  0.00  0.00    +0.000 A 
ATOM     21  N   UNL     1       2.464   7.708  18.247  0.00  0.00    +0.000 NA
ATOM     22  H   UNL     1       3.004   5.719  19.236  0.00  0.00    +0.000 HD
ENDBRANCH  14  15
ENDBRANCH  13  14
ENDBRANCH  12  13
ENDBRANCH  11  12
ENDBRANCH   8  11
ENDBRANCH   4   7
BRANCH   1  23
ATOM     23  C   UNL     1       7.258   5.281  17.073  0.00  0.00    +0.000 C 
BRANCH  23  24
ATOM     24  C   UNL     1       6.812   4.771  15.700  0.00  0.00    +0.000 A 
ATOM     25  C   UNL     1       7.278   5.377  14.524  0.00  0.00    +0.000 A 
ATOM     26  C   UNL     1       6.948   4.839  13.272  0.00  0.00    +0.000 A 
ATOM     27  C   UNL     1       6.174   3.680  13.167  0.00  0.00    +0.000 A 
ATOM     28  C   UNL     1       5.662   3.109  14.323  0.00  0.00    +0.000 A 
ATOM     29  C   UNL     1       6.000   3.634  15.570  0.00  0.00    +0.000 A 
BRANCH  27  30
ATOM     30  O   UNL     1       5.962   3.228  11.901  0.00  0.00    +0.000 OA
BRANCH  30  31
ATOM     31  C   UNL     1       4.634   3.182  11.389  0.00  0.00    +0.000 C 
ATOM     32  F   UNL     1       3.663   3.253  12.323  0.00  0.00    +0.000 F 
ATOM     33  F   UNL     1       4.460   4.191  10.508  0.00  0.00    +0.000 F 
ATOM     34  F   UNL     1       4.474   2.014  10.725  0.00  0.00    +0.000 F 
ENDBRANCH  30  31
ENDBRANCH  27  30
ENDBRANCH  23  24
BRANCH  23  35
ATOM     35  C   UNL     1       6.843   6.746  17.313  0.00  0.00    +0.000 C 
BRANCH  35  37
ATOM     36  O   UNL     1       8.517   7.061  19.041  0.00  0.00    +0.000 OA
ATOM     37  C   UNL     1       7.843   7.516  18.129  0.00  0.00    +0.000 C 
BRANCH  37  38
ATOM     38  O   UNL     1       7.927   8.813  17.745  0.00  0.00    +0.000 OA
ATOM     39  H   UNL     1       8.182   8.941  16.810  0.00  0.00    +0.000 HD
ENDBRANCH  37  38
ENDBRANCH  35  37
ENDBRANCH  23  35
ENDBRANCH   1  23
TORSDOF 13
ENDMDL
MODEL 6
REMARK VINA RESULT:      -8.0      2.916      3.573
REMARK  Name = 
REMARK  13 active torsions:
REMARK  status: ('A' for Active; 'I' for Inactive)
REMARK    1  A    between atoms: C_2  and  O_3
REMARK    2  A    between atoms: C_2  and  C_4
REMARK    3  A    between atoms: C_4  and  C_5
REMARK    4  A    between atoms: C_5  and  N_6
REMARK    5  A    between atoms: C_5  and  C_24
REMARK    6  A    between atoms: N_9  and  N_10
REMARK    7  A    between atoms: C_11  and  C_13
REMARK    8  A    between atoms: C_13  and  C_14
REMARK    9  A    between atoms: C_14  and  C_15
REMARK   10  A    between atoms: C_15  and  C_16
REMARK   11  A    between atoms: C_16  and  N_17
REMARK   12  A    between atoms: C_27  and  O_28
REMARK   13  A    between atoms: O_28  and  C_29
REMARK                            x       y       z     vdW  Elec       q    Type
REMARK                         _______ _______ _______ _____ _____    ______ ____
ROOT
ATOM      1  N   UNL     1       6.322   6.699  16.606  0.00  0.00    +0.000 N 
ATOM      2  C   UNL     1       7.236   7.145  17.517  0.00  0.00    +0.000 C 
ATOM      3  O   UNL     1       7.879   6.421  18.269  0.00  0.00    +0.000 OA
ATOM      4  N   UNL     1       7.467   8.504  17.446  0.00  0.00    +0.000 N 
ATOM      5  H   UNL     1       5.633   7.365  16.286  0.00  0.00    +0.000 HD
ATOM      6  H   UNL     1       6.754   9.158  17.143  0.00  0.00    +0.000 HD
ENDROOT
BRANCH   4   7
ATOM      7  N   UNL     1       8.459   8.998  18.293  0.00  0.00    +0.000 N 
ATOM      8  C   UNL     1       8.761  10.339  18.264  0.00  0.00    +0.000 C 
ATOM      9  O   UNL     1       8.133  11.155  17.596  0.00  0.00    +0.000 OA
ATOM     10  H   UNL     1       9.068   8.297  18.715  0.00  0.00    +0.000 HD
BRANCH   8  11
ATOM     11  C   UNL     1       9.948  10.700  19.140  0.00  0.00    +0.000 C 
BRANCH  11  12
ATOM     12  C   UNL     1       9.716  11.998  19.912  0.00  0.00    +0.000 C 
BRANCH  12  13
ATOM     13  C   UNL     1       9.373  11.795  21.395  0.00  0.00    +0.000 C 
BRANCH  13  14
ATOM     14  C   UNL     1       8.418  12.863  21.927  0.00  0.00    +0.000 C 
BRANCH  14  15
ATOM     15  N   UNL     1       8.721  13.165  23.312  0.00  0.00    +0.000 N 
ATOM     16  C   UNL     1       7.812  12.787  24.290  0.00  0.00    +0.000 A 
ATOM     17  C   UNL     1       7.062  11.616  24.219  0.00  0.00    +0.000 A 
ATOM     18  C   UNL     1       6.218  11.272  25.272  0.00  0.00    +0.000 A 
ATOM     19  C   UNL     1       6.158  12.093  26.385  0.00  0.00    +0.000 A 
ATOM     20  C   UNL     1       6.936  13.236  26.383  0.00  0.00    +0.000 A 
ATOM     21  N   UNL     1       7.747  13.599  25.362  0.00  0.00    +0.000 NA
ATOM     22  H   UNL     1       8.989  14.126  23.516  0.00  0.00    +0.000 HD
ENDBRANCH  14  15
ENDBRANCH  13  14
ENDBRANCH  12  13
ENDBRANCH  11  12
ENDBRANCH   8  11
ENDBRANCH   4   7
BRANCH   1  23
ATOM     23  C   UNL     1       6.016   5.284  16.399  0.00  0.00    +0.000 C 
BRANCH  23  24
ATOM     24  C   UNL     1       4.979   4.815  17.424  0.00  0.00    +0.000 A 
ATOM     25  C   UNL     1       3.710   5.409  17.483  0.00  0.00    +0.000 A 
ATOM     26  C   UNL     1       2.732   4.905  18.352  0.00  0.00    +0.000 A 
ATOM     27  C   UNL     1       2.988   3.791  19.156  0.00  0.00    +0.000 A 
ATOM     28  C   UNL     1       4.259   3.234  19.147  0.00  0.00    +0.000 A 
ATOM     29  C   UNL     1       5.230   3.726  18.272  0.00  0.00    +0.000 A 
BRANCH  27  30
ATOM     30  O   UNL     1       1.946   3.367  19.921  0.00  0.00    +0.000 OA
BRANCH  30  31
ATOM     31  C   UNL     1       2.105   3.277  21.333  0.00  0.00    +0.000 C 
ATOM     32  F   UNL     1       3.047   2.402  21.743  0.00  0.00    +0.000 F 
ATOM     33  F   UNL     1       2.408   4.499  21.825  0.00  0.00    +0.000 F 
ATOM     34  F   UNL     1       0.927   2.889  21.872  0.00  0.00    +0.000 F 
ENDBRANCH  30  31
ENDBRANCH  27  30
ENDBRANCH  23  24
BRANCH  23  35
ATOM     35  C   UNL     1       5.615   4.918  14.956  0.00  0.00    +0.000 C 
BRANCH  35  37
ATOM     36  O   UNL     1       7.770   5.431  13.968  0.00  0.00    +0.000 OA
ATOM     37  C   UNL     1       6.795   4.699  14.053  0.00  0.00    +0.000 C 
BRANCH  37  38
ATOM     38  O   UNL     1       6.671   3.570  13.312  0.00  0.00    +0.000 OA
ATOM     39  H   UNL     1       5.806   3.123  13.401  0.00  0.00    +0.000 HD
ENDBRANCH  37  38
ENDBRANCH  35  37
ENDBRANCH  23  35
ENDBRANCH   1  23
TORSDOF 13
ENDMDL
MODEL 7
REMARK VINA RESULT:      -8.0      3.035      3.701
REMARK  Name = 
REMARK  13 active torsions:
REMARK  status: ('A' for Active; 'I' for Inactive)
REMARK    1  A    between atoms: C_2  and  O_3
REMARK    2  A    between atoms: C_2  and  C_4
REMARK    3  A    between atoms: C_4  and  C_5
REMARK    4  A    between atoms: C_5  and  N_6
REMARK    5  A    between atoms: C_5  and  C_24
REMARK    6  A    between atoms: N_9  and  N_10
REMARK    7  A    between atoms: C_11  and  C_13
REMARK    8  A    between atoms: C_13  and  C_14
REMARK    9  A    between atoms: C_14  and  C_15
REMARK   10  A    between atoms: C_15  and  C_16
REMARK   11  A    between atoms: C_16  and  N_17
REMARK   12  A    between atoms: C_27  and  O_28
REMARK   13  A    between atoms: O_28  and  C_29
REMARK                            x       y       z     vdW  Elec       q    Type
REMARK                         _______ _______ _______ _____ _____    ______ ____
ROOT
ATOM      1  N   UNL     1       6.490   7.068  16.643  0.00  0.00    +0.000 N 
ATOM      2  C   UNL     1       7.380   7.478  17.593  0.00  0.00    +0.000 C 
ATOM      3  O   UNL     1       7.918   6.736  18.408  0.00  0.00    +0.000 OA
ATOM      4  N   UNL     1       7.720   8.811  17.492  0.00  0.00    +0.000 N 
ATOM      5  H   UNL     1       5.875   7.771  16.258  0.00  0.00    +0.000 HD
ATOM      6  H   UNL     1       7.079   9.505  17.124  0.00  0.00    +0.000 HD
ENDROOT
BRANCH   4   7
ATOM      7  N   UNL     1       8.695   9.260  18.382  0.00  0.00    +0.000 N 
ATOM      8  C   UNL     1       9.015  10.598  18.410  0.00  0.00    +0.000 C 
ATOM      9  O   UNL     1       8.416  11.446  17.756  0.00  0.00    +0.000 OA
ATOM     10  H   UNL     1       9.283   8.536  18.795  0.00  0.00    +0.000 HD
BRANCH   8  11
ATOM     11  C   UNL     1      10.182  10.910  19.330  0.00  0.00    +0.000 C 
BRANCH  11  12
ATOM     12  C   UNL     1       9.810  11.934  20.401  0.00  0.00    +0.000 C 
BRANCH  12  13
ATOM     13  C   UNL     1       9.007  11.354  21.574  0.00  0.00    +0.000 C 
BRANCH  13  14
ATOM     14  C   UNL     1       8.679  12.403  22.636  0.00  0.00    +0.000 C 
BRANCH  14  15
ATOM     15  N   UNL     1       7.275  12.338  22.992  0.00  0.00    +0.000 N 
ATOM     16  C   UNL     1       6.933  11.976  24.287  0.00  0.00    +0.000 A 
ATOM     17  C   UNL     1       7.682  12.341  25.402  0.00  0.00    +0.000 A 
ATOM     18  C   UNL     1       7.238  11.995  26.675  0.00  0.00    +0.000 A 
ATOM     19  C   UNL     1       6.042  11.310  26.810  0.00  0.00    +0.000 A 
ATOM     20  C   UNL     1       5.352  10.986  25.656  0.00  0.00    +0.000 A 
ATOM     21  N   UNL     1       5.777  11.296  24.408  0.00  0.00    +0.000 NA
ATOM     22  H   UNL     1       6.677  11.799  22.368  0.00  0.00    +0.000 HD
ENDBRANCH  14  15
ENDBRANCH  13  14
ENDBRANCH  12  13
ENDBRANCH  11  12
ENDBRANCH   8  11
ENDBRANCH   4   7
BRANCH   1  23
ATOM     23  C   UNL     1       6.087   5.673  16.464  0.00  0.00    +0.000 C 
BRANCH  23  24
ATOM     24  C   UNL     1       4.999   5.306  17.477  0.00  0.00    +0.000 A 
ATOM     25  C   UNL     1       3.899   6.150  17.684  0.00  0.00    +0.000 A 
ATOM     26  C   UNL     1       2.855   5.757  18.535  0.00  0.00    +0.000 A 
ATOM     27  C   UNL     1       2.876   4.514  19.173  0.00  0.00    +0.000 A 
ATOM     28  C   UNL     1       3.989   3.699  19.020  0.00  0.00    +0.000 A 
ATOM     29  C   UNL     1       5.021   4.082  18.163  0.00  0.00    +0.000 A 
BRANCH  27  30
ATOM     30  O   UNL     1       1.785   4.227  19.935  0.00  0.00    +0.000 OA
BRANCH  30  31
ATOM     31  C   UNL     1       1.915   3.328  21.031  0.00  0.00    +0.000 C 
ATOM     32  F   UNL     1       2.545   3.837  22.110  0.00  0.00    +0.000 F 
ATOM     33  F   UNL     1       0.689   2.904  21.407  0.00  0.00    +0.000 F 
ATOM     34  F   UNL     1       2.623   2.251  20.618  0.00  0.00    +0.000 F 
ENDBRANCH  30  31
ENDBRANCH  27  30
ENDBRANCH  23  24
BRANCH  23  35
ATOM     35  C   UNL     1       5.690   5.299  15.022  0.00  0.00    +0.000 C 
BRANCH  35  37
ATOM     36  O   UNL     1       6.793   3.835  13.434  0.00  0.00    +0.000 OA
ATOM     37  C   UNL     1       6.841   4.777  14.209  0.00  0.00    +0.000 C 
BRANCH  37  38
ATOM     38  O   UNL     1       7.982   5.477  14.428  0.00  0.00    +0.000 OA
ATOM     39  H   UNL     1       8.787   4.926  14.490  0.00  0.00    +0.000 HD
ENDBRANCH  37  38
ENDBRANCH  35  37
ENDBRANCH  23  35
ENDBRANCH   1  23
TORSDOF 13
ENDMDL
MODEL 8
REMARK VINA RESULT:      -8.0      1.482      1.867
REMARK  Name = 
REMARK  13 active torsions:
REMARK  status: ('A' for Active; 'I' for Inactive)
REMARK    1  A    between atoms: C_2  and  O_3
REMARK    2  A    between atoms: C_2  and  C_4
REMARK    3  A    between atoms: C_4  and  C_5
REMARK    4  A    between atoms: C_5  and  N_6
REMARK    5  A    between atoms: C_5  and  C_24
REMARK    6  A    between atoms: N_9  and  N_10
REMARK    7  A    between atoms: C_11  and  C_13
REMARK    8  A    between atoms: C_13  and  C_14
REMARK    9  A    between atoms: C_14  and  C_15
REMARK   10  A    between atoms: C_15  and  C_16
REMARK   11  A    between atoms: C_16  and  N_17
REMARK   12  A    between atoms: C_27  and  O_28
REMARK   13  A    between atoms: O_28  and  C_29
REMARK                            x       y       z     vdW  Elec       q    Type
REMARK                         _______ _______ _______ _____ _____    ______ ____
ROOT
ATOM      1  N   UNL     1       7.034   6.344  17.212  0.00  0.00    +0.000 N 
ATOM      2  C   UNL     1       7.774   6.975  18.170  0.00  0.00    +0.000 C 
ATOM      3  O   UNL     1       8.291   6.416  19.131  0.00  0.00    +0.000 OA
ATOM      4  N   UNL     1       7.995   8.311  17.905  0.00  0.00    +0.000 N 
ATOM      5  H   UNL     1       6.399   6.916  16.673  0.00  0.00    +0.000 HD
ATOM      6  H   UNL     1       7.334   8.874  17.380  0.00  0.00    +0.000 HD
ENDROOT
BRANCH   4   7
ATOM      7  N   UNL     1       8.822   8.982  18.805  0.00  0.00    +0.000 N 
ATOM      8  C   UNL     1       9.041  10.330  18.641  0.00  0.00    +0.000 C 
ATOM      9  O   UNL     1       8.465  11.006  17.793  0.00  0.00    +0.000 OA
ATOM     10  H   UNL     1       9.407   8.389  19.394  0.00  0.00    +0.000 HD
BRANCH   8  11
ATOM     11  C   UNL     1      10.065  10.888  19.614  0.00  0.00    +0.000 C 
BRANCH  11  12
ATOM     12  C   UNL     1       9.424  11.326  20.930  0.00  0.00    +0.000 C 
BRANCH  12  13
ATOM     13  C   UNL     1       9.868  12.715  21.414  0.00  0.00    +0.000 C 
BRANCH  13  14
ATOM     14  C   UNL     1       9.663  13.797  20.354  0.00  0.00    +0.000 C 
BRANCH  14  15
ATOM     15  N   UNL     1       8.309  13.747  19.839  0.00  0.00    +0.000 N 
ATOM     16  C   UNL     1       7.656  14.941  19.567  0.00  0.00    +0.000 A 
ATOM     17  C   UNL     1       8.306  16.067  19.067  0.00  0.00    +0.000 A 
ATOM     18  C   UNL     1       7.571  17.208  18.757  0.00  0.00    +0.000 A 
ATOM     19  C   UNL     1       6.197  17.193  18.931  0.00  0.00    +0.000 A 
ATOM     20  C   UNL     1       5.623  16.037  19.427  0.00  0.00    +0.000 A 
ATOM     21  N   UNL     1       6.323  14.925  19.754  0.00  0.00    +0.000 NA
ATOM     22  H   UNL     1       7.651  13.165  20.355  0.00  0.00    +0.000 HD
ENDBRANCH  14  15
ENDBRANCH  13  14
ENDBRANCH  12  13
ENDBRANCH  11  12
ENDBRANCH   8  11
ENDBRANCH   4   7
BRANCH   1  23
ATOM     23  C   UNL     1       6.788   4.902  17.205  0.00  0.00    +0.000 C 
BRANCH  23  24
ATOM     24  C   UNL     1       5.403   4.603  17.787  0.00  0.00    +0.000 A 
ATOM     25  C   UNL     1       5.087   4.960  19.105  0.00  0.00    +0.000 A 
ATOM     26  C   UNL     1       3.786   4.779  19.596  0.00  0.00    +0.000 A 
ATOM     27  C   UNL     1       2.774   4.264  18.779  0.00  0.00    +0.000 A 
ATOM     28  C   UNL     1       3.093   3.854  17.493  0.00  0.00    +0.000 A 
ATOM     29  C   UNL     1       4.383   4.047  16.998  0.00  0.00    +0.000 A 
BRANCH  27  30
ATOM     30  O   UNL     1       1.543   4.179  19.354  0.00  0.00    +0.000 OA
BRANCH  30  31
ATOM     31  C   UNL     1       1.149   2.967  19.986  0.00  0.00    +0.000 C 
ATOM     32  F   UNL     1       0.852   3.081  21.298  0.00  0.00    +0.000 F 
ATOM     33  F   UNL     1       0.074   2.457  19.344  0.00  0.00    +0.000 F 
ATOM     34  F   UNL     1       2.163   2.078  19.875  0.00  0.00    +0.000 F 
ENDBRANCH  30  31
ENDBRANCH  27  30
ENDBRANCH  23  24
BRANCH  23  35
ATOM     35  C   UNL     1       7.005   4.221  15.840  0.00  0.00    +0.000 C 
BRANCH  35  37
ATOM     36  O   UNL     1       8.035   5.493  14.050  0.00  0.00    +0.000 OA
ATOM     37  C   UNL     1       7.042   5.193  14.694  0.00  0.00    +0.000 C 
BRANCH  37  38
ATOM     38  O   UNL     1       5.823   5.727  14.436  0.00  0.00    +0.000 OA
ATOM     39  H   UNL     1       5.824   6.697  14.321  0.00  0.00    +0.000 HD
ENDBRANCH  37  38
ENDBRANCH  35  37
ENDBRANCH  23  35
ENDBRANCH   1  23
TORSDOF 13
ENDMDL
MODEL 9
REMARK VINA RESULT:      -7.9      1.146      1.431
REMARK  Name = 
REMARK  13 active torsions:
REMARK  status: ('A' for Active; 'I' for Inactive)
REMARK    1  A    between atoms: C_2  and  O_3
REMARK    2  A    between atoms: C_2  and  C_4
REMARK    3  A    between atoms: C_4  and  C_5
REMARK    4  A    between atoms: C_5  and  N_6
REMARK    5  A    between atoms: C_5  and  C_24
REMARK    6  A    between atoms: N_9  and  N_10
REMARK    7  A    between atoms: C_11  and  C_13
REMARK    8  A    between atoms: C_13  and  C_14
REMARK    9  A    between atoms: C_14  and  C_15
REMARK   10  A    between atoms: C_15  and  C_16
REMARK   11  A    between atoms: C_16  and  N_17
REMARK   12  A    between atoms: C_27  and  O_28
REMARK   13  A    between atoms: O_28  and  C_29
REMARK                            x       y       z     vdW  Elec       q    Type
REMARK                         _______ _______ _______ _____ _____    ______ ____
ROOT
ATOM      1  N   UNL     1       6.046   7.005  16.870  0.00  0.00    +0.000 N 
ATOM      2  C   UNL     1       7.188   7.396  17.507  0.00  0.00    +0.000 C 
ATOM      3  O   UNL     1       8.098   6.639  17.830  0.00  0.00    +0.000 OA
ATOM      4  N   UNL     1       7.293   8.763  17.665  0.00  0.00    +0.000 N 
ATOM      5  H   UNL     1       5.247   7.619  16.947  0.00  0.00    +0.000 HD
ATOM      6  H   UNL     1       6.478   9.358  17.762  0.00  0.00    +0.000 HD
ENDROOT
BRANCH   4   7
ATOM      7  N   UNL     1       8.483   9.222  18.228  0.00  0.00    +0.000 N 
ATOM      8  C   UNL     1       8.828  10.545  18.085  0.00  0.00    +0.000 C 
ATOM      9  O   UNL     1       8.092  11.379  17.565  0.00  0.00    +0.000 OA
ATOM     10  H   UNL     1       9.145   8.499  18.510  0.00  0.00    +0.000 HD
BRANCH   8  11
ATOM     11  C   UNL     1      10.208  10.862  18.633  0.00  0.00    +0.000 C 
BRANCH  11  12
ATOM     12  C   UNL     1      10.142  11.475  20.031  0.00  0.00    +0.000 C 
BRANCH  12  13
ATOM     13  C   UNL     1       9.839  12.981  20.044  0.00  0.00    +0.000 C 
BRANCH  13  14
ATOM     14  C   UNL     1      10.385  13.698  18.809  0.00  0.00    +0.000 C 
BRANCH  14  15
ATOM     15  N   UNL     1       9.297  14.108  17.943  0.00  0.00    +0.000 N 
ATOM     16  C   UNL     1       8.453  15.123  18.370  0.00  0.00    +0.000 A 
ATOM     17  C   UNL     1       8.890  16.212  19.119  0.00  0.00    +0.000 A 
ATOM     18  C   UNL     1       7.994  17.224  19.454  0.00  0.00    +0.000 A 
ATOM     19  C   UNL     1       6.684  17.139  19.013  0.00  0.00    +0.000 A 
ATOM     20  C   UNL     1       6.326  16.029  18.270  0.00  0.00    +0.000 A 
ATOM     21  N   UNL     1       7.176  15.025  17.951  0.00  0.00    +0.000 NA
ATOM     22  H   UNL     1       8.703  13.364  17.582  0.00  0.00    +0.000 HD
ENDBRANCH  14  15
ENDBRANCH  13  14
ENDBRANCH  12  13
ENDBRANCH  11  12
ENDBRANCH   8  11
ENDBRANCH   4   7
BRANCH   1  23
ATOM     23  C   UNL     1       5.779   5.624  16.469  0.00  0.00    +0.000 C 
BRANCH  23  24
ATOM     24  C   UNL     1       4.621   5.053  17.293  0.00  0.00    +0.000 A 
ATOM     25  C   UNL     1       4.577   3.689  17.617  0.00  0.00    +0.000 A 
ATOM     26  C   UNL     1       3.571   3.194  18.460  0.00  0.00    +0.000 A 
ATOM     27  C   UNL     1       2.611   4.046  19.013  0.00  0.00    +0.000 A 
ATOM     28  C   UNL     1       2.613   5.385  18.650  0.00  0.00    +0.000 A 
ATOM     29  C   UNL     1       3.621   5.883  17.824  0.00  0.00    +0.000 A 
BRANCH  27  30
ATOM     30  O   UNL     1       1.716   3.456  19.852  0.00  0.00    +0.000 OA
BRANCH  30  31
ATOM     31  C   UNL     1       2.049   3.295  21.226  0.00  0.00    +0.000 C 
ATOM     32  F   UNL     1       3.069   2.444  21.467  0.00  0.00    +0.000 F 
ATOM     33  F   UNL     1       2.359   4.499  21.755  0.00  0.00    +0.000 F 
ATOM     34  F   UNL     1       0.962   2.819  21.876  0.00  0.00    +0.000 F 
ENDBRANCH  30  31
ENDBRANCH  27  30
ENDBRANCH  23  24
BRANCH  23  35
ATOM     35  C   UNL     1       5.569   5.425  14.955  0.00  0.00    +0.000 C 
BRANCH  35  37
ATOM     36  O   UNL     1       7.825   5.360  14.066  0.00  0.00    +0.000 OA
ATOM     37  C   UNL     1       6.756   4.806  14.272  0.00  0.00    +0.000 C 
BRANCH  37  38
ATOM     38  O   UNL     1       6.518   3.528  13.888  0.00  0.00    +0.000 OA
ATOM     39  H   UNL     1       6.316   3.423  12.938  0.00  0.00    +0.000 HD
ENDBRANCH  37  38
ENDBRANCH  35  37
ENDBRANCH  23  35
ENDBRANCH   1  23
TORSDOF 13
ENDMDL
