MODEL 1
REMARK VINA RESULT:      -8.0      0.000      0.000
REMARK  Name = 
REMARK  6 active torsions:
REMARK  status: ('A' for Active; 'I' for Inactive)
REMARK    1  A    between atoms: C_2  and  OXT_3
REMARK    2  A    between atoms: C_2  and  CA_4
REMARK    3  A    between atoms: C_7  and  C_8
REMARK    4  A    between atoms: C_9  and  C_10
REMARK    5  A    between atoms: C_11  and  C_12
REMARK    6  A    between atoms: C_24  and  N_25
REMARK                            x       y       z     vdW  Elec       q    Type
REMARK                         _______ _______ _______ _____ _____    ______ ____
ROOT
ATOM      1  C   UNL     1      -0.295  12.119  18.846  0.00  0.00    +0.000 A 
ATOM      2  C   UNL     1       0.815  11.355  19.170  0.00  0.00    +0.000 A 
ATOM      3  N   UNL     1       1.950  12.100  19.307  0.00  0.00    +0.000 NA
ATOM      4  C   UNL     1       1.589  13.345  19.056  0.00  0.00    +0.000 A 
ATOM      5  C   UNL     1       2.343  14.578  19.051  0.00  0.00    +0.000 A 
ATOM      6  C   UNL     1       1.642  15.699  18.797  0.00  0.00    +0.000 A 
ATOM      7  C   UNL     1       0.195  15.612  18.542  0.00  0.00    +0.000 A 
ATOM      8  N   UNL     1      -0.512  14.534  18.531  0.00  0.00    +0.000 NA
ATOM      9  N   UNL     1       0.226  13.412  18.789  0.00  0.00    +0.000 N 
ENDROOT
BRANCH   1  13
ATOM     10  CA  UNL     1      -4.383  11.172  18.337  0.00  0.00    +0.000 A 
ATOM     11  C   UNL     1      -3.473  10.598  17.465  0.00  0.00    +0.000 A 
ATOM     12  C   UNL     1      -2.123  10.917  17.620  0.00  0.00    +0.000 A 
ATOM     13  C   UNL     1      -1.711  11.789  18.640  0.00  0.00    +0.000 A 
ATOM     14  C   UNL     1      -2.726  12.321  19.446  0.00  0.00    +0.000 A 
ATOM     15  N   UNL     1      -4.048  12.038  19.332  0.00  0.00    +0.000 NA
BRANCH  10  17
ATOM     16  O   UNL     1      -6.423  10.016  18.891  0.00  0.00    +0.000 OA
ATOM     17  C   UNL     1      -5.837  10.858  18.237  0.00  0.00    +0.000 C 
BRANCH  17  18
ATOM     18  OXT UNL     1      -6.423  11.654  17.308  0.00  0.00    +0.000 OA
ATOM     19  HXT UNL     1      -5.712  12.167  16.849  0.00  0.00    +0.000 HD
ENDBRANCH  17  18
ENDBRANCH  10  17
ENDBRANCH   1  13
BRANCH   5  20
ATOM     20  N   UNL     1       3.726  14.626  19.310  0.00  0.00    +0.000 N 
ATOM     21  C   UNL     1       4.306  14.616  20.674  0.00  0.00    +0.000 C 
ATOM     22  C   UNL     1       5.346  15.737  20.814  0.00  0.00    +0.000 C 
ATOM     23  O   UNL     1       6.376  15.624  19.813  0.00  0.00    +0.000 OA
ATOM     24  C   UNL     1       5.798  15.696  18.503  0.00  0.00    +0.000 C 
ATOM     25  C   UNL     1       4.776  14.570  18.274  0.00  0.00    +0.000 C 
ENDBRANCH   5  20
BRANCH   2  26
ATOM     26  C   UNL     1       0.874   9.955  19.406  0.00  0.00    +0.000 C 
ATOM     27  C   UNL     1       1.957   9.181  19.190  0.00  0.00    +0.000 C 
BRANCH  27  28
ATOM     28  C   UNL     1       1.968   7.734  19.440  0.00  0.00    +0.000 A 
ATOM     29  C   UNL     1       1.493   7.204  20.630  0.00  0.00    +0.000 A 
ATOM     30  C   UNL     1       1.505   5.819  20.796  0.00  0.00    +0.000 A 
ATOM     31  C   UNL     1       1.990   4.987  19.777  0.00  0.00    +0.000 A 
ATOM     32  C   UNL     1       2.461   5.598  18.626  0.00  0.00    +0.000 A 
ATOM     33  N   UNL     1       2.461   6.947  18.457  0.00  0.00    +0.000 NA
ATOM     34  C   UNL     1       3.044   4.828  17.487  0.00  0.00    +0.000 C 
ATOM     35  C   UNL     1       2.918   3.313  17.521  0.00  0.00    +0.000 C 
ATOM     36  C   UNL     1       2.544   2.645  18.836  0.00  0.00    +0.000 C 
ATOM     37  C   UNL     1       1.958   3.503  19.954  0.00  0.00    +0.000 C 
ENDBRANCH  27  28
ENDBRANCH   2  26
TORSDOF 6
ENDMDL
MODEL 2
REMARK VINA RESULT:      -8.0      2.630      7.017
REMARK  Name = 
REMARK  6 active torsions:
REMARK  status: ('A' for Active; 'I' for Inactive)
REMARK    1  A    between atoms: C_2  and  OXT_3
REMARK    2  A    between atoms: C_2  and  CA_4
REMARK    3  A    between atoms: C_7  and  C_8
REMARK    4  A    between atoms: C_9  and  C_10
REMARK    5  A    between atoms: C_11  and  C_12
REMARK    6  A    between atoms: C_24  and  N_25
REMARK                            x       y       z     vdW  Elec       q    Type
REMARK                         _______ _______ _______ _____ _____    ______ ____
ROOT
ATOM      1  C   UNL     1       0.657  13.204  20.626  0.00  0.00    +0.000 A 
ATOM      2  C   UNL     1       0.196  11.914  20.834  0.00  0.00    +0.000 A 
ATOM      3  N   UNL     1      -1.044  11.880  21.403  0.00  0.00    +0.000 NA
ATOM      4  C   UNL     1      -1.385  13.143  21.584  0.00  0.00    +0.000 A 
ATOM      5  C   UNL     1      -2.579  13.742  22.136  0.00  0.00    +0.000 A 
ATOM      6  C   UNL     1      -2.624  15.088  22.126  0.00  0.00    +0.000 A 
ATOM      7  C   UNL     1      -1.493  15.851  21.577  0.00  0.00    +0.000 A 
ATOM      8  N   UNL     1      -0.409  15.356  21.081  0.00  0.00    +0.000 NA
ATOM      9  N   UNL     1      -0.390  13.989  21.107  0.00  0.00    +0.000 N 
ENDROOT
BRANCH   1  13
ATOM     10  CA  UNL     1       4.191  14.803  18.944  0.00  0.00    +0.000 A 
ATOM     11  C   UNL     1       3.166  14.451  18.082  0.00  0.00    +0.000 A 
ATOM     12  C   UNL     1       2.002  13.911  18.630  0.00  0.00    +0.000 A 
ATOM     13  C   UNL     1       1.882  13.742  20.019  0.00  0.00    +0.000 A 
ATOM     14  C   UNL     1       2.992  14.117  20.786  0.00  0.00    +0.000 A 
ATOM     15  N   UNL     1       4.142  14.646  20.296  0.00  0.00    +0.000 NA
BRANCH  10  17
ATOM     16  O   UNL     1       5.839  16.535  18.645  0.00  0.00    +0.000 OA
ATOM     17  C   UNL     1       5.454  15.402  18.424  0.00  0.00    +0.000 C 
BRANCH  17  18
ATOM     18  OXT UNL     1       6.121  14.497  17.666  0.00  0.00    +0.000 OA
ATOM     19  HXT UNL     1       5.482  13.793  17.393  0.00  0.00    +0.000 HD
ENDBRANCH  17  18
ENDBRANCH  10  17
ENDBRANCH   1  13
BRANCH   5  20
ATOM     20  N   UNL     1      -3.648  12.981  22.645  0.00  0.00    +0.000 N 
ATOM     21  C   UNL     1      -4.920  12.763  21.916  0.00  0.00    +0.000 C 
ATOM     22  C   UNL     1      -6.113  13.049  22.838  0.00  0.00    +0.000 C 
ATOM     23  O   UNL     1      -6.058  12.244  24.032  0.00  0.00    +0.000 OA
ATOM     24  C   UNL     1      -4.847  12.515  24.751  0.00  0.00    +0.000 C 
ATOM     25  C   UNL     1      -3.603  12.207  23.901  0.00  0.00    +0.000 C 
ENDBRANCH   5  20
BRANCH   2  26
ATOM     26  C   UNL     1       0.832  10.691  20.490  0.00  0.00    +0.000 C 
ATOM     27  C   UNL     1       1.057  10.266  19.230  0.00  0.00    +0.000 C 
BRANCH  27  28
ATOM     28  C   UNL     1       1.710   8.987  18.922  0.00  0.00    +0.000 A 
ATOM     29  C   UNL     1       2.445   8.815  17.759  0.00  0.00    +0.000 A 
ATOM     30  C   UNL     1       3.064   7.585  17.536  0.00  0.00    +0.000 A 
ATOM     31  C   UNL     1       2.941   6.549  18.473  0.00  0.00    +0.000 A 
ATOM     32  C   UNL     1       2.176   6.799  19.601  0.00  0.00    +0.000 A 
ATOM     33  N   UNL     1       1.562   7.991  19.824  0.00  0.00    +0.000 NA
ATOM     34  C   UNL     1       1.929   5.766  20.650  0.00  0.00    +0.000 C 
ATOM     35  C   UNL     1       2.721   4.470  20.567  0.00  0.00    +0.000 C 
ATOM     36  C   UNL     1       3.436   4.140  19.264  0.00  0.00    +0.000 C 
ATOM     37  C   UNL     1       3.644   5.251  18.238  0.00  0.00    +0.000 C 
ENDBRANCH  27  28
ENDBRANCH   2  26
TORSDOF 6
ENDMDL
MODEL 3
REMARK VINA RESULT:      -7.9      2.618      7.053
REMARK  Name = 
REMARK  6 active torsions:
REMARK  status: ('A' for Active; 'I' for Inactive)
REMARK    1  A    between atoms: C_2  and  OXT_3
REMARK    2  A    between atoms: C_2  and  CA_4
REMARK    3  A    between atoms: C_7  and  C_8
REMARK    4  A    between atoms: C_9  and  C_10
REMARK    5  A    between atoms: C_11  and  C_12
REMARK    6  A    between atoms: C_24  and  N_25
REMARK                            x       y       z     vdW  Elec       q    Type
REMARK                         _______ _______ _______ _____ _____    ______ ____
ROOT
ATOM      1  C   UNL     1       0.627  13.353  20.592  0.00  0.00    +0.000 A 
ATOM      2  C   UNL     1       0.063  12.089  20.522  0.00  0.00    +0.000 A 
ATOM      3  N   UNL     1      -1.154  12.018  21.136  0.00  0.00    +0.000 NA
ATOM      4  C   UNL     1      -1.377  13.225  21.623  0.00  0.00    +0.000 A 
ATOM      5  C   UNL     1      -2.492  13.768  22.365  0.00  0.00    +0.000 A 
ATOM      6  C   UNL     1      -2.419  15.077  22.668  0.00  0.00    +0.000 A 
ATOM      7  C   UNL     1      -1.245  15.859  22.249  0.00  0.00    +0.000 A 
ATOM      8  N   UNL     1      -0.229  15.413  21.592  0.00  0.00    +0.000 NA
ATOM      9  N   UNL     1      -0.329  14.080  21.299  0.00  0.00    +0.000 N 
ENDROOT
BRANCH   1  13
ATOM     10  CA  UNL     1       4.196  14.953  18.987  0.00  0.00    +0.000 A 
ATOM     11  C   UNL     1       4.172  14.654  20.339  0.00  0.00    +0.000 A 
ATOM     12  C   UNL     1       2.993  14.137  20.877  0.00  0.00    +0.000 A 
ATOM     13  C   UNL     1       1.872  13.923  20.059  0.00  0.00    +0.000 A 
ATOM     14  C   UNL     1       2.012  14.281  18.712  0.00  0.00    +0.000 A 
ATOM     15  N   UNL     1       3.138  14.785  18.147  0.00  0.00    +0.000 NA
BRANCH  10  17
ATOM     16  O   UNL     1       6.213  14.845  17.672  0.00  0.00    +0.000 OA
ATOM     17  C   UNL     1       5.431  15.490  18.346  0.00  0.00    +0.000 C 
BRANCH  17  18
ATOM     18  OXT UNL     1       5.560  16.812  18.620  0.00  0.00    +0.000 OA
ATOM     19  HXT UNL     1       5.327  16.954  19.571  0.00  0.00    +0.000 HD
ENDBRANCH  17  18
ENDBRANCH  10  17
ENDBRANCH   1  13
BRANCH   5  20
ATOM     20  N   UNL     1      -3.605  12.993  22.742  0.00  0.00    +0.000 N 
ATOM     21  C   UNL     1      -4.776  12.758  21.865  0.00  0.00    +0.000 C 
ATOM     22  C   UNL     1      -6.076  13.029  22.636  0.00  0.00    +0.000 C 
ATOM     23  O   UNL     1      -6.155  12.225  23.829  0.00  0.00    +0.000 OA
ATOM     24  C   UNL     1      -5.042  12.512  24.689  0.00  0.00    +0.000 C 
ATOM     25  C   UNL     1      -3.702  12.219  23.995  0.00  0.00    +0.000 C 
ENDBRANCH   5  20
BRANCH   2  26
ATOM     26  C   UNL     1       0.575  10.936  19.868  0.00  0.00    +0.000 C 
ATOM     27  C   UNL     1       0.998   9.819  20.493  0.00  0.00    +0.000 C 
BRANCH  27  28
ATOM     28  C   UNL     1       1.531   8.654  19.776  0.00  0.00    +0.000 A 
ATOM     29  C   UNL     1       1.934   8.745  18.452  0.00  0.00    +0.000 A 
ATOM     30  C   UNL     1       2.458   7.610  17.834  0.00  0.00    +0.000 A 
ATOM     31  C   UNL     1       2.571   6.405  18.542  0.00  0.00    +0.000 A 
ATOM     32  C   UNL     1       2.130   6.396  19.856  0.00  0.00    +0.000 A 
ATOM     33  N   UNL     1       1.611   7.494  20.465  0.00  0.00    +0.000 NA
ATOM     34  C   UNL     1       2.153   5.166  20.703  0.00  0.00    +0.000 C 
ATOM     35  C   UNL     1       2.880   3.946  20.158  0.00  0.00    +0.000 C 
ATOM     36  C   UNL     1       3.225   3.909  18.676  0.00  0.00    +0.000 C 
ATOM     37  C   UNL     1       3.172   5.209  17.877  0.00  0.00    +0.000 C 
ENDBRANCH  27  28
ENDBRANCH   2  26
TORSDOF 6
ENDMDL
MODEL 4
REMARK VINA RESULT:      -7.9      0.842      1.184
REMARK  Name = 
REMARK  6 active torsions:
REMARK  status: ('A' for Active; 'I' for Inactive)
REMARK    1  A    between atoms: C_2  and  OXT_3
REMARK    2  A    between atoms: C_2  and  CA_4
REMARK    3  A    between atoms: C_7  and  C_8
REMARK    4  A    between atoms: C_9  and  C_10
REMARK    5  A    between atoms: C_11  and  C_12
REMARK    6  A    between atoms: C_24  and  N_25
REMARK                            x       y       z     vdW  Elec       q    Type
REMARK                         _______ _______ _______ _____ _____    ______ ____
ROOT
ATOM      1  C   UNL     1      -0.098  12.887  19.087  0.00  0.00    +0.000 A 
ATOM      2  C   UNL     1       1.038  12.245  19.552  0.00  0.00    +0.000 A 
ATOM      3  N   UNL     1       2.091  13.094  19.733  0.00  0.00    +0.000 NA
ATOM      4  C   UNL     1       1.651  14.285  19.370  0.00  0.00    +0.000 A 
ATOM      5  C   UNL     1       2.298  15.578  19.345  0.00  0.00    +0.000 A 
ATOM      6  C   UNL     1       1.531  16.615  18.959  0.00  0.00    +0.000 A 
ATOM      7  C   UNL     1       0.125  16.385  18.591  0.00  0.00    +0.000 A 
ATOM      8  N   UNL     1      -0.487  15.250  18.595  0.00  0.00    +0.000 NA
ATOM      9  N   UNL     1       0.316  14.215  18.988  0.00  0.00    +0.000 N 
ENDROOT
BRANCH   1  13
ATOM     10  CA  UNL     1      -4.024  11.528  18.307  0.00  0.00    +0.000 A 
ATOM     11  C   UNL     1      -3.058  11.305  17.340  0.00  0.00    +0.000 A 
ATOM     12  C   UNL     1      -1.763  11.762  17.586  0.00  0.00    +0.000 A 
ATOM     13  C   UNL     1      -1.459  12.421  18.789  0.00  0.00    +0.000 A 
ATOM     14  C   UNL     1      -2.523  12.605  19.680  0.00  0.00    +0.000 A 
ATOM     15  N   UNL     1      -3.795  12.176  19.483  0.00  0.00    +0.000 NA
BRANCH  10  17
ATOM     16  O   UNL     1      -5.997  10.245  18.826  0.00  0.00    +0.000 OA
ATOM     17  C   UNL     1      -5.423  11.048  18.114  0.00  0.00    +0.000 C 
BRANCH  17  18
ATOM     18  OXT UNL     1      -5.972  11.641  17.024  0.00  0.00    +0.000 OA
ATOM     19  HXT UNL     1      -5.674  11.146  16.221  0.00  0.00    +0.000 HD
ENDBRANCH  17  18
ENDBRANCH  10  17
ENDBRANCH   1  13
BRANCH   5  20
ATOM     20  N   UNL     1       3.644  15.763  19.713  0.00  0.00    +0.000 N 
ATOM     21  C   UNL     1       4.723  16.073  18.746  0.00  0.00    +0.000 C 
ATOM     22  C   UNL     1       5.923  15.142  18.976  0.00  0.00    +0.000 C 
ATOM     23  O   UNL     1       6.402  15.231  20.332  0.00  0.00    +0.000 OA
ATOM     24  C   UNL     1       5.358  14.870  21.247  0.00  0.00    +0.000 C 
ATOM     25  C   UNL     1       4.137  15.793  21.104  0.00  0.00    +0.000 C 
ENDBRANCH   5  20
BRANCH   2  26
ATOM     26  C   UNL     1       1.193  10.872  19.886  0.00  0.00    +0.000 C 
ATOM     27  C   UNL     1       1.620   9.915  19.039  0.00  0.00    +0.000 C 
BRANCH  27  28
ATOM     28  C   UNL     1       1.755   8.505  19.426  0.00  0.00    +0.000 A 
ATOM     29  C   UNL     1       1.288   8.046  20.648  0.00  0.00    +0.000 A 
ATOM     30  C   UNL     1       1.420   6.689  20.947  0.00  0.00    +0.000 A 
ATOM     31  C   UNL     1       2.014   5.815  20.026  0.00  0.00    +0.000 A 
ATOM     32  C   UNL     1       2.468   6.359  18.835  0.00  0.00    +0.000 A 
ATOM     33  N   UNL     1       2.351   7.679  18.537  0.00  0.00    +0.000 NA
ATOM     34  C   UNL     1       3.159   5.544  17.791  0.00  0.00    +0.000 C 
ATOM     35  C   UNL     1       3.171   4.033  17.967  0.00  0.00    +0.000 C 
ATOM     36  C   UNL     1       2.812   3.458  19.330  0.00  0.00    +0.000 C 
ATOM     37  C   UNL     1       2.111   4.358  20.344  0.00  0.00    +0.000 C 
ENDBRANCH  27  28
ENDBRANCH   2  26
TORSDOF 6
ENDMDL
MODEL 5
REMARK VINA RESULT:      -7.8      0.750      1.411
REMARK  Name = 
REMARK  6 active torsions:
REMARK  status: ('A' for Active; 'I' for Inactive)
REMARK    1  A    between atoms: C_2  and  OXT_3
REMARK    2  A    between atoms: C_2  and  CA_4
REMARK    3  A    between atoms: C_7  and  C_8
REMARK    4  A    between atoms: C_9  and  C_10
REMARK    5  A    between atoms: C_11  and  C_12
REMARK    6  A    between atoms: C_24  and  N_25
REMARK                            x       y       z     vdW  Elec       q    Type
REMARK                         _______ _______ _______ _____ _____    ______ ____
ROOT
ATOM      1  C   UNL     1      -0.045  12.347  18.613  0.00  0.00    +0.000 A 
ATOM      2  C   UNL     1       1.122  11.615  18.761  0.00  0.00    +0.000 A 
ATOM      3  N   UNL     1       2.219  12.402  18.960  0.00  0.00    +0.000 NA
ATOM      4  C   UNL     1       1.775  13.645  18.923  0.00  0.00    +0.000 A 
ATOM      5  C   UNL     1       2.457  14.911  19.076  0.00  0.00    +0.000 A 
ATOM      6  C   UNL     1       1.679  16.009  19.034  0.00  0.00    +0.000 A 
ATOM      7  C   UNL     1       0.228  15.869  18.836  0.00  0.00    +0.000 A 
ATOM      8  N   UNL     1      -0.417  14.762  18.690  0.00  0.00    +0.000 NA
ATOM      9  N   UNL     1       0.397  13.663  18.735  0.00  0.00    +0.000 N 
ENDROOT
BRANCH   1  13
ATOM     10  CA  UNL     1      -4.094  11.221  18.154  0.00  0.00    +0.000 A 
ATOM     11  C   UNL     1      -3.216  10.909  17.130  0.00  0.00    +0.000 A 
ATOM     12  C   UNL     1      -1.880  11.289  17.270  0.00  0.00    +0.000 A 
ATOM     13  C   UNL     1      -1.450  11.961  18.425  0.00  0.00    +0.000 A 
ATOM     14  C   UNL     1      -2.434  12.237  19.383  0.00  0.00    +0.000 A 
ATOM     15  N   UNL     1      -3.741  11.886  19.289  0.00  0.00    +0.000 NA
BRANCH  10  17
ATOM     16  O   UNL     1      -6.079  10.017  18.799  0.00  0.00    +0.000 OA
ATOM     17  C   UNL     1      -5.530  10.826  18.075  0.00  0.00    +0.000 C 
BRANCH  17  18
ATOM     18  OXT UNL     1      -6.145  11.506  17.075  0.00  0.00    +0.000 OA
ATOM     19  HXT UNL     1      -5.704  12.387  16.984  0.00  0.00    +0.000 HD
ENDBRANCH  17  18
ENDBRANCH  10  17
ENDBRANCH   1  13
BRANCH   5  20
ATOM     20  N   UNL     1       3.847  15.007  19.274  0.00  0.00    +0.000 N 
ATOM     21  C   UNL     1       4.505  14.798  20.585  0.00  0.00    +0.000 C 
ATOM     22  C   UNL     1       5.482  15.946  20.875  0.00  0.00    +0.000 C 
ATOM     23  O   UNL     1       6.457  16.083  19.823  0.00  0.00    +0.000 OA
ATOM     24  C   UNL     1       5.800  16.343  18.575  0.00  0.00    +0.000 C 
ATOM     25  C   UNL     1       4.835  15.208  18.196  0.00  0.00    +0.000 C 
ENDBRANCH   5  20
BRANCH   2  26
ATOM     26  C   UNL     1       1.275  10.202  18.772  0.00  0.00    +0.000 C 
ATOM     27  C   UNL     1       2.396   9.544  18.417  0.00  0.00    +0.000 C 
BRANCH  27  28
ATOM     28  C   UNL     1       2.504   8.080  18.435  0.00  0.00    +0.000 A 
ATOM     29  C   UNL     1       3.093   7.387  17.388  0.00  0.00    +0.000 A 
ATOM     30  C   UNL     1       3.190   5.998  17.476  0.00  0.00    +0.000 A 
ATOM     31  C   UNL     1       2.700   5.324  18.603  0.00  0.00    +0.000 A 
ATOM     32  C   UNL     1       2.111   6.089  19.597  0.00  0.00    +0.000 A 
ATOM     33  N   UNL     1       2.004   7.442  19.517  0.00  0.00    +0.000 NA
ATOM     34  C   UNL     1       1.510   5.488  20.825  0.00  0.00    +0.000 C 
ATOM     35  C   UNL     1       1.745   4.007  21.074  0.00  0.00    +0.000 C 
ATOM     36  C   UNL     1       2.252   3.149  19.924  0.00  0.00    +0.000 C 
ATOM     37  C   UNL     1       2.848   3.840  18.700  0.00  0.00    +0.000 C 
ENDBRANCH  27  28
ENDBRANCH   2  26
TORSDOF 6
ENDMDL
MODEL 6
REMARK VINA RESULT:      -7.8      1.091      1.985
REMARK  Name = 
REMARK  6 active torsions:
REMARK  status: ('A' for Active; 'I' for Inactive)
REMARK    1  A    between atoms: C_2  and  OXT_3
REMARK    2  A    between atoms: C_2  and  CA_4
REMARK    3  A    between atoms: C_7  and  C_8
REMARK    4  A    between atoms: C_9  and  C_10
REMARK    5  A    between atoms: C_11  and  C_12
REMARK    6  A    between atoms: C_24  and  N_25
REMARK                            x       y       z     vdW  Elec       q    Type
REMARK                         _______ _______ _______ _____ _____    ______ ____
ROOT
ATOM      1  C   UNL     1       0.028  12.817  18.693  0.00  0.00    +0.000 A 
ATOM      2  C   UNL     1       1.224  12.121  18.767  0.00  0.00    +0.000 A 
ATOM      3  N   UNL     1       2.313  12.941  18.819  0.00  0.00    +0.000 NA
ATOM      4  C   UNL     1       1.833  14.171  18.761  0.00  0.00    +0.000 A 
ATOM      5  C   UNL     1       2.492  15.457  18.782  0.00  0.00    +0.000 A 
ATOM      6  C   UNL     1       1.685  16.534  18.757  0.00  0.00    +0.000 A 
ATOM      7  C   UNL     1       0.226  16.352  18.706  0.00  0.00    +0.000 A 
ATOM      8  N   UNL     1      -0.400  15.224  18.680  0.00  0.00    +0.000 NA
ATOM      9  N   UNL     1       0.444  14.148  18.704  0.00  0.00    +0.000 N 
ENDROOT
BRANCH   1  13
ATOM     10  CA  UNL     1      -4.019  11.610  18.519  0.00  0.00    +0.000 A 
ATOM     11  C   UNL     1      -3.571  12.205  19.686  0.00  0.00    +0.000 A 
ATOM     12  C   UNL     1      -2.233  12.595  19.754  0.00  0.00    +0.000 A 
ATOM     13  C   UNL     1      -1.377  12.391  18.660  0.00  0.00    +0.000 A 
ATOM     14  C   UNL     1      -1.941  11.763  17.542  0.00  0.00    +0.000 A 
ATOM     15  N   UNL     1      -3.234  11.369  17.432  0.00  0.00    +0.000 NA
BRANCH  10  17
ATOM     16  O   UNL     1      -6.181  10.873  19.289  0.00  0.00    +0.000 OA
ATOM     17  C   UNL     1      -5.442  11.188  18.374  0.00  0.00    +0.000 C 
BRANCH  17  18
ATOM     18  OXT UNL     1      -5.803  11.208  17.067  0.00  0.00    +0.000 OA
ATOM     19  HXT UNL     1      -5.112  11.707  16.564  0.00  0.00    +0.000 HD
ENDBRANCH  17  18
ENDBRANCH  10  17
ENDBRANCH   1  13
BRANCH   5  20
ATOM     20  N   UNL     1       3.891  15.595  18.841  0.00  0.00    +0.000 N 
ATOM     21  C   UNL     1       4.784  15.402  17.675  0.00  0.00    +0.000 C 
ATOM     22  C   UNL     1       5.951  14.477  18.050  0.00  0.00    +0.000 C 
ATOM     23  O   UNL     1       6.682  14.987  19.181  0.00  0.00    +0.000 OA
ATOM     24  C   UNL     1       5.811  15.110  20.314  0.00  0.00    +0.000 C 
ATOM     25  C   UNL     1       4.639  16.062  20.025  0.00  0.00    +0.000 C 
ENDBRANCH   5  20
BRANCH   2  26
ATOM     26  C   UNL     1       1.415  10.714  18.837  0.00  0.00    +0.000 C 
ATOM     27  C   UNL     1       2.352  10.028  18.155  0.00  0.00    +0.000 C 
BRANCH  27  28
ATOM     28  C   UNL     1       2.506   8.570  18.251  0.00  0.00    +0.000 A 
ATOM     29  C   UNL     1       3.128   7.843  17.248  0.00  0.00    +0.000 A 
ATOM     30  C   UNL     1       3.267   6.464  17.411  0.00  0.00    +0.000 A 
ATOM     31  C   UNL     1       2.786   5.835  18.568  0.00  0.00    +0.000 A 
ATOM     32  C   UNL     1       2.163   6.633  19.514  0.00  0.00    +0.000 A 
ATOM     33  N   UNL     1       2.015   7.975  19.362  0.00  0.00    +0.000 NA
ATOM     34  C   UNL     1       1.568   6.079  20.766  0.00  0.00    +0.000 C 
ATOM     35  C   UNL     1       1.846   4.621  21.097  0.00  0.00    +0.000 C 
ATOM     36  C   UNL     1       2.393   3.720  19.998  0.00  0.00    +0.000 C 
ATOM     37  C   UNL     1       2.980   4.364  18.745  0.00  0.00    +0.000 C 
ENDBRANCH  27  28
ENDBRANCH   2  26
TORSDOF 6
ENDMDL
MODEL 7
REMARK VINA RESULT:      -7.8      2.675      7.157
REMARK  Name = 
REMARK  6 active torsions:
REMARK  status: ('A' for Active; 'I' for Inactive)
REMARK    1  A    between atoms: C_2  and  OXT_3
REMARK    2  A    between atoms: C_2  and  CA_4
REMARK    3  A    between atoms: C_7  and  C_8
REMARK    4  A    between atoms: C_9  and  C_10
REMARK    5  A    between atoms: C_11  and  C_12
REMARK    6  A    between atoms: C_24  and  N_25
REMARK                            x       y       z     vdW  Elec       q    Type
REMARK                         _______ _______ _______ _____ _____    ______ ____
ROOT
ATOM      1  C   UNL     1      -0.302  13.533  20.480  0.00  0.00    +0.000 A 
ATOM      2  C   UNL     1      -0.813  12.246  20.422  0.00  0.00    +0.000 A 
ATOM      3  N   UNL     1      -2.047  12.140  20.996  0.00  0.00    +0.000 NA
ATOM      4  C   UNL     1      -2.334  13.349  21.445  0.00  0.00    +0.000 A 
ATOM      5  C   UNL     1      -3.496  13.863  22.134  0.00  0.00    +0.000 A 
ATOM      6  C   UNL     1      -3.485  15.181  22.407  0.00  0.00    +0.000 A 
ATOM      7  C   UNL     1      -2.329  16.000  22.008  0.00  0.00    +0.000 A 
ATOM      8  N   UNL     1      -1.273  15.579  21.399  0.00  0.00    +0.000 NA
ATOM      9  N   UNL     1      -1.310  14.237  21.136  0.00  0.00    +0.000 N 
ENDROOT
BRANCH   1  13
ATOM     10  CA  UNL     1       3.241  15.259  18.952  0.00  0.00    +0.000 A 
ATOM     11  C   UNL     1       3.308  14.630  20.183  0.00  0.00    +0.000 A 
ATOM     12  C   UNL     1       2.139  14.069  20.699  0.00  0.00    +0.000 A 
ATOM     13  C   UNL     1       0.937  14.140  19.975  0.00  0.00    +0.000 A 
ATOM     14  C   UNL     1       0.991  14.817  18.751  0.00  0.00    +0.000 A 
ATOM     15  N   UNL     1       2.104  15.376  18.212  0.00  0.00    +0.000 NA
BRANCH  10  17
ATOM     16  O   UNL     1       4.858  16.996  18.527  0.00  0.00    +0.000 OA
ATOM     17  C   UNL     1       4.459  15.862  18.336  0.00  0.00    +0.000 C 
BRANCH  17  18
ATOM     18  OXT UNL     1       5.067  14.959  17.526  0.00  0.00    +0.000 OA
ATOM     19  HXT UNL     1       5.840  15.402  17.096  0.00  0.00    +0.000 HD
ENDBRANCH  17  18
ENDBRANCH  10  17
ENDBRANCH   1  13
BRANCH   5  20
ATOM     20  N   UNL     1      -4.589  13.052  22.492  0.00  0.00    +0.000 N 
ATOM     21  C   UNL     1      -5.530  12.463  21.510  0.00  0.00    +0.000 C 
ATOM     22  C   UNL     1      -6.979  12.726  21.944  0.00  0.00    +0.000 C 
ATOM     23  O   UNL     1      -7.230  12.219  23.268  0.00  0.00    +0.000 OA
ATOM     24  C   UNL     1      -6.348  12.846  24.210  0.00  0.00    +0.000 C 
ATOM     25  C   UNL     1      -4.874  12.586  23.863  0.00  0.00    +0.000 C 
ENDBRANCH   5  20
BRANCH   2  26
ATOM     26  C   UNL     1      -0.232  11.100  19.815  0.00  0.00    +0.000 C 
ATOM     27  C   UNL     1       0.797  10.394  20.326  0.00  0.00    +0.000 C 
BRANCH  27  28
ATOM     28  C   UNL     1       1.372   9.220  19.657  0.00  0.00    +0.000 A 
ATOM     29  C   UNL     1       1.817   9.284  18.346  0.00  0.00    +0.000 A 
ATOM     30  C   UNL     1       2.379   8.142  17.775  0.00  0.00    +0.000 A 
ATOM     31  C   UNL     1       2.487   6.958  18.518  0.00  0.00    +0.000 A 
ATOM     32  C   UNL     1       2.003   6.975  19.816  0.00  0.00    +0.000 A 
ATOM     33  N   UNL     1       1.447   8.079  20.379  0.00  0.00    +0.000 NA
ATOM     34  C   UNL     1       2.017   5.767  20.695  0.00  0.00    +0.000 C 
ATOM     35  C   UNL     1       2.780   4.546  20.207  0.00  0.00    +0.000 C 
ATOM     36  C   UNL     1       3.175   4.477  18.739  0.00  0.00    +0.000 C 
ATOM     37  C   UNL     1       3.128   5.755  17.905  0.00  0.00    +0.000 C 
ENDBRANCH  27  28
ENDBRANCH   2  26
TORSDOF 6
ENDMDL
MODEL 8
REMARK VINA RESULT:      -7.6      1.107      1.600
REMARK  Name = 
REMARK  6 active torsions:
REMARK  status: ('A' for Active; 'I' for Inactive)
REMARK    1  A    between atoms: C_2  and  OXT_3
REMARK    2  A    between atoms: C_2  and  CA_4
REMARK    3  A    between atoms: C_7  and  C_8
REMARK    4  A    between atoms: C_9  and  C_10
REMARK    5  A    between atoms: C_11  and  C_12
REMARK    6  A    between atoms: C_24  and  N_25
REMARK                            x       y       z     vdW  Elec       q    Type
REMARK                         _______ _______ _______ _____ _____    ______ ____
ROOT
ATOM      1  C   UNL     1      -0.025  12.700  18.562  0.00  0.00    +0.000 A 
ATOM      2  C   UNL     1       1.181  12.028  18.682  0.00  0.00    +0.000 A 
ATOM      3  N   UNL     1       2.243  12.869  18.849  0.00  0.00    +0.000 NA
ATOM      4  C   UNL     1       1.736  14.089  18.819  0.00  0.00    +0.000 A 
ATOM      5  C   UNL     1       2.357  15.387  18.948  0.00  0.00    +0.000 A 
ATOM      6  C   UNL     1       1.526  16.446  18.922  0.00  0.00    +0.000 A 
ATOM      7  C   UNL     1       0.078  16.233  18.763  0.00  0.00    +0.000 A 
ATOM      8  N   UNL     1      -0.514  15.094  18.639  0.00  0.00    +0.000 NA
ATOM      9  N   UNL     1       0.355  14.037  18.667  0.00  0.00    +0.000 N 
ENDROOT
BRANCH   1  13
ATOM     10  CA  UNL     1      -4.021  11.367  18.213  0.00  0.00    +0.000 A 
ATOM     11  C   UNL     1      -3.175  11.163  17.136  0.00  0.00    +0.000 A 
ATOM     12  C   UNL     1      -1.858  11.611  17.240  0.00  0.00    +0.000 A 
ATOM     13  C   UNL     1      -1.413  12.243  18.413  0.00  0.00    +0.000 A 
ATOM     14  C   UNL     1      -2.366  12.409  19.426  0.00  0.00    +0.000 A 
ATOM     15  N   UNL     1      -3.654  11.989  19.368  0.00  0.00    +0.000 NA
BRANCH  10  17
ATOM     16  O   UNL     1      -5.943  10.123  18.966  0.00  0.00    +0.000 OA
ATOM     17  C   UNL     1      -5.435  10.894  18.174  0.00  0.00    +0.000 C 
BRANCH  17  18
ATOM     18  OXT UNL     1      -6.083  11.453  17.121  0.00  0.00    +0.000 OA
ATOM     19  HXT UNL     1      -6.148  10.775  16.403  0.00  0.00    +0.000 HD
ENDBRANCH  17  18
ENDBRANCH  10  17
ENDBRANCH   1  13
BRANCH   5  20
ATOM     20  N   UNL     1       3.746  15.554  19.109  0.00  0.00    +0.000 N 
ATOM     21  C   UNL     1       4.705  15.572  17.980  0.00  0.00    +0.000 C 
ATOM     22  C   UNL     1       5.884  14.633  18.273  0.00  0.00    +0.000 C 
ATOM     23  O   UNL     1       6.535  14.980  19.511  0.00  0.00    +0.000 OA
ATOM     24  C   UNL     1       5.601  14.899  20.597  0.00  0.00    +0.000 C 
ATOM     25  C   UNL     1       4.412  15.850  20.392  0.00  0.00    +0.000 C 
ENDBRANCH   5  20
BRANCH   2  26
ATOM     26  C   UNL     1       1.404  10.624  18.695  0.00  0.00    +0.000 C 
ATOM     27  C   UNL     1       2.430  10.000  18.084  0.00  0.00    +0.000 C 
BRANCH  27  28
ATOM     28  C   UNL     1       2.614   8.543  18.117  0.00  0.00    +0.000 A 
ATOM     29  C   UNL     1       1.814   7.733  18.908  0.00  0.00    +0.000 A 
ATOM     30  C   UNL     1       2.020   6.354  18.875  0.00  0.00    +0.000 A 
ATOM     31  C   UNL     1       3.017   5.806  18.055  0.00  0.00    +0.000 A 
ATOM     32  C   UNL     1       3.782   6.687  17.308  0.00  0.00    +0.000 A 
ATOM     33  N   UNL     1       3.595   8.032  17.339  0.00  0.00    +0.000 NA
ATOM     34  C   UNL     1       4.904   6.233  16.432  0.00  0.00    +0.000 C 
ATOM     35  C   UNL     1       5.063   4.739  16.204  0.00  0.00    +0.000 C 
ATOM     36  C   UNL     1       4.329   3.781  17.132  0.00  0.00    +0.000 C 
ATOM     37  C   UNL     1       3.198   4.323  18.001  0.00  0.00    +0.000 C 
ENDBRANCH  27  28
ENDBRANCH   2  26
TORSDOF 6
ENDMDL
MODEL 9
REMARK VINA RESULT:      -7.6      1.918      7.074
REMARK  Name = 
REMARK  6 active torsions:
REMARK  status: ('A' for Active; 'I' for Inactive)
REMARK    1  A    between atoms: C_2  and  OXT_3
REMARK    2  A    between atoms: C_2  and  CA_4
REMARK    3  A    between atoms: C_7  and  C_8
REMARK    4  A    between atoms: C_9  and  C_10
REMARK    5  A    between atoms: C_11  and  C_12
REMARK    6  A    between atoms: C_24  and  N_25
REMARK                            x       y       z     vdW  Elec       q    Type
REMARK                         _______ _______ _______ _____ _____    ______ ____
ROOT
ATOM      1  C   UNL     1       0.056  13.109  19.866  0.00  0.00    +0.000 A 
ATOM      2  C   UNL     1      -0.527  11.867  19.668  0.00  0.00    +0.000 A 
ATOM      3  N   UNL     1      -1.866  11.863  19.929  0.00  0.00    +0.000 NA
ATOM      4  C   UNL     1      -2.156  13.093  20.315  0.00  0.00    +0.000 A 
ATOM      5  C   UNL     1      -3.404  13.702  20.715  0.00  0.00    +0.000 A 
ATOM      6  C   UNL     1      -3.355  15.016  21.003  0.00  0.00    +0.000 A 
ATOM      7  C   UNL     1      -2.076  15.737  20.905  0.00  0.00    +0.000 A 
ATOM      8  N   UNL     1      -0.941  15.231  20.558  0.00  0.00    +0.000 NA
ATOM      9  N   UNL     1      -1.021  13.895  20.273  0.00  0.00    +0.000 N 
ENDROOT
BRANCH   1  13
ATOM     10  CA  UNL     1       3.986  14.598  19.406  0.00  0.00    +0.000 A 
ATOM     11  C   UNL     1       3.219  14.432  18.265  0.00  0.00    +0.000 A 
ATOM     12  C   UNL     1       1.925  13.929  18.409  0.00  0.00    +0.000 A 
ATOM     13  C   UNL     1       1.424  13.612  19.682  0.00  0.00    +0.000 A 
ATOM     14  C   UNL     1       2.299  13.805  20.757  0.00  0.00    +0.000 A 
ATOM     15  N   UNL     1       3.563  14.292  20.664  0.00  0.00    +0.000 NA
BRANCH  10  17
ATOM     16  O   UNL     1       5.852  15.700  18.351  0.00  0.00    +0.000 OA
ATOM     17  C   UNL     1       5.369  15.149  19.323  0.00  0.00    +0.000 C 
BRANCH  17  18
ATOM     18  OXT UNL     1       6.020  14.952  20.497  0.00  0.00    +0.000 OA
ATOM     19  HXT UNL     1       5.683  14.113  20.899  0.00  0.00    +0.000 HD
ENDBRANCH  17  18
ENDBRANCH  10  17
ENDBRANCH   1  13
BRANCH   5  20
ATOM     20  N   UNL     1      -4.612  12.984  20.789  0.00  0.00    +0.000 N 
ATOM     21  C   UNL     1      -5.275  12.370  19.614  0.00  0.00    +0.000 C 
ATOM     22  C   UNL     1      -6.763  12.745  19.591  0.00  0.00    +0.000 C 
ATOM     23  O   UNL     1      -7.420  12.360  20.814  0.00  0.00    +0.000 OA
ATOM     24  C   UNL     1      -6.799  13.012  21.931  0.00  0.00    +0.000 C 
ATOM     25  C   UNL     1      -5.311  12.645  22.044  0.00  0.00    +0.000 C 
ENDBRANCH   5  20
BRANCH   2  26
ATOM     26  C   UNL     1       0.089  10.676  19.200  0.00  0.00    +0.000 C 
ATOM     27  C   UNL     1       0.998   9.955  19.887  0.00  0.00    +0.000 C 
BRANCH  27  28
ATOM     28  C   UNL     1       1.617   8.734  19.358  0.00  0.00    +0.000 A 
ATOM     29  C   UNL     1       2.195   8.706  18.098  0.00  0.00    +0.000 A 
ATOM     30  C   UNL     1       2.791   7.522  17.662  0.00  0.00    +0.000 A 
ATOM     31  C   UNL     1       2.802   6.389  18.487  0.00  0.00    +0.000 A 
ATOM     32  C   UNL     1       2.189   6.497  19.725  0.00  0.00    +0.000 A 
ATOM     33  N   UNL     1       1.598   7.642  20.156  0.00  0.00    +0.000 NA
ATOM     34  C   UNL     1       2.092   5.350  20.677  0.00  0.00    +0.000 C 
ATOM     35  C   UNL     1       2.879   4.090  20.349  0.00  0.00    +0.000 C 
ATOM     36  C   UNL     1       3.420   3.920  18.936  0.00  0.00    +0.000 C 
ATOM     37  C   UNL     1       3.481   5.141  18.022  0.00  0.00    +0.000 C 
ENDBRANCH  27  28
ENDBRANCH   2  26
TORSDOF 6
ENDMDL
