MODEL 1
REMARK VINA RESULT:      -8.1      0.000      0.000
REMARK  Name = 
REMARK  10 active torsions:
REMARK  status: ('A' for Active; 'I' for Inactive)
REMARK    1  A    between atoms: C_1  and  C_2
REMARK    2  A    between atoms: C_6  and  O_7
REMARK    3  A    between atoms: O_7  and  C_8
REMARK    4  A    between atoms: C_8  and  C_9
REMARK    5  A    between atoms: N_11  and  C_12
REMARK    6  A    between atoms: N_11  and  C_13
REMARK    7  A    between atoms: C_14  and  N_15
REMARK    8  A    between atoms: N_16  and  C_17
REMARK    9  A    between atoms: C_17  and  C_18
REMARK   10  A    between atoms: C_29  and  C_30
REMARK                            x       y       z     vdW  Elec       q    Type
REMARK                         _______ _______ _______ _____ _____    ______ ____
ROOT
ATOM      1  C   UNL     1       3.880   4.018  18.633  0.00  0.00    +0.000 A 
ATOM      2  C   UNL     1       4.102   4.835  17.572  0.00  0.00    +0.000 A 
ATOM      3  N   UNL     1       5.408   5.089  17.168  0.00  0.00    +0.000 N 
ATOM      4  C   UNL     1       6.517   4.565  17.830  0.00  0.00    +0.000 A 
ATOM      5  O   UNL     1       7.684   4.774  17.504  0.00  0.00    +0.000 OA
ATOM      6  N   UNL     1       6.261   3.753  18.891  0.00  0.00    +0.000 N 
ATOM      7  C   UNL     1       5.032   3.343  19.290  0.00  0.00    +0.000 A 
ATOM      8  O   UNL     1       4.888   2.474  20.147  0.00  0.00    +0.000 OA
ATOM      9  H   UNL     1       7.059   3.302  19.316  0.00  0.00    +0.000 HD
ENDROOT
BRANCH   1  12
ATOM     10  C   UNL     1       1.863   4.539  19.925  0.00  0.00    +0.000 C 
ATOM     11  O   UNL     1       0.717   4.252  20.283  0.00  0.00    +0.000 OA
ATOM     12  N   UNL     1       2.593   3.716  19.064  0.00  0.00    +0.000 N 
ATOM     13  C   UNL     1       1.977   2.514  18.511  0.00  0.00    +0.000 C 
BRANCH  10  14
ATOM     14  C   UNL     1       2.556   5.791  20.491  0.00  0.00    +0.000 C 
BRANCH  14  15
ATOM     15  O   UNL     1       2.371   6.910  19.638  0.00  0.00    +0.000 OA
BRANCH  15  21
ATOM     16  C   UNL     1       0.342  11.297  18.717  0.00  0.00    +0.000 C 
ATOM     17  C   UNL     1       0.625  10.139  19.637  0.00  0.00    +0.000 A 
ATOM     18  C   UNL     1       0.096  10.164  20.935  0.00  0.00    +0.000 A 
ATOM     19  C   UNL     1       0.318   9.107  21.809  0.00  0.00    +0.000 A 
ATOM     20  C   UNL     1       1.070   8.007  21.399  0.00  0.00    +0.000 A 
ATOM     21  C   UNL     1       1.617   7.955  20.111  0.00  0.00    +0.000 A 
ATOM     22  C   UNL     1       1.402   9.030  19.220  0.00  0.00    +0.000 A 
ATOM     23  C   UNL     1       1.989   9.014  17.829  0.00  0.00    +0.000 C 
ENDBRANCH  15  21
ENDBRANCH  14  15
ENDBRANCH  10  14
ENDBRANCH   1  12
BRANCH   2  24
ATOM     24  N   UNL     1       3.021   5.367  16.879  0.00  0.00    +0.000 N 
ATOM     25  H   UNL     1       2.187   5.460  17.460  0.00  0.00    +0.000 HD
ATOM     26  H   UNL     1       3.232   6.240  16.404  0.00  0.00    +0.000 HD
ENDBRANCH   2  24
BRANCH   3  27
ATOM     27  C   UNL     1       5.668   5.879  15.967  0.00  0.00    +0.000 C 
BRANCH  27  28
ATOM     28  C   UNL     1       6.084   5.088  14.749  0.00  0.00    +0.000 A 
ATOM     29  C   UNL     1       5.220   4.138  14.185  0.00  0.00    +0.000 A 
ATOM     30  C   UNL     1       5.531   3.514  12.976  0.00  0.00    +0.000 A 
ATOM     31  C   UNL     1       6.714   3.827  12.314  0.00  0.00    +0.000 A 
ATOM     32  C   UNL     1       7.600   4.743  12.876  0.00  0.00    +0.000 A 
ATOM     33  C   UNL     1       7.291   5.369  14.087  0.00  0.00    +0.000 A 
ENDBRANCH  27  28
ENDBRANCH   3  27
TORSDOF 7
ENDMDL
MODEL 2
REMARK VINA RESULT:      -7.9      0.574      1.416
REMARK  Name = 
REMARK  10 active torsions:
REMARK  status: ('A' for Active; 'I' for Inactive)
REMARK    1  A    between atoms: C_1  and  C_2
REMARK    2  A    between atoms: C_6  and  O_7
REMARK    3  A    between atoms: O_7  and  C_8
REMARK    4  A    between atoms: C_8  and  C_9
REMARK    5  A    between atoms: N_11  and  C_12
REMARK    6  A    between atoms: N_11  and  C_13
REMARK    7  A    between atoms: C_14  and  N_15
REMARK    8  A    between atoms: N_16  and  C_17
REMARK    9  A    between atoms: C_17  and  C_18
REMARK   10  A    between atoms: C_29  and  C_30
REMARK                            x       y       z     vdW  Elec       q    Type
REMARK                         _______ _______ _______ _____ _____    ______ ____
ROOT
ATOM      1  C   UNL     1       3.885   3.982  18.601  0.00  0.00    +0.000 A 
ATOM      2  C   UNL     1       4.061   4.778  17.515  0.00  0.00    +0.000 A 
ATOM      3  N   UNL     1       5.352   5.072  17.088  0.00  0.00    +0.000 N 
ATOM      4  C   UNL     1       6.488   4.610  17.750  0.00  0.00    +0.000 A 
ATOM      5  O   UNL     1       7.643   4.857  17.403  0.00  0.00    +0.000 OA
ATOM      6  N   UNL     1       6.277   3.819  18.835  0.00  0.00    +0.000 N 
ATOM      7  C   UNL     1       5.070   3.371  19.261  0.00  0.00    +0.000 A 
ATOM      8  O   UNL     1       4.972   2.522  20.143  0.00  0.00    +0.000 OA
ATOM      9  H   UNL     1       7.098   3.412  19.262  0.00  0.00    +0.000 HD
ENDROOT
BRANCH   1  12
ATOM     10  C   UNL     1       1.888   4.431  19.950  0.00  0.00    +0.000 C 
ATOM     11  O   UNL     1       0.757   4.110  20.329  0.00  0.00    +0.000 OA
ATOM     12  N   UNL     1       2.616   3.642  19.056  0.00  0.00    +0.000 N 
ATOM     13  C   UNL     1       2.016   2.435  18.495  0.00  0.00    +0.000 C 
BRANCH  10  14
ATOM     14  C   UNL     1       2.565   5.689  20.523  0.00  0.00    +0.000 C 
BRANCH  14  15
ATOM     15  O   UNL     1       1.613   6.706  20.792  0.00  0.00    +0.000 OA
BRANCH  15  21
ATOM     16  C   UNL     1       0.105  11.336  20.086  0.00  0.00    +0.000 C 
ATOM     17  C   UNL     1       0.834  10.101  19.630  0.00  0.00    +0.000 A 
ATOM     18  C   UNL     1       1.486  10.121  18.389  0.00  0.00    +0.000 A 
ATOM     19  C   UNL     1       2.186   9.007  17.941  0.00  0.00    +0.000 A 
ATOM     20  C   UNL     1       2.247   7.857  18.726  0.00  0.00    +0.000 A 
ATOM     21  C   UNL     1       1.601   7.803  19.966  0.00  0.00    +0.000 A 
ATOM     22  C   UNL     1       0.881   8.928  20.425  0.00  0.00    +0.000 A 
ATOM     23  C   UNL     1       0.161   8.901  21.752  0.00  0.00    +0.000 C 
ENDBRANCH  15  21
ENDBRANCH  14  15
ENDBRANCH  10  14
ENDBRANCH   1  12
BRANCH   2  24
ATOM     24  N   UNL     1       2.952   5.247  16.822  0.00  0.00    +0.000 N 
ATOM     25  H   UNL     1       2.774   4.725  15.964  0.00  0.00    +0.000 HD
ATOM     26  H   UNL     1       2.112   5.309  17.391  0.00  0.00    +0.000 HD
ENDBRANCH   2  24
BRANCH   3  27
ATOM     27  C   UNL     1       5.566   5.838  15.862  0.00  0.00    +0.000 C 
BRANCH  27  28
ATOM     28  C   UNL     1       6.021   5.034  14.667  0.00  0.00    +0.000 A 
ATOM     29  C   UNL     1       5.172   4.086  14.078  0.00  0.00    +0.000 A 
ATOM     30  C   UNL     1       5.523   3.450  12.886  0.00  0.00    +0.000 A 
ATOM     31  C   UNL     1       6.733   3.748  12.267  0.00  0.00    +0.000 A 
ATOM     32  C   UNL     1       7.605   4.662  12.856  0.00  0.00    +0.000 A 
ATOM     33  C   UNL     1       7.255   5.299  14.050  0.00  0.00    +0.000 A 
ENDBRANCH  27  28
ENDBRANCH   3  27
TORSDOF 7
ENDMDL
MODEL 3
REMARK VINA RESULT:      -7.5      8.165     11.233
REMARK  Name = 
REMARK  10 active torsions:
REMARK  status: ('A' for Active; 'I' for Inactive)
REMARK    1  A    between atoms: C_1  and  C_2
REMARK    2  A    between atoms: C_6  and  O_7
REMARK    3  A    between atoms: O_7  and  C_8
REMARK    4  A    between atoms: C_8  and  C_9
REMARK    5  A    between atoms: N_11  and  C_12
REMARK    6  A    between atoms: N_11  and  C_13
REMARK    7  A    between atoms: C_14  and  N_15
REMARK    8  A    between atoms: N_16  and  C_17
REMARK    9  A    between atoms: C_17  and  C_18
REMARK   10  A    between atoms: C_29  and  C_30
REMARK                            x       y       z     vdW  Elec       q    Type
REMARK                         _______ _______ _______ _____ _____    ______ ____
ROOT
ATOM      1  C   UNL     1      -5.188  13.051  21.843  0.00  0.00    +0.000 A 
ATOM      2  C   UNL     1      -4.936  13.113  20.510  0.00  0.00    +0.000 A 
ATOM      3  N   UNL     1      -5.646  12.288  19.644  0.00  0.00    +0.000 N 
ATOM      4  C   UNL     1      -6.592  11.365  20.087  0.00  0.00    +0.000 A 
ATOM      5  O   UNL     1      -7.232  10.617  19.350  0.00  0.00    +0.000 OA
ATOM      6  N   UNL     1      -6.817  11.326  21.428  0.00  0.00    +0.000 N 
ATOM      7  C   UNL     1      -6.274  12.167  22.343  0.00  0.00    +0.000 A 
ATOM      8  O   UNL     1      -6.656  12.183  23.510  0.00  0.00    +0.000 OA
ATOM      9  H   UNL     1      -7.564  10.721  21.741  0.00  0.00    +0.000 HD
ENDROOT
BRANCH   1  12
ATOM     10  C   UNL     1      -3.342  13.487  23.396  0.00  0.00    +0.000 C 
ATOM     11  O   UNL     1      -2.764  14.238  24.188  0.00  0.00    +0.000 OA
ATOM     12  N   UNL     1      -4.519  13.868  22.748  0.00  0.00    +0.000 N 
ATOM     13  C   UNL     1      -5.061  15.209  22.950  0.00  0.00    +0.000 C 
BRANCH  10  14
ATOM     14  C   UNL     1      -2.814  12.061  23.161  0.00  0.00    +0.000 C 
BRANCH  14  15
ATOM     15  O   UNL     1      -1.395  12.034  23.155  0.00  0.00    +0.000 OA
BRANCH  15  21
ATOM     16  C   UNL     1       1.118   8.405  20.981  0.00  0.00    +0.000 C 
ATOM     17  C   UNL     1       0.485   9.771  20.959  0.00  0.00    +0.000 A 
ATOM     18  C   UNL     1       0.544  10.523  19.778  0.00  0.00    +0.000 A 
ATOM     19  C   UNL     1      -0.044  11.780  19.711  0.00  0.00    +0.000 A 
ATOM     20  C   UNL     1      -0.701  12.305  20.822  0.00  0.00    +0.000 A 
ATOM     21  C   UNL     1      -0.771  11.582  22.019  0.00  0.00    +0.000 A 
ATOM     22  C   UNL     1      -0.169  10.307  22.097  0.00  0.00    +0.000 A 
ATOM     23  C   UNL     1      -0.213   9.504  23.375  0.00  0.00    +0.000 C 
ENDBRANCH  15  21
ENDBRANCH  14  15
ENDBRANCH  10  14
ENDBRANCH   1  12
BRANCH   2  24
ATOM     24  N   UNL     1      -4.009  14.029  20.029  0.00  0.00    +0.000 N 
ATOM     25  H   UNL     1      -4.064  14.151  19.018  0.00  0.00    +0.000 HD
ATOM     26  H   UNL     1      -4.038  14.926  20.506  0.00  0.00    +0.000 HD
ENDBRANCH   2  24
BRANCH   3  27
ATOM     27  C   UNL     1      -5.470  12.411  18.199  0.00  0.00    +0.000 C 
BRANCH  27  28
ATOM     28  C   UNL     1      -4.343  11.594  17.611  0.00  0.00    +0.000 A 
ATOM     29  C   UNL     1      -3.512  10.825  18.439  0.00  0.00    +0.000 A 
ATOM     30  C   UNL     1      -2.569   9.951  17.895  0.00  0.00    +0.000 A 
ATOM     31  C   UNL     1      -2.438   9.837  16.515  0.00  0.00    +0.000 A 
ATOM     32  C   UNL     1      -3.232  10.619  15.677  0.00  0.00    +0.000 A 
ATOM     33  C   UNL     1      -4.176  11.495  16.220  0.00  0.00    +0.000 A 
ENDBRANCH  27  28
ENDBRANCH   3  27
TORSDOF 7
ENDMDL
MODEL 4
REMARK VINA RESULT:      -7.5      1.974      3.490
REMARK  Name = 
REMARK  10 active torsions:
REMARK  status: ('A' for Active; 'I' for Inactive)
REMARK    1  A    between atoms: C_1  and  C_2
REMARK    2  A    between atoms: C_6  and  O_7
REMARK    3  A    between atoms: O_7  and  C_8
REMARK    4  A    between atoms: C_8  and  C_9
REMARK    5  A    between atoms: N_11  and  C_12
REMARK    6  A    between atoms: N_11  and  C_13
REMARK    7  A    between atoms: C_14  and  N_15
REMARK    8  A    between atoms: N_16  and  C_17
REMARK    9  A    between atoms: C_17  and  C_18
REMARK   10  A    between atoms: C_29  and  C_30
REMARK                            x       y       z     vdW  Elec       q    Type
REMARK                         _______ _______ _______ _____ _____    ______ ____
ROOT
ATOM      1  C   UNL     1       3.587   3.696  18.499  0.00  0.00    +0.000 A 
ATOM      2  C   UNL     1       4.926   3.916  18.532  0.00  0.00    +0.000 A 
ATOM      3  N   UNL     1       5.607   4.153  17.343  0.00  0.00    +0.000 N 
ATOM      4  C   UNL     1       4.978   4.141  16.099  0.00  0.00    +0.000 A 
ATOM      5  O   UNL     1       5.551   4.340  15.029  0.00  0.00    +0.000 OA
ATOM      6  N   UNL     1       3.638   3.915  16.101  0.00  0.00    +0.000 N 
ATOM      7  C   UNL     1       2.860   3.796  17.205  0.00  0.00    +0.000 A 
ATOM      8  O   UNL     1       1.634   3.765  17.131  0.00  0.00    +0.000 OA
ATOM      9  H   UNL     1       3.166   3.993  15.210  0.00  0.00    +0.000 HD
ENDROOT
BRANCH   1  12
ATOM     10  C   UNL     1       2.362   4.507  20.462  0.00  0.00    +0.000 C 
ATOM     11  O   UNL     1       1.707   4.281  21.484  0.00  0.00    +0.000 OA
ATOM     12  N   UNL     1       2.857   3.474  19.662  0.00  0.00    +0.000 N 
ATOM     13  C   UNL     1       2.546   2.086  19.992  0.00  0.00    +0.000 C 
BRANCH  10  14
ATOM     14  C   UNL     1       2.723   5.954  20.082  0.00  0.00    +0.000 C 
BRANCH  14  15
ATOM     15  O   UNL     1       1.714   6.860  20.498  0.00  0.00    +0.000 OA
BRANCH  15  21
ATOM     16  C   UNL     1       0.161  11.530  20.555  0.00  0.00    +0.000 C 
ATOM     17  C   UNL     1       0.818  10.364  19.864  0.00  0.00    +0.000 A 
ATOM     18  C   UNL     1       1.305  10.539  18.561  0.00  0.00    +0.000 A 
ATOM     19  C   UNL     1       1.933   9.494  17.896  0.00  0.00    +0.000 A 
ATOM     20  C   UNL     1       2.086   8.258  18.522  0.00  0.00    +0.000 A 
ATOM     21  C   UNL     1       1.604   8.049  19.819  0.00  0.00    +0.000 A 
ATOM     22  C   UNL     1       0.958   9.105  20.499  0.00  0.00    +0.000 A 
ATOM     23  C   UNL     1       0.413   8.911  21.894  0.00  0.00    +0.000 C 
ENDBRANCH  15  21
ENDBRANCH  14  15
ENDBRANCH  10  14
ENDBRANCH   1  12
BRANCH   2  24
ATOM     24  N   UNL     1       5.586   3.947  19.755  0.00  0.00    +0.000 N 
ATOM     25  H   UNL     1       6.439   4.506  19.728  0.00  0.00    +0.000 HD
ATOM     26  H   UNL     1       4.992   4.226  20.531  0.00  0.00    +0.000 HD
ENDBRANCH   2  24
BRANCH   3  27
ATOM     27  C   UNL     1       7.027   4.496  17.362  0.00  0.00    +0.000 C 
BRANCH  27  28
ATOM     28  C   UNL     1       7.343   5.925  17.737  0.00  0.00    +0.000 A 
ATOM     29  C   UNL     1       8.118   6.211  18.871  0.00  0.00    +0.000 A 
ATOM     30  C   UNL     1       8.542   7.513  19.140  0.00  0.00    +0.000 A 
ATOM     31  C   UNL     1       8.194   8.551  18.283  0.00  0.00    +0.000 A 
ATOM     32  C   UNL     1       7.396   8.292  17.170  0.00  0.00    +0.000 A 
ATOM     33  C   UNL     1       6.969   6.989  16.899  0.00  0.00    +0.000 A 
ENDBRANCH  27  28
ENDBRANCH   3  27
TORSDOF 7
ENDMDL
MODEL 5
REMARK VINA RESULT:      -7.4      2.012      3.459
REMARK  Name = 
REMARK  10 active torsions:
REMARK  status: ('A' for Active; 'I' for Inactive)
REMARK    1  A    between atoms: C_1  and  C_2
REMARK    2  A    between atoms: C_6  and  O_7
REMARK    3  A    between atoms: O_7  and  C_8
REMARK    4  A    between atoms: C_8  and  C_9
REMARK    5  A    between atoms: N_11  and  C_12
REMARK    6  A    between atoms: N_11  and  C_13
REMARK    7  A    between atoms: C_14  and  N_15
REMARK    8  A    between atoms: N_16  and  C_17
REMARK    9  A    between atoms: C_17  and  C_18
REMARK   10  A    between atoms: C_29  and  C_30
REMARK                            x       y       z     vdW  Elec       q    Type
REMARK                         _______ _______ _______ _____ _____    ______ ____
ROOT
ATOM      1  C   UNL     1       3.277   3.497  18.500  0.00  0.00    +0.000 A 
ATOM      2  C   UNL     1       4.633   3.490  18.436  0.00  0.00    +0.000 A 
ATOM      3  N   UNL     1       5.262   3.867  17.254  0.00  0.00    +0.000 N 
ATOM      4  C   UNL     1       4.556   4.225  16.106  0.00  0.00    +0.000 A 
ATOM      5  O   UNL     1       5.080   4.558  15.044  0.00  0.00    +0.000 OA
ATOM      6  N   UNL     1       3.200   4.219  16.203  0.00  0.00    +0.000 N 
ATOM      7  C   UNL     1       2.492   3.989  17.336  0.00  0.00    +0.000 A 
ATOM      8  O   UNL     1       1.278   4.169  17.386  0.00  0.00    +0.000 OA
ATOM      9  H   UNL     1       2.690   4.562  15.401  0.00  0.00    +0.000 HD
ENDROOT
BRANCH   1  12
ATOM     10  C   UNL     1       2.307   4.060  20.680  0.00  0.00    +0.000 C 
ATOM     11  O   UNL     1       1.696   3.724  21.699  0.00  0.00    +0.000 OA
ATOM     12  N   UNL     1       2.602   3.147  19.664  0.00  0.00    +0.000 N 
ATOM     13  C   UNL     1       2.126   1.771  19.762  0.00  0.00    +0.000 C 
BRANCH  10  14
ATOM     14  C   UNL     1       2.838   5.498  20.538  0.00  0.00    +0.000 C 
BRANCH  14  15
ATOM     15  O   UNL     1       1.785   6.444  20.632  0.00  0.00    +0.000 OA
BRANCH  15  21
ATOM     16  C   UNL     1       0.466  11.107  19.776  0.00  0.00    +0.000 C 
ATOM     17  C   UNL     1       1.132   9.824  19.354  0.00  0.00    +0.000 A 
ATOM     18  C   UNL     1       1.759   9.768  18.102  0.00  0.00    +0.000 A 
ATOM     19  C   UNL     1       2.400   8.609  17.684  0.00  0.00    +0.000 A 
ATOM     20  C   UNL     1       2.427   7.487  18.512  0.00  0.00    +0.000 A 
ATOM     21  C   UNL     1       1.805   7.509  19.765  0.00  0.00    +0.000 A 
ATOM     22  C   UNL     1       1.144   8.681  20.194  0.00  0.00    +0.000 A 
ATOM     23  C   UNL     1       0.450   8.736  21.534  0.00  0.00    +0.000 C 
ENDBRANCH  15  21
ENDBRANCH  14  15
ENDBRANCH  10  14
ENDBRANCH   1  12
BRANCH   2  24
ATOM     24  N   UNL     1       5.371   3.150  19.563  0.00  0.00    +0.000 N 
ATOM     25  H   UNL     1       6.302   3.569  19.566  0.00  0.00    +0.000 HD
ATOM     26  H   UNL     1       4.887   3.335  20.438  0.00  0.00    +0.000 HD
ENDBRANCH   2  24
BRANCH   3  27
ATOM     27  C   UNL     1       6.718   3.969  17.193  0.00  0.00    +0.000 C 
BRANCH  27  28
ATOM     28  C   UNL     1       7.291   5.311  17.586  0.00  0.00    +0.000 A 
ATOM     29  C   UNL     1       7.115   6.432  16.762  0.00  0.00    +0.000 A 
ATOM     30  C   UNL     1       7.506   7.703  17.185  0.00  0.00    +0.000 A 
ATOM     31  C   UNL     1       8.086   7.872  18.438  0.00  0.00    +0.000 A 
ATOM     32  C   UNL     1       8.300   6.765  19.257  0.00  0.00    +0.000 A 
ATOM     33  C   UNL     1       7.910   5.491  18.834  0.00  0.00    +0.000 A 
ENDBRANCH  27  28
ENDBRANCH   3  27
TORSDOF 7
ENDMDL
MODEL 6
REMARK VINA RESULT:      -7.3      1.951      3.199
REMARK  Name = 
REMARK  10 active torsions:
REMARK  status: ('A' for Active; 'I' for Inactive)
REMARK    1  A    between atoms: C_1  and  C_2
REMARK    2  A    between atoms: C_6  and  O_7
REMARK    3  A    between atoms: O_7  and  C_8
REMARK    4  A    between atoms: C_8  and  C_9
REMARK    5  A    between atoms: N_11  and  C_12
REMARK    6  A    between atoms: N_11  and  C_13
REMARK    7  A    between atoms: C_14  and  N_15
REMARK    8  A    between atoms: N_16  and  C_17
REMARK    9  A    between atoms: C_17  and  C_18
REMARK   10  A    between atoms: C_29  and  C_30
REMARK                            x       y       z     vdW  Elec       q    Type
REMARK                         _______ _______ _______ _____ _____    ______ ____
ROOT
ATOM      1  C   UNL     1       3.867   3.812  18.497  0.00  0.00    +0.000 A 
ATOM      2  C   UNL     1       5.164   4.192  18.626  0.00  0.00    +0.000 A 
ATOM      3  N   UNL     1       5.982   4.216  17.502  0.00  0.00    +0.000 N 
ATOM      4  C   UNL     1       5.538   3.831  16.238  0.00  0.00    +0.000 A 
ATOM      5  O   UNL     1       6.237   3.834  15.226  0.00  0.00    +0.000 OA
ATOM      6  N   UNL     1       4.236   3.453  16.144  0.00  0.00    +0.000 N 
ATOM      7  C   UNL     1       3.324   3.511  17.146  0.00  0.00    +0.000 A 
ATOM      8  O   UNL     1       2.128   3.317  16.942  0.00  0.00    +0.000 OA
ATOM      9  H   UNL     1       3.889   3.258  15.215  0.00  0.00    +0.000 HD
ENDROOT
BRANCH   1  12
ATOM     10  C   UNL     1       2.122   4.834  19.884  0.00  0.00    +0.000 C 
ATOM     11  O   UNL     1       1.358   4.783  20.852  0.00  0.00    +0.000 OA
ATOM     12  N   UNL     1       3.003   3.791  19.587  0.00  0.00    +0.000 N 
ATOM     13  C   UNL     1       2.988   2.574  20.393  0.00  0.00    +0.000 C 
BRANCH  10  14
ATOM     14  C   UNL     1       2.181   6.101  19.013  0.00  0.00    +0.000 C 
BRANCH  14  15
ATOM     15  O   UNL     1       2.602   7.225  19.771  0.00  0.00    +0.000 OA
BRANCH  15  21
ATOM     16  C   UNL     1      -0.039  11.209  18.602  0.00  0.00    +0.000 C 
ATOM     17  C   UNL     1       0.347  10.115  19.562  0.00  0.00    +0.000 A 
ATOM     18  C   UNL     1      -0.295  10.051  20.806  0.00  0.00    +0.000 A 
ATOM     19  C   UNL     1       0.020   9.046  21.712  0.00  0.00    +0.000 A 
ATOM     20  C   UNL     1       0.980   8.088  21.389  0.00  0.00    +0.000 A 
ATOM     21  C   UNL     1       1.644   8.129  20.158  0.00  0.00    +0.000 A 
ATOM     22  C   UNL     1       1.335   9.152  19.234  0.00  0.00    +0.000 A 
ATOM     23  C   UNL     1       2.041   9.235  17.902  0.00  0.00    +0.000 C 
ENDBRANCH  15  21
ENDBRANCH  14  15
ENDBRANCH  10  14
ENDBRANCH   1  12
BRANCH   2  24
ATOM     24  N   UNL     1       5.640   4.595  19.869  0.00  0.00    +0.000 N 
ATOM     25  H   UNL     1       6.345   3.961  20.245  0.00  0.00    +0.000 HD
ATOM     26  H   UNL     1       5.969   5.557  19.886  0.00  0.00    +0.000 HD
ENDBRANCH   2  24
BRANCH   3  27
ATOM     27  C   UNL     1       7.350   4.722  17.596  0.00  0.00    +0.000 C 
BRANCH  27  28
ATOM     28  C   UNL     1       7.477   6.211  17.818  0.00  0.00    +0.000 A 
ATOM     29  C   UNL     1       8.352   6.716  18.791  0.00  0.00    +0.000 A 
ATOM     30  C   UNL     1       8.589   8.087  18.900  0.00  0.00    +0.000 A 
ATOM     31  C   UNL     1       7.952   8.975  18.040  0.00  0.00    +0.000 A 
ATOM     32  C   UNL     1       7.054   8.495  17.089  0.00  0.00    +0.000 A 
ATOM     33  C   UNL     1       6.814   7.122  16.979  0.00  0.00    +0.000 A 
ENDBRANCH  27  28
ENDBRANCH   3  27
TORSDOF 7
ENDMDL
MODEL 7
REMARK VINA RESULT:      -7.0      8.384     12.164
REMARK  Name = 
REMARK  10 active torsions:
REMARK  status: ('A' for Active; 'I' for Inactive)
REMARK    1  A    between atoms: C_1  and  C_2
REMARK    2  A    between atoms: C_6  and  O_7
REMARK    3  A    between atoms: O_7  and  C_8
REMARK    4  A    between atoms: C_8  and  C_9
REMARK    5  A    between atoms: N_11  and  C_12
REMARK    6  A    between atoms: N_11  and  C_13
REMARK    7  A    between atoms: C_14  and  N_15
REMARK    8  A    between atoms: N_16  and  C_17
REMARK    9  A    between atoms: C_17  and  C_18
REMARK   10  A    between atoms: C_29  and  C_30
REMARK                            x       y       z     vdW  Elec       q    Type
REMARK                         _______ _______ _______ _____ _____    ______ ____
ROOT
ATOM      1  C   UNL     1      -6.155  12.214  19.374  0.00  0.00    +0.000 A 
ATOM      2  C   UNL     1      -5.665  13.160  20.215  0.00  0.00    +0.000 A 
ATOM      3  N   UNL     1      -5.931  13.065  21.576  0.00  0.00    +0.000 N 
ATOM      4  C   UNL     1      -6.715  12.050  22.122  0.00  0.00    +0.000 A 
ATOM      5  O   UNL     1      -6.974  11.940  23.320  0.00  0.00    +0.000 OA
ATOM      6  N   UNL     1      -7.193  11.121  21.253  0.00  0.00    +0.000 N 
ATOM      7  C   UNL     1      -6.893  11.050  19.932  0.00  0.00    +0.000 A 
ATOM      8  O   UNL     1      -7.223  10.085  19.247  0.00  0.00    +0.000 OA
ATOM      9  H   UNL     1      -7.686  10.337  21.657  0.00  0.00    +0.000 HD
ENDROOT
BRANCH   1  12
ATOM     10  C   UNL     1      -4.775  11.670  17.422  0.00  0.00    +0.000 C 
ATOM     11  O   UNL     1      -4.580  11.710  16.204  0.00  0.00    +0.000 OA
ATOM     12  N   UNL     1      -5.901  12.253  18.007  0.00  0.00    +0.000 N 
ATOM     13  C   UNL     1      -6.919  12.875  17.164  0.00  0.00    +0.000 C 
BRANCH  10  14
ATOM     14  C   UNL     1      -3.724  11.034  18.350  0.00  0.00    +0.000 C 
BRANCH  14  15
ATOM     15  O   UNL     1      -2.733  11.978  18.723  0.00  0.00    +0.000 OA
BRANCH  15  21
ATOM     16  C   UNL     1       1.950  13.056  19.783  0.00  0.00    +0.000 C 
ATOM     17  C   UNL     1       0.898  12.118  19.253  0.00  0.00    +0.000 A 
ATOM     18  C   UNL     1       1.289  10.851  18.800  0.00  0.00    +0.000 A 
ATOM     19  C   UNL     1       0.346   9.950  18.321  0.00  0.00    +0.000 A 
ATOM     20  C   UNL     1      -1.003  10.300  18.289  0.00  0.00    +0.000 A 
ATOM     21  C   UNL     1      -1.424  11.560  18.728  0.00  0.00    +0.000 A 
ATOM     22  C   UNL     1      -0.471  12.484  19.210  0.00  0.00    +0.000 A 
ATOM     23  C   UNL     1      -0.888  13.858  19.679  0.00  0.00    +0.000 C 
ENDBRANCH  15  21
ENDBRANCH  14  15
ENDBRANCH  10  14
ENDBRANCH   1  12
BRANCH   2  24
ATOM     24  N   UNL     1      -4.869  14.182  19.709  0.00  0.00    +0.000 N 
ATOM     25  H   UNL     1      -4.490  14.784  20.440  0.00  0.00    +0.000 HD
ATOM     26  H   UNL     1      -4.134  13.855  19.088  0.00  0.00    +0.000 HD
ENDBRANCH   2  24
BRANCH   3  27
ATOM     27  C   UNL     1      -5.327  14.010  22.513  0.00  0.00    +0.000 C 
BRANCH  27  28
ATOM     28  C   UNL     1      -3.882  13.744  22.863  0.00  0.00    +0.000 A 
ATOM     29  C   UNL     1      -3.355  12.446  22.781  0.00  0.00    +0.000 A 
ATOM     30  C   UNL     1      -1.990  12.214  22.954  0.00  0.00    +0.000 A 
ATOM     31  C   UNL     1      -1.131  13.275  23.218  0.00  0.00    +0.000 A 
ATOM     32  C   UNL     1      -1.641  14.567  23.337  0.00  0.00    +0.000 A 
ATOM     33  C   UNL     1      -3.008  14.801  23.165  0.00  0.00    +0.000 A 
ENDBRANCH  27  28
ENDBRANCH   3  27
TORSDOF 7
ENDMDL
MODEL 8
REMARK VINA RESULT:      -6.9      1.318      1.987
REMARK  Name = 
REMARK  10 active torsions:
REMARK  status: ('A' for Active; 'I' for Inactive)
REMARK    1  A    between atoms: C_1  and  C_2
REMARK    2  A    between atoms: C_6  and  O_7
REMARK    3  A    between atoms: O_7  and  C_8
REMARK    4  A    between atoms: C_8  and  C_9
REMARK    5  A    between atoms: N_11  and  C_12
REMARK    6  A    between atoms: N_11  and  C_13
REMARK    7  A    between atoms: C_14  and  N_15
REMARK    8  A    between atoms: N_16  and  C_17
REMARK    9  A    between atoms: C_17  and  C_18
REMARK   10  A    between atoms: C_29  and  C_30
REMARK                            x       y       z     vdW  Elec       q    Type
REMARK                         _______ _______ _______ _____ _____    ______ ____
ROOT
ATOM      1  C   UNL     1       5.132   4.838  18.730  0.00  0.00    +0.000 A 
ATOM      2  C   UNL     1       4.798   5.162  17.455  0.00  0.00    +0.000 A 
ATOM      3  N   UNL     1       5.675   5.928  16.694  0.00  0.00    +0.000 N 
ATOM      4  C   UNL     1       6.881   6.414  17.196  0.00  0.00    +0.000 A 
ATOM      5  O   UNL     1       7.676   7.098  16.553  0.00  0.00    +0.000 OA
ATOM      6  N   UNL     1       7.184   6.074  18.477  0.00  0.00    +0.000 N 
ATOM      7  C   UNL     1       6.464   5.234  19.261  0.00  0.00    +0.000 A 
ATOM      8  O   UNL     1       6.889   4.839  20.344  0.00  0.00    +0.000 OA
ATOM      9  H   UNL     1       8.097   6.350  18.813  0.00  0.00    +0.000 HD
ENDROOT
BRANCH   1  12
ATOM     10  C   UNL     1       3.245   4.586  20.275  0.00  0.00    +0.000 C 
ATOM     11  O   UNL     1       2.514   3.868  20.964  0.00  0.00    +0.000 OA
ATOM     12  N   UNL     1       4.299   4.058  19.525  0.00  0.00    +0.000 N 
ATOM     13  C   UNL     1       4.518   2.615  19.493  0.00  0.00    +0.000 C 
BRANCH  10  14
ATOM     14  C   UNL     1       3.058   6.113  20.287  0.00  0.00    +0.000 C 
BRANCH  14  15
ATOM     15  O   UNL     1       1.907   6.495  19.550  0.00  0.00    +0.000 OA
BRANCH  15  21
ATOM     16  C   UNL     1       0.362  10.977  20.870  0.00  0.00    +0.000 C 
ATOM     17  C   UNL     1       0.996  10.036  19.879  0.00  0.00    +0.000 A 
ATOM     18  C   UNL     1       1.444  10.549  18.654  0.00  0.00    +0.000 A 
ATOM     19  C   UNL     1       2.051   9.718  17.721  0.00  0.00    +0.000 A 
ATOM     20  C   UNL     1       2.222   8.362  17.997  0.00  0.00    +0.000 A 
ATOM     21  C   UNL     1       1.779   7.819  19.209  0.00  0.00    +0.000 A 
ATOM     22  C   UNL     1       1.154   8.656  20.159  0.00  0.00    +0.000 A 
ATOM     23  C   UNL     1       0.651   8.102  21.471  0.00  0.00    +0.000 C 
ENDBRANCH  15  21
ENDBRANCH  14  15
ENDBRANCH  10  14
ENDBRANCH   1  12
BRANCH   2  24
ATOM     24  N   UNL     1       3.608   4.686  16.916  0.00  0.00    +0.000 N 
ATOM     25  H   UNL     1       3.106   4.068  17.553  0.00  0.00    +0.000 HD
ATOM     26  H   UNL     1       2.999   5.420  16.563  0.00  0.00    +0.000 HD
ENDBRANCH   2  24
BRANCH   3  27
ATOM     27  C   UNL     1       5.387   6.200  15.288  0.00  0.00    +0.000 C 
BRANCH  27  28
ATOM     28  C   UNL     1       5.916   5.179  14.308  0.00  0.00    +0.000 A 
ATOM     29  C   UNL     1       5.091   4.150  13.833  0.00  0.00    +0.000 A 
ATOM     30  C   UNL     1       5.522   3.296  12.817  0.00  0.00    +0.000 A 
ATOM     31  C   UNL     1       6.788   3.455  12.263  0.00  0.00    +0.000 A 
ATOM     32  C   UNL     1       7.635   4.451  12.745  0.00  0.00    +0.000 A 
ATOM     33  C   UNL     1       7.205   5.306  13.764  0.00  0.00    +0.000 A 
ENDBRANCH  27  28
ENDBRANCH   3  27
TORSDOF 7
ENDMDL
MODEL 9
REMARK VINA RESULT:      -6.9      1.948      3.151
REMARK  Name = 
REMARK  10 active torsions:
REMARK  status: ('A' for Active; 'I' for Inactive)
REMARK    1  A    between atoms: C_1  and  C_2
REMARK    2  A    between atoms: C_6  and  O_7
REMARK    3  A    between atoms: O_7  and  C_8
REMARK    4  A    between atoms: C_8  and  C_9
REMARK    5  A    between atoms: N_11  and  C_12
REMARK    6  A    between atoms: N_11  and  C_13
REMARK    7  A    between atoms: C_14  and  N_15
REMARK    8  A    between atoms: N_16  and  C_17
REMARK    9  A    between atoms: C_17  and  C_18
REMARK   10  A    between atoms: C_29  and  C_30
REMARK                            x       y       z     vdW  Elec       q    Type
REMARK                         _______ _______ _______ _____ _____    ______ ____
ROOT
ATOM      1  C   UNL     1       3.520   3.852  18.537  0.00  0.00    +0.000 A 
ATOM      2  C   UNL     1       4.876   3.919  18.531  0.00  0.00    +0.000 A 
ATOM      3  N   UNL     1       5.547   4.046  17.319  0.00  0.00    +0.000 N 
ATOM      4  C   UNL     1       4.887   4.073  16.092  0.00  0.00    +0.000 A 
ATOM      5  O   UNL     1       5.450   4.177  15.003  0.00  0.00    +0.000 OA
ATOM      6  N   UNL     1       3.530   4.000  16.132  0.00  0.00    +0.000 N 
ATOM      7  C   UNL     1       2.775   4.000  17.258  0.00  0.00    +0.000 A 
ATOM      8  O   UNL     1       1.551   4.107  17.214  0.00  0.00    +0.000 OA
ATOM      9  H   UNL     1       3.047   4.108  15.251  0.00  0.00    +0.000 HD
ENDROOT
BRANCH   1  12
ATOM     10  C   UNL     1       2.430   4.850  20.492  0.00  0.00    +0.000 C 
ATOM     11  O   UNL     1       1.782   4.727  21.536  0.00  0.00    +0.000 OA
ATOM     12  N   UNL     1       2.802   3.745  19.723  0.00  0.00    +0.000 N 
ATOM     13  C   UNL     1       2.366   2.407  20.112  0.00  0.00    +0.000 C 
BRANCH  10  14
ATOM     14  C   UNL     1       2.920   6.240  20.049  0.00  0.00    +0.000 C 
BRANCH  14  15
ATOM     15  O   UNL     1       1.871   6.986  19.451  0.00  0.00    +0.000 OA
BRANCH  15  21
ATOM     16  C   UNL     1       0.643  11.726  18.966  0.00  0.00    +0.000 C 
ATOM     17  C   UNL     1       0.882  10.503  19.811  0.00  0.00    +0.000 A 
ATOM     18  C   UNL     1       0.681  10.590  21.196  0.00  0.00    +0.000 A 
ATOM     19  C   UNL     1       0.873   9.480  22.008  0.00  0.00    +0.000 A 
ATOM     20  C   UNL     1       1.265   8.264  21.450  0.00  0.00    +0.000 A 
ATOM     21  C   UNL     1       1.480   8.147  20.072  0.00  0.00    +0.000 A 
ATOM     22  C   UNL     1       1.295   9.273  19.240  0.00  0.00    +0.000 A 
ATOM     23  C   UNL     1       1.531   9.187  17.751  0.00  0.00    +0.000 C 
ENDBRANCH  15  21
ENDBRANCH  14  15
ENDBRANCH  10  14
ENDBRANCH   1  12
BRANCH   2  24
ATOM     24  N   UNL     1       5.569   3.907  19.736  0.00  0.00    +0.000 N 
ATOM     25  H   UNL     1       5.239   4.620  20.387  0.00  0.00    +0.000 HD
ATOM     26  H   UNL     1       5.596   2.993  20.181  0.00  0.00    +0.000 HD
ENDBRANCH   2  24
BRANCH   3  27
ATOM     27  C   UNL     1       6.997   4.226  17.295  0.00  0.00    +0.000 C 
BRANCH  27  28
ATOM     28  C   UNL     1       7.482   5.621  17.613  0.00  0.00    +0.000 A 
ATOM     29  C   UNL     1       7.184   6.693  16.759  0.00  0.00    +0.000 A 
ATOM     30  C   UNL     1       7.495   8.005  17.118  0.00  0.00    +0.000 A 
ATOM     31  C   UNL     1       8.115   8.265  18.336  0.00  0.00    +0.000 A 
ATOM     32  C   UNL     1       8.450   7.210  19.182  0.00  0.00    +0.000 A 
ATOM     33  C   UNL     1       8.140   5.895  18.823  0.00  0.00    +0.000 A 
ENDBRANCH  27  28
ENDBRANCH   3  27
TORSDOF 7
ENDMDL
