MODEL 1
REMARK VINA RESULT:      -6.4      0.000      0.000
REMARK  Name = 
REMARK  15 active torsions:
REMARK  status: ('A' for Active; 'I' for Inactive)
REMARK    1  A    between atoms: CD1_1  and  CG_2
REMARK    2  A    between atoms: CG_2  and  CD2_3
REMARK    3  A    between atoms: CG_2  and  CB_4
REMARK    4  A    between atoms: CB_4  and  CA_5
REMARK    5  A    between atoms: CA_5  and  N_6
REMARK    6  A    between atoms: CA_5  and  C_19
REMARK    7  A    between atoms: C_7  and  O_9
REMARK    8  A    between atoms: O_9  and  C_10
REMARK    9  A    between atoms: C_10  and  C_11
REMARK   10  A    between atoms: C_10  and  C_16
REMARK   11  A    between atoms: C_11  and  C_12
REMARK   12  A    between atoms: C_12  and  C_13
REMARK   13  A    between atoms: C_13  and  O_15
REMARK   14  A    between atoms: C_16  and  O_18
REMARK   15  A    between atoms: C_19  and  OXT_21
REMARK                            x       y       z     vdW  Elec       q    Type
REMARK                         _______ _______ _______ _____ _____    ______ ____
ROOT
ATOM      1  N   LEU A   1       3.233   3.123  19.176  0.00  0.00    +0.000 N 
ATOM      2  C   UNK A   0       4.190   3.407  18.240  0.00  0.00    +0.000 C 
ATOM      3  O   UNK A   0       4.194   2.860  17.151  0.00  0.00    +0.000 OA
ATOM      4  H   LEU A   1       2.562   2.452  18.814  0.00  0.00    +0.000 HD
ENDROOT
BRANCH   1   5
ATOM      5  CA  LEU A   1       2.724   4.124  20.141  0.00  0.00    +0.000 C 
BRANCH   5   6
ATOM      6  C   LEU A   1       1.832   3.443  21.196  0.00  0.00    +0.000 C 
ATOM      7  O   LEU A   1       2.183   3.166  22.331  0.00  0.00    +0.000 OA
BRANCH   6   8
ATOM      8  OXT LEU A   1       0.595   3.131  20.737  0.00  0.00    +0.000 OA
ATOM      9  HXT LEU A   1       0.561   3.244  19.763  0.00  0.00    +0.000 HD
ENDBRANCH   6   8
ENDBRANCH   5   6
BRANCH   5  10
ATOM     10  CB  LEU A   1       1.982   5.230  19.365  0.00  0.00    +0.000 C 
BRANCH  10  12
ATOM     11  CD1 LEU A   1       2.419   7.496  18.243  0.00  0.00    +0.000 C 
ATOM     12  CG  LEU A   1       2.502   6.674  19.530  0.00  0.00    +0.000 C 
ATOM     13  CD2 LEU A   1       1.716   7.391  20.633  0.00  0.00    +0.000 C 
ENDBRANCH  10  12
ENDBRANCH   5  10
ENDBRANCH   1   5
BRANCH   2  14
ATOM     14  O   UNK A   0       5.159   4.223  18.724  0.00  0.00    +0.000 OA
BRANCH  14  15
ATOM     15  C   UNK A   0       6.086   4.730  17.735  0.00  0.00    +0.000 C 
BRANCH  15  16
ATOM     16  C   UNK A   0       7.475   4.782  18.384  0.00  0.00    +0.000 C 
ATOM     17  O   UNK A   0       7.697   5.354  19.437  0.00  0.00    +0.000 OA
BRANCH  16  18
ATOM     18  O   UNK A   0       8.418   4.077  17.728  0.00  0.00    +0.000 OA
ATOM     19  H   UNK A   0       9.035   4.617  17.193  0.00  0.00    +0.000 HD
ENDBRANCH  16  18
ENDBRANCH  15  16
BRANCH  15  20
ATOM     20  C   UNK A   0       5.640   6.119  17.296  0.00  0.00    +0.000 C 
BRANCH  20  21
ATOM     21  C   UNK A   0       5.394   6.210  15.785  0.00  0.00    +0.000 C 
BRANCH  21  22
ATOM     22  C   UNK A   0       6.200   5.187  15.020  0.00  0.00    +0.000 C 
ATOM     23  O   UNK A   0       7.397   5.267  14.800  0.00  0.00    +0.000 OA
BRANCH  22  24
ATOM     24  O   UNK A   0       5.443   4.154  14.594  0.00  0.00    +0.000 OA
ATOM     25  H   UNK A   0       5.431   3.389  15.200  0.00  0.00    +0.000 HD
ENDBRANCH  22  24
ENDBRANCH  21  22
ENDBRANCH  20  21
ENDBRANCH  15  20
ENDBRANCH  14  15
ENDBRANCH   2  14
TORSDOF 13
ENDMDL
MODEL 2
REMARK VINA RESULT:      -6.4      2.573      4.072
REMARK  Name = 
REMARK  15 active torsions:
REMARK  status: ('A' for Active; 'I' for Inactive)
REMARK    1  A    between atoms: CD1_1  and  CG_2
REMARK    2  A    between atoms: CG_2  and  CD2_3
REMARK    3  A    between atoms: CG_2  and  CB_4
REMARK    4  A    between atoms: CB_4  and  CA_5
REMARK    5  A    between atoms: CA_5  and  N_6
REMARK    6  A    between atoms: CA_5  and  C_19
REMARK    7  A    between atoms: C_7  and  O_9
REMARK    8  A    between atoms: O_9  and  C_10
REMARK    9  A    between atoms: C_10  and  C_11
REMARK   10  A    between atoms: C_10  and  C_16
REMARK   11  A    between atoms: C_11  and  C_12
REMARK   12  A    between atoms: C_12  and  C_13
REMARK   13  A    between atoms: C_13  and  O_15
REMARK   14  A    between atoms: C_16  and  O_18
REMARK   15  A    between atoms: C_19  and  OXT_21
REMARK                            x       y       z     vdW  Elec       q    Type
REMARK                         _______ _______ _______ _____ _____    ______ ____
ROOT
ATOM      1  N   LEU A   1       3.702   5.232  18.007  0.00  0.00    +0.000 N 
ATOM      2  C   UNK A   0       4.474   6.342  17.794  0.00  0.00    +0.000 C 
ATOM      3  O   UNK A   0       4.107   7.238  17.053  0.00  0.00    +0.000 OA
ATOM      4  H   LEU A   1       2.824   5.300  17.501  0.00  0.00    +0.000 HD
ENDROOT
BRANCH   1   5
ATOM      5  CA  LEU A   1       3.678   4.499  19.293  0.00  0.00    +0.000 C 
BRANCH   5   6
ATOM      6  C   LEU A   1       4.451   3.172  19.166  0.00  0.00    +0.000 C 
ATOM      7  O   LEU A   1       5.040   2.619  20.080  0.00  0.00    +0.000 OA
BRANCH   6   8
ATOM      8  OXT LEU A   1       4.458   2.671  17.906  0.00  0.00    +0.000 OA
ATOM      9  HXT LEU A   1       3.748   3.090  17.375  0.00  0.00    +0.000 HD
ENDBRANCH   6   8
ENDBRANCH   5   6
BRANCH   5  10
ATOM     10  CB  LEU A   1       2.212   4.289  19.718  0.00  0.00    +0.000 C 
BRANCH  10  12
ATOM     11  CD1 LEU A   1       1.278   2.659  21.466  0.00  0.00    +0.000 C 
ATOM     12  CG  LEU A   1       1.770   2.843  20.030  0.00  0.00    +0.000 C 
ATOM     13  CD2 LEU A   1       0.663   2.413  19.062  0.00  0.00    +0.000 C 
ENDBRANCH  10  12
ENDBRANCH   5  10
ENDBRANCH   1   5
BRANCH   2  14
ATOM     14  O   UNK A   0       5.696   6.241  18.374  0.00  0.00    +0.000 OA
BRANCH  14  15
ATOM     15  C   UNK A   0       6.817   6.331  17.464  0.00  0.00    +0.000 C 
BRANCH  15  16
ATOM     16  C   UNK A   0       7.370   4.913  17.267  0.00  0.00    +0.000 C 
ATOM     17  O   UNK A   0       7.884   4.538  16.229  0.00  0.00    +0.000 OA
BRANCH  16  18
ATOM     18  O   UNK A   0       7.306   4.137  18.368  0.00  0.00    +0.000 OA
ATOM     19  H   UNK A   0       8.158   3.739  18.638  0.00  0.00    +0.000 HD
ENDBRANCH  16  18
ENDBRANCH  15  16
BRANCH  15  20
ATOM     20  C   UNK A   0       7.876   7.249  18.062  0.00  0.00    +0.000 C 
BRANCH  20  21
ATOM     21  C   UNK A   0       7.798   8.677  17.512  0.00  0.00    +0.000 C 
BRANCH  21  22
ATOM     22  C   UNK A   0       8.613   9.645  18.336  0.00  0.00    +0.000 C 
ATOM     23  O   UNK A   0       8.787  10.820  18.060  0.00  0.00    +0.000 OA
BRANCH  22  24
ATOM     24  O   UNK A   0       9.144   9.063  19.432  0.00  0.00    +0.000 OA
ATOM     25  H   UNK A   0       8.574   8.384  19.842  0.00  0.00    +0.000 HD
ENDBRANCH  22  24
ENDBRANCH  21  22
ENDBRANCH  20  21
ENDBRANCH  15  20
ENDBRANCH  14  15
ENDBRANCH   2  14
TORSDOF 13
ENDMDL
MODEL 3
REMARK VINA RESULT:      -6.3      2.044      2.835
REMARK  Name = 
REMARK  15 active torsions:
REMARK  status: ('A' for Active; 'I' for Inactive)
REMARK    1  A    between atoms: CD1_1  and  CG_2
REMARK    2  A    between atoms: CG_2  and  CD2_3
REMARK    3  A    between atoms: CG_2  and  CB_4
REMARK    4  A    between atoms: CB_4  and  CA_5
REMARK    5  A    between atoms: CA_5  and  N_6
REMARK    6  A    between atoms: CA_5  and  C_19
REMARK    7  A    between atoms: C_7  and  O_9
REMARK    8  A    between atoms: O_9  and  C_10
REMARK    9  A    between atoms: C_10  and  C_11
REMARK   10  A    between atoms: C_10  and  C_16
REMARK   11  A    between atoms: C_11  and  C_12
REMARK   12  A    between atoms: C_12  and  C_13
REMARK   13  A    between atoms: C_13  and  O_15
REMARK   14  A    between atoms: C_16  and  O_18
REMARK   15  A    between atoms: C_19  and  OXT_21
REMARK                            x       y       z     vdW  Elec       q    Type
REMARK                         _______ _______ _______ _____ _____    ______ ____
ROOT
ATOM      1  N   LEU A   1       3.687   4.546  17.700  0.00  0.00    +0.000 N 
ATOM      2  C   UNK A   0       4.403   5.709  17.796  0.00  0.00    +0.000 C 
ATOM      3  O   UNK A   0       4.238   6.622  17.005  0.00  0.00    +0.000 OA
ATOM      4  H   LEU A   1       3.025   4.592  16.931  0.00  0.00    +0.000 HD
ENDROOT
BRANCH   1   5
ATOM      5  CA  LEU A   1       3.292   3.741  18.878  0.00  0.00    +0.000 C 
BRANCH   5   6
ATOM      6  C   LEU A   1       4.021   2.385  18.867  0.00  0.00    +0.000 C 
ATOM      7  O   LEU A   1       3.584   1.364  18.361  0.00  0.00    +0.000 OA
BRANCH   6   8
ATOM      8  OXT LEU A   1       5.210   2.405  19.519  0.00  0.00    +0.000 OA
ATOM      9  HXT LEU A   1       5.452   1.498  19.802  0.00  0.00    +0.000 HD
ENDBRANCH   6   8
ENDBRANCH   5   6
BRANCH   5  10
ATOM     10  CB  LEU A   1       1.759   3.588  18.882  0.00  0.00    +0.000 C 
BRANCH  10  12
ATOM     11  CD1 LEU A   1       1.244   2.847  21.284  0.00  0.00    +0.000 C 
ATOM     12  CG  LEU A   1       1.023   3.905  20.202  0.00  0.00    +0.000 C 
ATOM     13  CD2 LEU A   1       1.471   5.269  20.736  0.00  0.00    +0.000 C 
ENDBRANCH  10  12
ENDBRANCH   5  10
ENDBRANCH   1   5
BRANCH   2  14
ATOM     14  O   UNK A   0       5.367   5.646  18.747  0.00  0.00    +0.000 OA
BRANCH  14  15
ATOM     15  C   UNK A   0       6.676   5.259  18.271  0.00  0.00    +0.000 C 
BRANCH  15  16
ATOM     16  C   UNK A   0       7.717   5.943  19.167  0.00  0.00    +0.000 C 
ATOM     17  O   UNK A   0       8.319   6.950  18.839  0.00  0.00    +0.000 OA
BRANCH  16  18
ATOM     18  O   UNK A   0       7.858   5.376  20.382  0.00  0.00    +0.000 OA
ATOM     19  H   UNK A   0       7.332   4.561  20.517  0.00  0.00    +0.000 HD
ENDBRANCH  16  18
ENDBRANCH  15  16
BRANCH  15  20
ATOM     20  C   UNK A   0       6.834   5.702  16.821  0.00  0.00    +0.000 C 
BRANCH  20  21
ATOM     21  C   UNK A   0       7.202   4.544  15.887  0.00  0.00    +0.000 C 
BRANCH  21  22
ATOM     22  C   UNK A   0       6.581   4.701  14.520  0.00  0.00    +0.000 C 
ATOM     23  O   UNK A   0       5.445   4.365  14.229  0.00  0.00    +0.000 OA
BRANCH  22  24
ATOM     24  O   UNK A   0       7.429   5.263  13.633  0.00  0.00    +0.000 OA
ATOM     25  H   UNK A   0       7.186   5.118  12.699  0.00  0.00    +0.000 HD
ENDBRANCH  22  24
ENDBRANCH  21  22
ENDBRANCH  20  21
ENDBRANCH  15  20
ENDBRANCH  14  15
ENDBRANCH   2  14
TORSDOF 13
ENDMDL
MODEL 4
REMARK VINA RESULT:      -6.2      2.269      3.416
REMARK  Name = 
REMARK  15 active torsions:
REMARK  status: ('A' for Active; 'I' for Inactive)
REMARK    1  A    between atoms: CD1_1  and  CG_2
REMARK    2  A    between atoms: CG_2  and  CD2_3
REMARK    3  A    between atoms: CG_2  and  CB_4
REMARK    4  A    between atoms: CB_4  and  CA_5
REMARK    5  A    between atoms: CA_5  and  N_6
REMARK    6  A    between atoms: CA_5  and  C_19
REMARK    7  A    between atoms: C_7  and  O_9
REMARK    8  A    between atoms: O_9  and  C_10
REMARK    9  A    between atoms: C_10  and  C_11
REMARK   10  A    between atoms: C_10  and  C_16
REMARK   11  A    between atoms: C_11  and  C_12
REMARK   12  A    between atoms: C_12  and  C_13
REMARK   13  A    between atoms: C_13  and  O_15
REMARK   14  A    between atoms: C_16  and  O_18
REMARK   15  A    between atoms: C_19  and  OXT_21
REMARK                            x       y       z     vdW  Elec       q    Type
REMARK                         _______ _______ _______ _____ _____    ______ ____
ROOT
ATOM      1  N   LEU A   1       4.155   5.555  19.618  0.00  0.00    +0.000 N 
ATOM      2  C   UNK A   0       4.920   4.701  18.870  0.00  0.00    +0.000 C 
ATOM      3  O   UNK A   0       5.864   4.104  19.358  0.00  0.00    +0.000 OA
ATOM      4  H   LEU A   1       4.473   5.575  20.582  0.00  0.00    +0.000 HD
ENDROOT
BRANCH   1   5
ATOM      5  CA  LEU A   1       2.707   5.757  19.385  0.00  0.00    +0.000 C 
BRANCH   5   6
ATOM      6  C   LEU A   1       2.397   7.257  19.218  0.00  0.00    +0.000 C 
ATOM      7  O   LEU A   1       2.486   7.873  18.169  0.00  0.00    +0.000 OA
BRANCH   6   8
ATOM      8  OXT LEU A   1       2.041   7.867  20.375  0.00  0.00    +0.000 OA
ATOM      9  HXT LEU A   1       2.269   7.295  21.139  0.00  0.00    +0.000 HD
ENDBRANCH   6   8
ENDBRANCH   5   6
BRANCH   5  10
ATOM     10  CB  LEU A   1       1.924   5.118  20.549  0.00  0.00    +0.000 C 
BRANCH  10  12
ATOM     11  CD1 LEU A   1       1.318   3.338  18.802  0.00  0.00    +0.000 C 
ATOM     12  CG  LEU A   1       1.153   3.816  20.246  0.00  0.00    +0.000 C 
ATOM     13  CD2 LEU A   1       1.609   2.703  21.196  0.00  0.00    +0.000 C 
ENDBRANCH  10  12
ENDBRANCH   5  10
ENDBRANCH   1   5
BRANCH   2  14
ATOM     14  O   UNK A   0       4.589   4.726  17.556  0.00  0.00    +0.000 OA
BRANCH  14  15
ATOM     15  C   UNK A   0       5.703   4.629  16.639  0.00  0.00    +0.000 C 
BRANCH  15  16
ATOM     16  C   UNK A   0       6.284   6.039  16.462  0.00  0.00    +0.000 C 
ATOM     17  O   UNK A   0       7.460   6.301  16.640  0.00  0.00    +0.000 OA
BRANCH  16  18
ATOM     18  O   UNK A   0       5.394   6.951  16.019  0.00  0.00    +0.000 OA
ATOM     19  H   UNK A   0       4.490   6.849  16.379  0.00  0.00    +0.000 HD
ENDBRANCH  16  18
ENDBRANCH  15  16
BRANCH  15  20
ATOM     20  C   UNK A   0       5.211   4.074  15.308  0.00  0.00    +0.000 C 
BRANCH  20  21
ATOM     21  C   UNK A   0       6.325   3.983  14.258  0.00  0.00    +0.000 C 
BRANCH  21  22
ATOM     22  C   UNK A   0       5.804   3.510  12.922  0.00  0.00    +0.000 C 
ATOM     23  O   UNK A   0       4.686   3.739  12.490  0.00  0.00    +0.000 OA
BRANCH  22  24
ATOM     24  O   UNK A   0       6.720   2.792  12.240  0.00  0.00    +0.000 OA
ATOM     25  H   UNK A   0       6.756   2.990  11.285  0.00  0.00    +0.000 HD
ENDBRANCH  22  24
ENDBRANCH  21  22
ENDBRANCH  20  21
ENDBRANCH  15  20
ENDBRANCH  14  15
ENDBRANCH   2  14
TORSDOF 13
ENDMDL
MODEL 5
REMARK VINA RESULT:      -6.2      2.118      6.095
REMARK  Name = 
REMARK  15 active torsions:
REMARK  status: ('A' for Active; 'I' for Inactive)
REMARK    1  A    between atoms: CD1_1  and  CG_2
REMARK    2  A    between atoms: CG_2  and  CD2_3
REMARK    3  A    between atoms: CG_2  and  CB_4
REMARK    4  A    between atoms: CB_4  and  CA_5
REMARK    5  A    between atoms: CA_5  and  N_6
REMARK    6  A    between atoms: CA_5  and  C_19
REMARK    7  A    between atoms: C_7  and  O_9
REMARK    8  A    between atoms: O_9  and  C_10
REMARK    9  A    between atoms: C_10  and  C_11
REMARK   10  A    between atoms: C_10  and  C_16
REMARK   11  A    between atoms: C_11  and  C_12
REMARK   12  A    between atoms: C_12  and  C_13
REMARK   13  A    between atoms: C_13  and  O_15
REMARK   14  A    between atoms: C_16  and  O_18
REMARK   15  A    between atoms: C_19  and  OXT_21
REMARK                            x       y       z     vdW  Elec       q    Type
REMARK                         _______ _______ _______ _____ _____    ______ ____
ROOT
ATOM      1  N   LEU A   1       6.219   4.120  17.741  0.00  0.00    +0.000 N 
ATOM      2  C   UNK A   0       5.259   4.037  18.712  0.00  0.00    +0.000 C 
ATOM      3  O   UNK A   0       5.550   3.808  19.873  0.00  0.00    +0.000 OA
ATOM      4  H   LEU A   1       7.146   3.998  18.137  0.00  0.00    +0.000 HD
ENDROOT
BRANCH   1   5
ATOM      5  CA  LEU A   1       6.106   5.016  16.567  0.00  0.00    +0.000 C 
BRANCH   5   6
ATOM      6  C   LEU A   1       6.166   4.198  15.263  0.00  0.00    +0.000 C 
ATOM      7  O   LEU A   1       6.364   4.668  14.155  0.00  0.00    +0.000 OA
BRANCH   6   8
ATOM      8  OXT LEU A   1       5.935   2.875  15.445  0.00  0.00    +0.000 OA
ATOM      9  HXT LEU A   1       5.757   2.444  14.582  0.00  0.00    +0.000 HD
ENDBRANCH   6   8
ENDBRANCH   5   6
BRANCH   5  10
ATOM     10  CB  LEU A   1       7.217   6.081  16.647  0.00  0.00    +0.000 C 
BRANCH  10  12
ATOM     11  CD1 LEU A   1       8.117   6.333  19.037  0.00  0.00    +0.000 C 
ATOM     12  CG  LEU A   1       7.269   6.948  17.923  0.00  0.00    +0.000 C 
ATOM     13  CD2 LEU A   1       7.814   8.341  17.589  0.00  0.00    +0.000 C 
ENDBRANCH  10  12
ENDBRANCH   5  10
ENDBRANCH   1   5
BRANCH   2  14
ATOM     14  O   UNK A   0       4.003   4.096  18.204  0.00  0.00    +0.000 OA
BRANCH  14  15
ATOM     15  C   UNK A   0       3.031   3.255  18.868  0.00  0.00    +0.000 C 
BRANCH  15  16
ATOM     16  C   UNK A   0       3.004   1.908  18.134  0.00  0.00    +0.000 C 
ATOM     17  O   UNK A   0       3.781   1.002  18.377  0.00  0.00    +0.000 OA
BRANCH  16  18
ATOM     18  O   UNK A   0       1.996   1.782  17.247  0.00  0.00    +0.000 OA
ATOM     19  H   UNK A   0       2.038   2.402  16.491  0.00  0.00    +0.000 HD
ENDBRANCH  16  18
ENDBRANCH  15  16
BRANCH  15  20
ATOM     20  C   UNK A   0       1.666   3.930  18.816  0.00  0.00    +0.000 C 
BRANCH  20  21
ATOM     21  C   UNK A   0       0.964   3.948  20.179  0.00  0.00    +0.000 C 
BRANCH  21  22
ATOM     22  C   UNK A   0       1.944   4.122  21.315  0.00  0.00    +0.000 C 
ATOM     23  O   UNK A   0       2.219   3.262  22.136  0.00  0.00    +0.000 OA
BRANCH  22  24
ATOM     24  O   UNK A   0       2.494   5.354  21.333  0.00  0.00    +0.000 OA
ATOM     25  H   UNK A   0       3.039   5.539  22.121  0.00  0.00    +0.000 HD
ENDBRANCH  22  24
ENDBRANCH  21  22
ENDBRANCH  20  21
ENDBRANCH  15  20
ENDBRANCH  14  15
ENDBRANCH   2  14
TORSDOF 13
ENDMDL
MODEL 6
REMARK VINA RESULT:      -6.2      2.254      3.292
REMARK  Name = 
REMARK  15 active torsions:
REMARK  status: ('A' for Active; 'I' for Inactive)
REMARK    1  A    between atoms: CD1_1  and  CG_2
REMARK    2  A    between atoms: CG_2  and  CD2_3
REMARK    3  A    between atoms: CG_2  and  CB_4
REMARK    4  A    between atoms: CB_4  and  CA_5
REMARK    5  A    between atoms: CA_5  and  N_6
REMARK    6  A    between atoms: CA_5  and  C_19
REMARK    7  A    between atoms: C_7  and  O_9
REMARK    8  A    between atoms: O_9  and  C_10
REMARK    9  A    between atoms: C_10  and  C_11
REMARK   10  A    between atoms: C_10  and  C_16
REMARK   11  A    between atoms: C_11  and  C_12
REMARK   12  A    between atoms: C_12  and  C_13
REMARK   13  A    between atoms: C_13  and  O_15
REMARK   14  A    between atoms: C_16  and  O_18
REMARK   15  A    between atoms: C_19  and  OXT_21
REMARK                            x       y       z     vdW  Elec       q    Type
REMARK                         _______ _______ _______ _____ _____    ______ ____
ROOT
ATOM      1  N   LEU A   1       3.893   5.467  19.494  0.00  0.00    +0.000 N 
ATOM      2  C   UNK A   0       5.167   5.032  19.247  0.00  0.00    +0.000 C 
ATOM      3  O   UNK A   0       5.687   4.169  19.934  0.00  0.00    +0.000 OA
ATOM      4  H   LEU A   1       3.482   4.959  20.271  0.00  0.00    +0.000 HD
ENDROOT
BRANCH   1   5
ATOM      5  CA  LEU A   1       2.972   5.918  18.426  0.00  0.00    +0.000 C 
BRANCH   5   6
ATOM      6  C   LEU A   1       2.489   7.353  18.709  0.00  0.00    +0.000 C 
ATOM      7  O   LEU A   1       1.929   7.710  19.733  0.00  0.00    +0.000 OA
BRANCH   6   8
ATOM      8  OXT LEU A   1       2.708   8.209  17.680  0.00  0.00    +0.000 OA
ATOM      9  HXT LEU A   1       2.603   7.740  16.825  0.00  0.00    +0.000 HD
ENDBRANCH   6   8
ENDBRANCH   5   6
BRANCH   5  10
ATOM     10  CB  LEU A   1       1.809   4.914  18.318  0.00  0.00    +0.000 C 
BRANCH  10  12
ATOM     11  CD1 LEU A   1       0.908   3.761  20.426  0.00  0.00    +0.000 C 
ATOM     12  CG  LEU A   1       1.864   3.673  19.235  0.00  0.00    +0.000 C 
ATOM     13  CD2 LEU A   1       1.544   2.410  18.428  0.00  0.00    +0.000 C 
ENDBRANCH  10  12
ENDBRANCH   5  10
ENDBRANCH   1   5
BRANCH   2  14
ATOM     14  O   UNK A   0       5.783   5.758  18.282  0.00  0.00    +0.000 OA
BRANCH  14  15
ATOM     15  C   UNK A   0       7.220   5.600  18.217  0.00  0.00    +0.000 C 
BRANCH  15  16
ATOM     16  C   UNK A   0       7.826   6.979  17.925  0.00  0.00    +0.000 C 
ATOM     17  O   UNK A   0       7.612   7.595  16.896  0.00  0.00    +0.000 OA
BRANCH  16  18
ATOM     18  O   UNK A   0       8.560   7.485  18.936  0.00  0.00    +0.000 OA
ATOM     19  H   UNK A   0       9.527   7.477  18.784  0.00  0.00    +0.000 HD
ENDBRANCH  16  18
ENDBRANCH  15  16
BRANCH  15  20
ATOM     20  C   UNK A   0       7.565   4.609  17.111  0.00  0.00    +0.000 C 
BRANCH  20  21
ATOM     21  C   UNK A   0       6.423   4.426  16.105  0.00  0.00    +0.000 C 
BRANCH  21  22
ATOM     22  C   UNK A   0       6.903   4.550  14.679  0.00  0.00    +0.000 C 
ATOM     23  O   UNK A   0       7.589   5.465  14.252  0.00  0.00    +0.000 OA
BRANCH  22  24
ATOM     24  O   UNK A   0       6.484   3.526  13.906  0.00  0.00    +0.000 OA
ATOM     25  H   UNK A   0       5.532   3.548  13.692  0.00  0.00    +0.000 HD
ENDBRANCH  22  24
ENDBRANCH  21  22
ENDBRANCH  20  21
ENDBRANCH  15  20
ENDBRANCH  14  15
ENDBRANCH   2  14
TORSDOF 13
ENDMDL
MODEL 7
REMARK VINA RESULT:      -6.2      1.853      6.126
REMARK  Name = 
REMARK  15 active torsions:
REMARK  status: ('A' for Active; 'I' for Inactive)
REMARK    1  A    between atoms: CD1_1  and  CG_2
REMARK    2  A    between atoms: CG_2  and  CD2_3
REMARK    3  A    between atoms: CG_2  and  CB_4
REMARK    4  A    between atoms: CB_4  and  CA_5
REMARK    5  A    between atoms: CA_5  and  N_6
REMARK    6  A    between atoms: CA_5  and  C_19
REMARK    7  A    between atoms: C_7  and  O_9
REMARK    8  A    between atoms: O_9  and  C_10
REMARK    9  A    between atoms: C_10  and  C_11
REMARK   10  A    between atoms: C_10  and  C_16
REMARK   11  A    between atoms: C_11  and  C_12
REMARK   12  A    between atoms: C_12  and  C_13
REMARK   13  A    between atoms: C_13  and  O_15
REMARK   14  A    between atoms: C_16  and  O_18
REMARK   15  A    between atoms: C_19  and  OXT_21
REMARK                            x       y       z     vdW  Elec       q    Type
REMARK                         _______ _______ _______ _____ _____    ______ ____
ROOT
ATOM      1  N   LEU A   1       4.900   4.037  16.374  0.00  0.00    +0.000 N 
ATOM      2  C   UNK A   0       4.321   3.863  17.602  0.00  0.00    +0.000 C 
ATOM      3  O   UNK A   0       3.776   2.815  17.902  0.00  0.00    +0.000 OA
ATOM      4  H   LEU A   1       4.827   3.192  15.816  0.00  0.00    +0.000 HD
ENDROOT
BRANCH   1   5
ATOM      5  CA  LEU A   1       6.099   4.880  16.158  0.00  0.00    +0.000 C 
BRANCH   5   6
ATOM      6  C   LEU A   1       6.678   4.634  14.752  0.00  0.00    +0.000 C 
ATOM      7  O   LEU A   1       6.306   3.756  13.989  0.00  0.00    +0.000 OA
BRANCH   6   8
ATOM      8  OXT LEU A   1       7.693   5.474  14.431  0.00  0.00    +0.000 OA
ATOM      9  HXT LEU A   1       8.509   4.959  14.249  0.00  0.00    +0.000 HD
ENDBRANCH   6   8
ENDBRANCH   5   6
BRANCH   5  10
ATOM     10  CB  LEU A   1       7.119   4.588  17.275  0.00  0.00    +0.000 C 
BRANCH  10  12
ATOM     11  CD1 LEU A   1       7.184   7.143  17.507  0.00  0.00    +0.000 C 
ATOM     12  CG  LEU A   1       7.738   5.804  17.998  0.00  0.00    +0.000 C 
ATOM     13  CD2 LEU A   1       7.507   5.690  19.508  0.00  0.00    +0.000 C 
ENDBRANCH  10  12
ENDBRANCH   5  10
ENDBRANCH   1   5
BRANCH   2  14
ATOM     14  O   UNK A   0       4.311   5.004  18.335  0.00  0.00    +0.000 OA
BRANCH  14  15
ATOM     15  C   UNK A   0       2.998   5.495  18.688  0.00  0.00    +0.000 C 
BRANCH  15  16
ATOM     16  C   UNK A   0       2.952   6.990  18.340  0.00  0.00    +0.000 C 
ATOM     17  O   UNK A   0       3.529   7.467  17.379  0.00  0.00    +0.000 OA
BRANCH  16  18
ATOM     18  O   UNK A   0       2.158   7.721  19.148  0.00  0.00    +0.000 OA
ATOM     19  H   UNK A   0       2.415   8.661  19.232  0.00  0.00    +0.000 HD
ENDBRANCH  16  18
ENDBRANCH  15  16
BRANCH  15  20
ATOM     20  C   UNK A   0       2.765   5.278  20.178  0.00  0.00    +0.000 C 
BRANCH  20  21
ATOM     21  C   UNK A   0       1.635   4.280  20.459  0.00  0.00    +0.000 C 
BRANCH  21  22
ATOM     22  C   UNK A   0       2.126   3.073  21.223  0.00  0.00    +0.000 C 
ATOM     23  O   UNK A   0       1.527   2.540  22.142  0.00  0.00    +0.000 OA
BRANCH  22  24
ATOM     24  O   UNK A   0       3.323   2.637  20.778  0.00  0.00    +0.000 OA
ATOM     25  H   UNK A   0       3.907   2.284  21.476  0.00  0.00    +0.000 HD
ENDBRANCH  22  24
ENDBRANCH  21  22
ENDBRANCH  20  21
ENDBRANCH  15  20
ENDBRANCH  14  15
ENDBRANCH   2  14
TORSDOF 13
ENDMDL
MODEL 8
REMARK VINA RESULT:      -6.2      2.070      3.779
REMARK  Name = 
REMARK  15 active torsions:
REMARK  status: ('A' for Active; 'I' for Inactive)
REMARK    1  A    between atoms: CD1_1  and  CG_2
REMARK    2  A    between atoms: CG_2  and  CD2_3
REMARK    3  A    between atoms: CG_2  and  CB_4
REMARK    4  A    between atoms: CB_4  and  CA_5
REMARK    5  A    between atoms: CA_5  and  N_6
REMARK    6  A    between atoms: CA_5  and  C_19
REMARK    7  A    between atoms: C_7  and  O_9
REMARK    8  A    between atoms: O_9  and  C_10
REMARK    9  A    between atoms: C_10  and  C_11
REMARK   10  A    between atoms: C_10  and  C_16
REMARK   11  A    between atoms: C_11  and  C_12
REMARK   12  A    between atoms: C_12  and  C_13
REMARK   13  A    between atoms: C_13  and  O_15
REMARK   14  A    between atoms: C_16  and  O_18
REMARK   15  A    between atoms: C_19  and  OXT_21
REMARK                            x       y       z     vdW  Elec       q    Type
REMARK                         _______ _______ _______ _____ _____    ______ ____
ROOT
ATOM      1  N   LEU A   1       3.268   4.962  17.887  0.00  0.00    +0.000 N 
ATOM      2  C   UNK A   0       3.932   6.157  17.941  0.00  0.00    +0.000 C 
ATOM      3  O   UNK A   0       3.337   7.218  17.854  0.00  0.00    +0.000 OA
ATOM      4  H   LEU A   1       2.266   5.108  17.801  0.00  0.00    +0.000 HD
ENDROOT
BRANCH   1   5
ATOM      5  CA  LEU A   1       3.707   3.759  18.630  0.00  0.00    +0.000 C 
BRANCH   5   6
ATOM      6  C   LEU A   1       3.176   2.485  17.945  0.00  0.00    +0.000 C 
ATOM      7  O   LEU A   1       3.628   1.364  18.114  0.00  0.00    +0.000 OA
BRANCH   6   8
ATOM      8  OXT LEU A   1       2.158   2.721  17.082  0.00  0.00    +0.000 OA
ATOM      9  HXT LEU A   1       1.312   2.407  17.468  0.00  0.00    +0.000 HD
ENDBRANCH   6   8
ENDBRANCH   5   6
BRANCH   5  10
ATOM     10  CB  LEU A   1       3.239   3.881  20.093  0.00  0.00    +0.000 C 
BRANCH  10  12
ATOM     11  CD1 LEU A   1       1.888   2.649  21.894  0.00  0.00    +0.000 C 
ATOM     12  CG  LEU A   1       1.907   3.196  20.465  0.00  0.00    +0.000 C 
ATOM     13  CD2 LEU A   1       0.745   4.179  20.289  0.00  0.00    +0.000 C 
ENDBRANCH  10  12
ENDBRANCH   5  10
ENDBRANCH   1   5
BRANCH   2  14
ATOM     14  O   UNK A   0       5.278   6.000  17.954  0.00  0.00    +0.000 OA
BRANCH  14  15
ATOM     15  C   UNK A   0       5.945   6.309  16.708  0.00  0.00    +0.000 C 
BRANCH  15  16
ATOM     16  C   UNK A   0       5.864   5.062  15.816  0.00  0.00    +0.000 C 
ATOM     17  O   UNK A   0       5.640   5.113  14.620  0.00  0.00    +0.000 OA
BRANCH  16  18
ATOM     18  O   UNK A   0       6.136   3.907  16.457  0.00  0.00    +0.000 OA
ATOM     19  H   UNK A   0       5.959   3.921  17.419  0.00  0.00    +0.000 HD
ENDBRANCH  16  18
ENDBRANCH  15  16
BRANCH  15  20
ATOM     20  C   UNK A   0       7.396   6.679  16.993  0.00  0.00    +0.000 C 
BRANCH  20  21
ATOM     21  C   UNK A   0       7.691   6.795  18.493  0.00  0.00    +0.000 C 
BRANCH  21  22
ATOM     22  C   UNK A   0       8.011   5.455  19.111  0.00  0.00    +0.000 C 
ATOM     23  O   UNK A   0       8.214   4.429  18.482  0.00  0.00    +0.000 OA
BRANCH  22  24
ATOM     24  O   UNK A   0       8.049   5.508  20.459  0.00  0.00    +0.000 OA
ATOM     25  H   UNK A   0       7.821   4.668  20.900  0.00  0.00    +0.000 HD
ENDBRANCH  22  24
ENDBRANCH  21  22
ENDBRANCH  20  21
ENDBRANCH  15  20
ENDBRANCH  14  15
ENDBRANCH   2  14
TORSDOF 13
ENDMDL
MODEL 9
REMARK VINA RESULT:      -6.2      1.928      2.862
REMARK  Name = 
REMARK  15 active torsions:
REMARK  status: ('A' for Active; 'I' for Inactive)
REMARK    1  A    between atoms: CD1_1  and  CG_2
REMARK    2  A    between atoms: CG_2  and  CD2_3
REMARK    3  A    between atoms: CG_2  and  CB_4
REMARK    4  A    between atoms: CB_4  and  CA_5
REMARK    5  A    between atoms: CA_5  and  N_6
REMARK    6  A    between atoms: CA_5  and  C_19
REMARK    7  A    between atoms: C_7  and  O_9
REMARK    8  A    between atoms: O_9  and  C_10
REMARK    9  A    between atoms: C_10  and  C_11
REMARK   10  A    between atoms: C_10  and  C_16
REMARK   11  A    between atoms: C_11  and  C_12
REMARK   12  A    between atoms: C_12  and  C_13
REMARK   13  A    between atoms: C_13  and  O_15
REMARK   14  A    between atoms: C_16  and  O_18
REMARK   15  A    between atoms: C_19  and  OXT_21
REMARK                            x       y       z     vdW  Elec       q    Type
REMARK                         _______ _______ _______ _____ _____    ______ ____
ROOT
ATOM      1  N   LEU A   1       2.548   4.977  17.816  0.00  0.00    +0.000 N 
ATOM      2  C   UNK A   0       3.189   6.138  18.154  0.00  0.00    +0.000 C 
ATOM      3  O   UNK A   0       2.730   7.227  17.854  0.00  0.00    +0.000 OA
ATOM      4  H   LEU A   1       1.674   5.174  17.337  0.00  0.00    +0.000 HD
ENDROOT
BRANCH   1   5
ATOM      5  CA  LEU A   1       2.593   3.756  18.653  0.00  0.00    +0.000 C 
BRANCH   5   6
ATOM      6  C   LEU A   1       2.969   2.534  17.793  0.00  0.00    +0.000 C 
ATOM      7  O   LEU A   1       2.229   1.998  16.984  0.00  0.00    +0.000 OA
BRANCH   6   8
ATOM      8  OXT LEU A   1       4.215   2.062  18.043  0.00  0.00    +0.000 OA
ATOM      9  HXT LEU A   1       4.192   1.441  18.802  0.00  0.00    +0.000 HD
ENDBRANCH   6   8
ENDBRANCH   5   6
BRANCH   5  10
ATOM     10  CB  LEU A   1       1.233   3.587  19.357  0.00  0.00    +0.000 C 
BRANCH  10  12
ATOM     11  CD1 LEU A   1       1.528   2.476  21.652  0.00  0.00    +0.000 C 
ATOM     12  CG  LEU A   1       1.209   3.764  20.890  0.00  0.00    +0.000 C 
ATOM     13  CD2 LEU A   1       2.203   4.852  21.308  0.00  0.00    +0.000 C 
ENDBRANCH  10  12
ENDBRANCH   5  10
ENDBRANCH   1   5
BRANCH   2  14
ATOM     14  O   UNK A   0       4.407   5.914  18.706  0.00  0.00    +0.000 OA
BRANCH  14  15
ATOM     15  C   UNK A   0       5.403   5.383  17.801  0.00  0.00    +0.000 C 
BRANCH  15  16
ATOM     16  C   UNK A   0       6.651   5.047  18.629  0.00  0.00    +0.000 C 
ATOM     17  O   UNK A   0       6.797   5.402  19.786  0.00  0.00    +0.000 OA
BRANCH  16  18
ATOM     18  O   UNK A   0       7.543   4.262  17.991  0.00  0.00    +0.000 OA
ATOM     19  H   UNK A   0       8.071   3.683  18.577  0.00  0.00    +0.000 HD
ENDBRANCH  16  18
ENDBRANCH  15  16
BRANCH  15  20
ATOM     20  C   UNK A   0       5.722   6.426  16.737  0.00  0.00    +0.000 C 
BRANCH  20  21
ATOM     21  C   UNK A   0       5.453   5.919  15.315  0.00  0.00    +0.000 C 
BRANCH  21  22
ATOM     22  C   UNK A   0       6.545   4.997  14.829  0.00  0.00    +0.000 C 
ATOM     23  O   UNK A   0       7.741   5.205  14.957  0.00  0.00    +0.000 OA
BRANCH  22  24
ATOM     24  O   UNK A   0       6.054   3.897  14.221  0.00  0.00    +0.000 OA
ATOM     25  H   UNK A   0       5.365   3.431  14.731  0.00  0.00    +0.000 HD
ENDBRANCH  22  24
ENDBRANCH  21  22
ENDBRANCH  20  21
ENDBRANCH  15  20
ENDBRANCH  14  15
ENDBRANCH   2  14
TORSDOF 13
ENDMDL
