MODEL 1
REMARK VINA RESULT:      -9.4      0.000      0.000
REMARK  Name = 
REMARK  8 active torsions:
REMARK  status: ('A' for Active; 'I' for Inactive)
REMARK    1  A    between atoms: C_1  and  C_2
REMARK    2  A    between atoms: N_8  and  S_9
REMARK    3  A    between atoms: S_9  and  C_12
REMARK    4  A    between atoms: C_15  and  C_16
REMARK    5  A    between atoms: C_16  and  C_17
REMARK    6  A    between atoms: C_16  and  C_18
REMARK    7  A    between atoms: C_16  and  C_19
REMARK    8  A    between atoms: C_26  and  C_27
REMARK                            x       y       z     vdW  Elec       q    Type
REMARK                         _______ _______ _______ _____ _____    ______ ____
ROOT
ATOM      1  C   UNL     1       2.543   2.360  17.454  0.00  0.00    +0.000 C 
ATOM      2  C   UNL     1       2.406   2.916  18.844  0.00  0.00    +0.000 A 
ATOM      3  C   UNL     1       1.702   2.179  19.807  0.00  0.00    +0.000 A 
ATOM      4  C   UNL     1       1.435   2.724  21.062  0.00  0.00    +0.000 A 
ATOM      5  C   UNL     1       1.836   4.027  21.359  0.00  0.00    +0.000 A 
ATOM      6  C   UNL     1       2.522   4.795  20.408  0.00  0.00    +0.000 A 
ATOM      7  C   UNL     1       2.841   4.213  19.167  0.00  0.00    +0.000 A 
ATOM      8  N   UNL     1       3.555   4.978  18.193  0.00  0.00    +0.000 N 
ATOM      9  C   UNL     1       2.852   6.103  17.587  0.00  0.00    +0.000 C 
ATOM     10  C   UNL     1       2.301   7.192  18.461  0.00  0.00    +0.000 A 
ATOM     11  C   UNL     1       1.702   8.277  17.793  0.00  0.00    +0.000 A 
ATOM     12  C   UNL     1       1.147   9.332  18.501  0.00  0.00    +0.000 A 
ATOM     13  C   UNL     1       1.211   9.301  19.888  0.00  0.00    +0.000 A 
ATOM     14  N   UNL     1       1.787   8.258  20.552  0.00  0.00    +0.000 NA
ATOM     15  C   UNL     1       2.295   7.212  19.855  0.00  0.00    +0.000 A 
ATOM     16  N   UNL     1       2.753   6.166  20.663  0.00  0.00    +0.000 N 
ATOM     17  H   UNL     1       2.578   6.440  21.624  0.00  0.00    +0.000 HD
ENDROOT
BRANCH  13  18
ATOM     18  C   UNL     1       0.604  10.447  20.688  0.00  0.00    +0.000 C 
ATOM     19  F   UNL     1       0.399  10.133  22.004  0.00  0.00    +0.000 F 
ATOM     20  F   UNL     1       1.386  11.562  20.702  0.00  0.00    +0.000 F 
ATOM     21  F   UNL     1      -0.614  10.840  20.218  0.00  0.00    +0.000 F 
ENDBRANCH  13  18
BRANCH   8  22
ATOM     22  S   UNL     1       5.241   4.908  18.156  0.00  0.00    +0.000 S 
ATOM     23  O   UNL     1       5.772   6.228  18.437  0.00  0.00    +0.000 OA
ATOM     24  O   UNL     1       5.658   3.784  18.974  0.00  0.00    +0.000 OA
BRANCH  22  25
ATOM     25  C   UNL     1       5.696   4.515  16.480  0.00  0.00    +0.000 A 
ATOM     26  C   UNL     1       4.803   3.797  15.684  0.00  0.00    +0.000 A 
ATOM     27  C   UNL     1       5.087   3.587  14.330  0.00  0.00    +0.000 A 
ATOM     28  C   UNL     1       6.256   4.094  13.734  0.00  0.00    +0.000 A 
ATOM     29  C   UNL     1       7.126   4.842  14.556  0.00  0.00    +0.000 A 
ATOM     30  C   UNL     1       6.848   5.059  15.914  0.00  0.00    +0.000 A 
BRANCH  28  31
ATOM     31  C   UNL     1       6.589   3.858  12.246  0.00  0.00    +0.000 C 
ATOM     32  C   UNL     1       7.394   2.560  11.999  0.00  0.00    +0.000 C 
ATOM     33  C   UNL     1       5.295   3.761  11.412  0.00  0.00    +0.000 C 
ATOM     34  C   UNL     1       7.439   5.027  11.704  0.00  0.00    +0.000 C 
ENDBRANCH  28  31
ENDBRANCH  22  25
ENDBRANCH   8  22
TORSDOF 4
ENDMDL
MODEL 2
REMARK VINA RESULT:      -9.0      0.742      1.265
REMARK  Name = 
REMARK  8 active torsions:
REMARK  status: ('A' for Active; 'I' for Inactive)
REMARK    1  A    between atoms: C_1  and  C_2
REMARK    2  A    between atoms: N_8  and  S_9
REMARK    3  A    between atoms: S_9  and  C_12
REMARK    4  A    between atoms: C_15  and  C_16
REMARK    5  A    between atoms: C_16  and  C_17
REMARK    6  A    between atoms: C_16  and  C_18
REMARK    7  A    between atoms: C_16  and  C_19
REMARK    8  A    between atoms: C_26  and  C_27
REMARK                            x       y       z     vdW  Elec       q    Type
REMARK                         _______ _______ _______ _____ _____    ______ ____
ROOT
ATOM      1  C   UNL     1       2.252   2.994  17.082  0.00  0.00    +0.000 C 
ATOM      2  C   UNL     1       2.125   3.387  18.528  0.00  0.00    +0.000 A 
ATOM      3  C   UNL     1       1.423   2.548  19.404  0.00  0.00    +0.000 A 
ATOM      4  C   UNL     1       1.165   2.946  20.714  0.00  0.00    +0.000 A 
ATOM      5  C   UNL     1       1.572   4.206  21.155  0.00  0.00    +0.000 A 
ATOM      6  C   UNL     1       2.255   5.075  20.294  0.00  0.00    +0.000 A 
ATOM      7  C   UNL     1       2.566   4.638  18.994  0.00  0.00    +0.000 A 
ATOM      8  N   UNL     1       3.277   5.508  18.109  0.00  0.00    +0.000 N 
ATOM      9  C   UNL     1       2.575   6.696  17.640  0.00  0.00    +0.000 C 
ATOM     10  C   UNL     1       2.032   7.680  18.635  0.00  0.00    +0.000 A 
ATOM     11  C   UNL     1       1.432   8.835  18.098  0.00  0.00    +0.000 A 
ATOM     12  C   UNL     1       0.885   9.804  18.925  0.00  0.00    +0.000 A 
ATOM     13  C   UNL     1       0.955   9.615  20.299  0.00  0.00    +0.000 A 
ATOM     14  N   UNL     1       1.532   8.502  20.837  0.00  0.00    +0.000 NA
ATOM     15  C   UNL     1       2.033   7.540  20.022  0.00  0.00    +0.000 A 
ATOM     16  N   UNL     1       2.492   6.408  20.703  0.00  0.00    +0.000 N 
ATOM     17  H   UNL     1       2.323   6.571  21.690  0.00  0.00    +0.000 HD
ENDROOT
BRANCH  13  18
ATOM     18  C   UNL     1       0.356  10.664  21.228  0.00  0.00    +0.000 C 
ATOM     19  F   UNL     1      -0.932  10.993  20.905  0.00  0.00    +0.000 F 
ATOM     20  F   UNL     1       0.309  10.262  22.529  0.00  0.00    +0.000 F 
ATOM     21  F   UNL     1       1.042  11.842  21.216  0.00  0.00    +0.000 F 
ENDBRANCH  13  18
BRANCH   8  22
ATOM     22  S   UNL     1       4.963   5.438  18.055  0.00  0.00    +0.000 S 
ATOM     23  O   UNL     1       5.494   6.773  18.250  0.00  0.00    +0.000 OA
ATOM     24  O   UNL     1       5.392   4.365  18.933  0.00  0.00    +0.000 OA
BRANCH  22  25
ATOM     25  C   UNL     1       5.397   4.946  16.399  0.00  0.00    +0.000 A 
ATOM     26  C   UNL     1       5.661   3.602  16.137  0.00  0.00    +0.000 A 
ATOM     27  C   UNL     1       5.880   3.176  14.822  0.00  0.00    +0.000 A 
ATOM     28  C   UNL     1       5.830   4.072  13.739  0.00  0.00    +0.000 A 
ATOM     29  C   UNL     1       5.532   5.420  14.031  0.00  0.00    +0.000 A 
ATOM     30  C   UNL     1       5.309   5.855  15.346  0.00  0.00    +0.000 A 
BRANCH  28  31
ATOM     31  C   UNL     1       6.084   3.620  12.286  0.00  0.00    +0.000 C 
ATOM     32  C   UNL     1       4.841   3.761  11.376  0.00  0.00    +0.000 C 
ATOM     33  C   UNL     1       7.214   4.458  11.650  0.00  0.00    +0.000 C 
ATOM     34  C   UNL     1       6.498   2.133  12.259  0.00  0.00    +0.000 C 
ENDBRANCH  28  31
ENDBRANCH  22  25
ENDBRANCH   8  22
TORSDOF 4
ENDMDL
MODEL 3
REMARK VINA RESULT:      -8.9      0.189      1.074
REMARK  Name = 
REMARK  8 active torsions:
REMARK  status: ('A' for Active; 'I' for Inactive)
REMARK    1  A    between atoms: C_1  and  C_2
REMARK    2  A    between atoms: N_8  and  S_9
REMARK    3  A    between atoms: S_9  and  C_12
REMARK    4  A    between atoms: C_15  and  C_16
REMARK    5  A    between atoms: C_16  and  C_17
REMARK    6  A    between atoms: C_16  and  C_18
REMARK    7  A    between atoms: C_16  and  C_19
REMARK    8  A    between atoms: C_26  and  C_27
REMARK                            x       y       z     vdW  Elec       q    Type
REMARK                         _______ _______ _______ _____ _____    ______ ____
ROOT
ATOM      1  C   UNL     1       2.437   2.388  17.452  0.00  0.00    +0.000 C 
ATOM      2  C   UNL     1       2.358   2.927  18.854  0.00  0.00    +0.000 A 
ATOM      3  C   UNL     1       1.698   2.177  19.837  0.00  0.00    +0.000 A 
ATOM      4  C   UNL     1       1.483   2.707  21.108  0.00  0.00    +0.000 A 
ATOM      5  C   UNL     1       1.892   4.008  21.403  0.00  0.00    +0.000 A 
ATOM      6  C   UNL     1       2.534   4.789  20.432  0.00  0.00    +0.000 A 
ATOM      7  C   UNL     1       2.802   4.223  19.173  0.00  0.00    +0.000 A 
ATOM      8  N   UNL     1       3.471   5.002  18.178  0.00  0.00    +0.000 N 
ATOM      9  C   UNL     1       2.739   6.130  17.616  0.00  0.00    +0.000 C 
ATOM     10  C   UNL     1       2.222   7.208  18.524  0.00  0.00    +0.000 A 
ATOM     11  C   UNL     1       1.591   8.297  17.895  0.00  0.00    +0.000 A 
ATOM     12  C   UNL     1       1.064   9.342  18.639  0.00  0.00    +0.000 A 
ATOM     13  C   UNL     1       1.186   9.295  20.021  0.00  0.00    +0.000 A 
ATOM     14  N   UNL     1       1.794   8.248  20.648  0.00  0.00    +0.000 NA
ATOM     15  C   UNL     1       2.275   7.211  19.918  0.00  0.00    +0.000 A 
ATOM     16  N   UNL     1       2.771   6.158  20.693  0.00  0.00    +0.000 N 
ATOM     17  H   UNL     1       2.636   6.421  21.665  0.00  0.00    +0.000 HD
ENDROOT
BRANCH  13  18
ATOM     18  C   UNL     1       0.610  10.430  20.859  0.00  0.00    +0.000 C 
ATOM     19  F   UNL     1       1.354  11.577  20.794  0.00  0.00    +0.000 F 
ATOM     20  F   UNL     1      -0.646  10.795  20.475  0.00  0.00    +0.000 F 
ATOM     21  F   UNL     1       0.531  10.127  22.186  0.00  0.00    +0.000 F 
ENDBRANCH  13  18
BRANCH   8  22
ATOM     22  S   UNL     1       5.154   4.938  18.068  0.00  0.00    +0.000 S 
ATOM     23  O   UNL     1       5.699   6.223  18.465  0.00  0.00    +0.000 OA
ATOM     24  O   UNL     1       5.600   3.736  18.749  0.00  0.00    +0.000 OA
BRANCH  22  25
ATOM     25  C   UNL     1       5.543   4.722  16.344  0.00  0.00    +0.000 A 
ATOM     26  C   UNL     1       6.865   4.858  15.923  0.00  0.00    +0.000 A 
ATOM     27  C   UNL     1       7.210   4.570  14.598  0.00  0.00    +0.000 A 
ATOM     28  C   UNL     1       6.253   4.129  13.666  0.00  0.00    +0.000 A 
ATOM     29  C   UNL     1       4.929   3.972  14.127  0.00  0.00    +0.000 A 
ATOM     30  C   UNL     1       4.574   4.257  15.455  0.00  0.00    +0.000 A 
BRANCH  28  31
ATOM     31  C   UNL     1       6.615   3.821  12.198  0.00  0.00    +0.000 C 
ATOM     32  C   UNL     1       7.480   2.549  12.037  0.00  0.00    +0.000 C 
ATOM     33  C   UNL     1       5.337   3.615  11.359  0.00  0.00    +0.000 C 
ATOM     34  C   UNL     1       7.418   4.993  11.595  0.00  0.00    +0.000 C 
ENDBRANCH  28  31
ENDBRANCH  22  25
ENDBRANCH   8  22
TORSDOF 4
ENDMDL
MODEL 4
REMARK VINA RESULT:      -8.0      4.837      7.820
REMARK  Name = 
REMARK  8 active torsions:
REMARK  status: ('A' for Active; 'I' for Inactive)
REMARK    1  A    between atoms: C_1  and  C_2
REMARK    2  A    between atoms: N_8  and  S_9
REMARK    3  A    between atoms: S_9  and  C_12
REMARK    4  A    between atoms: C_15  and  C_16
REMARK    5  A    between atoms: C_16  and  C_17
REMARK    6  A    between atoms: C_16  and  C_18
REMARK    7  A    between atoms: C_16  and  C_19
REMARK    8  A    between atoms: C_26  and  C_27
REMARK                            x       y       z     vdW  Elec       q    Type
REMARK                         _______ _______ _______ _____ _____    ______ ____
ROOT
ATOM      1  C   UNL     1      -1.118   9.417  17.189  0.00  0.00    +0.000 C 
ATOM      2  C   UNL     1      -2.068  10.292  17.959  0.00  0.00    +0.000 A 
ATOM      3  C   UNL     1      -3.427  10.294  17.612  0.00  0.00    +0.000 A 
ATOM      4  C   UNL     1      -4.309  11.194  18.208  0.00  0.00    +0.000 A 
ATOM      5  C   UNL     1      -3.839  12.129  19.130  0.00  0.00    +0.000 A 
ATOM      6  C   UNL     1      -2.482  12.165  19.478  0.00  0.00    +0.000 A 
ATOM      7  C   UNL     1      -1.612  11.212  18.919  0.00  0.00    +0.000 A 
ATOM      8  N   UNL     1      -0.227  11.226  19.278  0.00  0.00    +0.000 N 
ATOM      9  C   UNL     1       0.567  12.356  18.814  0.00  0.00    +0.000 C 
ATOM     10  C   UNL     1       0.160  13.753  19.186  0.00  0.00    +0.000 A 
ATOM     11  C   UNL     1       1.021  14.782  18.761  0.00  0.00    +0.000 A 
ATOM     12  C   UNL     1       0.735  16.110  19.037  0.00  0.00    +0.000 A 
ATOM     13  C   UNL     1      -0.415  16.401  19.758  0.00  0.00    +0.000 A 
ATOM     14  N   UNL     1      -1.261  15.417  20.178  0.00  0.00    +0.000 NA
ATOM     15  C   UNL     1      -0.995  14.123  19.873  0.00  0.00    +0.000 A 
ATOM     16  N   UNL     1      -1.999  13.233  20.269  0.00  0.00    +0.000 N 
ATOM     17  H   UNL     1      -2.732  13.790  20.698  0.00  0.00    +0.000 HD
ENDROOT
BRANCH  13  18
ATOM     18  C   UNL     1      -0.752  17.854  20.069  0.00  0.00    +0.000 C 
ATOM     19  F   UNL     1       0.356  18.630  20.274  0.00  0.00    +0.000 F 
ATOM     20  F   UNL     1      -1.442  18.470  19.068  0.00  0.00    +0.000 F 
ATOM     21  F   UNL     1      -1.505  17.998  21.197  0.00  0.00    +0.000 F 
ENDBRANCH  13  18
BRANCH   8  22
ATOM     22  S   UNL     1       0.302  10.289  20.579  0.00  0.00    +0.000 S 
ATOM     23  O   UNL     1       1.142  11.106  21.433  0.00  0.00    +0.000 OA
ATOM     24  O   UNL     1      -0.856   9.622  21.147  0.00  0.00    +0.000 OA
BRANCH  22  25
ATOM     25  C   UNL     1       1.341   9.015  19.897  0.00  0.00    +0.000 A 
ATOM     26  C   UNL     1       1.546   7.843  20.625  0.00  0.00    +0.000 A 
ATOM     27  C   UNL     1       2.255   6.780  20.053  0.00  0.00    +0.000 A 
ATOM     28  C   UNL     1       2.767   6.853  18.745  0.00  0.00    +0.000 A 
ATOM     29  C   UNL     1       2.520   8.039  18.022  0.00  0.00    +0.000 A 
ATOM     30  C   UNL     1       1.808   9.109  18.586  0.00  0.00    +0.000 A 
BRANCH  28  31
ATOM     31  C   UNL     1       3.563   5.696  18.108  0.00  0.00    +0.000 C 
ATOM     32  C   UNL     1       2.664   4.551  17.586  0.00  0.00    +0.000 C 
ATOM     33  C   UNL     1       4.394   6.207  16.911  0.00  0.00    +0.000 C 
ATOM     34  C   UNL     1       4.524   5.080  19.147  0.00  0.00    +0.000 C 
ENDBRANCH  28  31
ENDBRANCH  22  25
ENDBRANCH   8  22
TORSDOF 4
ENDMDL
MODEL 5
REMARK VINA RESULT:      -8.0      0.410      1.271
REMARK  Name = 
REMARK  8 active torsions:
REMARK  status: ('A' for Active; 'I' for Inactive)
REMARK    1  A    between atoms: C_1  and  C_2
REMARK    2  A    between atoms: N_8  and  S_9
REMARK    3  A    between atoms: S_9  and  C_12
REMARK    4  A    between atoms: C_15  and  C_16
REMARK    5  A    between atoms: C_16  and  C_17
REMARK    6  A    between atoms: C_16  and  C_18
REMARK    7  A    between atoms: C_16  and  C_19
REMARK    8  A    between atoms: C_26  and  C_27
REMARK                            x       y       z     vdW  Elec       q    Type
REMARK                         _______ _______ _______ _____ _____    ______ ____
ROOT
ATOM      1  C   UNL     1       2.262   2.422  17.544  0.00  0.00    +0.000 C 
ATOM      2  C   UNL     1       2.228   2.966  18.945  0.00  0.00    +0.000 A 
ATOM      3  C   UNL     1       1.595   2.222  19.951  0.00  0.00    +0.000 A 
ATOM      4  C   UNL     1       1.422   2.757  21.227  0.00  0.00    +0.000 A 
ATOM      5  C   UNL     1       1.844   4.057  21.503  0.00  0.00    +0.000 A 
ATOM      6  C   UNL     1       2.459   4.833  20.511  0.00  0.00    +0.000 A 
ATOM      7  C   UNL     1       2.686   4.261  19.246  0.00  0.00    +0.000 A 
ATOM      8  N   UNL     1       3.328   5.034  18.228  0.00  0.00    +0.000 N 
ATOM      9  C   UNL     1       2.583   6.163  17.685  0.00  0.00    +0.000 C 
ATOM     10  C   UNL     1       2.098   7.246  18.604  0.00  0.00    +0.000 A 
ATOM     11  C   UNL     1       1.452   8.335  17.991  0.00  0.00    +0.000 A 
ATOM     12  C   UNL     1       0.952   9.385  18.746  0.00  0.00    +0.000 A 
ATOM     13  C   UNL     1       1.117   9.343  20.124  0.00  0.00    +0.000 A 
ATOM     14  N   UNL     1       1.739   8.295  20.736  0.00  0.00    +0.000 NA
ATOM     15  C   UNL     1       2.194   7.254  19.995  0.00  0.00    +0.000 A 
ATOM     16  N   UNL     1       2.709   6.202  20.759  0.00  0.00    +0.000 N 
ATOM     17  H   UNL     1       2.605   6.468  21.733  0.00  0.00    +0.000 HD
ENDROOT
BRANCH  13  18
ATOM     18  C   UNL     1       0.571  10.483  20.976  0.00  0.00    +0.000 C 
ATOM     19  F   UNL     1      -0.717  10.819  20.659  0.00  0.00    +0.000 F 
ATOM     20  F   UNL     1       0.549  10.194  22.307  0.00  0.00    +0.000 F 
ATOM     21  F   UNL     1       1.286  11.636  20.846  0.00  0.00    +0.000 F 
ENDBRANCH  13  18
BRANCH   8  22
ATOM     22  S   UNL     1       5.006   4.963  18.067  0.00  0.00    +0.000 S 
ATOM     23  O   UNL     1       5.562   6.268  18.374  0.00  0.00    +0.000 OA
ATOM     24  O   UNL     1       5.475   3.800  18.797  0.00  0.00    +0.000 OA
BRANCH  22  25
ATOM     25  C   UNL     1       5.338   4.652  16.346  0.00  0.00    +0.000 A 
ATOM     26  C   UNL     1       5.834   5.686  15.551  0.00  0.00    +0.000 A 
ATOM     27  C   UNL     1       6.219   5.429  14.230  0.00  0.00    +0.000 A 
ATOM     28  C   UNL     1       6.131   4.141  13.673  0.00  0.00    +0.000 A 
ATOM     29  C   UNL     1       5.654   3.109  14.509  0.00  0.00    +0.000 A 
ATOM     30  C   UNL     1       5.267   3.356  15.835  0.00  0.00    +0.000 A 
BRANCH  28  31
ATOM     31  C   UNL     1       6.538   3.846  12.215  0.00  0.00    +0.000 C 
ATOM     32  C   UNL     1       7.403   4.962  11.584  0.00  0.00    +0.000 C 
ATOM     33  C   UNL     1       7.351   2.536  12.136  0.00  0.00    +0.000 C 
ATOM     34  C   UNL     1       5.278   3.698  11.335  0.00  0.00    +0.000 C 
ENDBRANCH  28  31
ENDBRANCH  22  25
ENDBRANCH   8  22
TORSDOF 4
ENDMDL
MODEL 6
REMARK VINA RESULT:      -8.0      4.821      7.850
REMARK  Name = 
REMARK  8 active torsions:
REMARK  status: ('A' for Active; 'I' for Inactive)
REMARK    1  A    between atoms: C_1  and  C_2
REMARK    2  A    between atoms: N_8  and  S_9
REMARK    3  A    between atoms: S_9  and  C_12
REMARK    4  A    between atoms: C_15  and  C_16
REMARK    5  A    between atoms: C_16  and  C_17
REMARK    6  A    between atoms: C_16  and  C_18
REMARK    7  A    between atoms: C_16  and  C_19
REMARK    8  A    between atoms: C_26  and  C_27
REMARK                            x       y       z     vdW  Elec       q    Type
REMARK                         _______ _______ _______ _____ _____    ______ ____
ROOT
ATOM      1  C   UNL     1      -1.488   9.551  17.295  0.00  0.00    +0.000 C 
ATOM      2  C   UNL     1      -2.291  10.521  18.117  0.00  0.00    +0.000 A 
ATOM      3  C   UNL     1      -3.658  10.676  17.846  0.00  0.00    +0.000 A 
ATOM      4  C   UNL     1      -4.401  11.664  18.491  0.00  0.00    +0.000 A 
ATOM      5  C   UNL     1      -3.780  12.534  19.387  0.00  0.00    +0.000 A 
ATOM      6  C   UNL     1      -2.410  12.417  19.660  0.00  0.00    +0.000 A 
ATOM      7  C   UNL     1      -1.683  11.378  19.052  0.00  0.00    +0.000 A 
ATOM      8  N   UNL     1      -0.288  11.235  19.333  0.00  0.00    +0.000 N 
ATOM      9  C   UNL     1       0.600  12.274  18.827  0.00  0.00    +0.000 C 
ATOM     10  C   UNL     1       0.372  13.704  19.223  0.00  0.00    +0.000 A 
ATOM     11  C   UNL     1       1.317  14.634  18.751  0.00  0.00    +0.000 A 
ATOM     12  C   UNL     1       1.197  15.984  19.044  0.00  0.00    +0.000 A 
ATOM     13  C   UNL     1       0.127  16.396  19.828  0.00  0.00    +0.000 A 
ATOM     14  N   UNL     1      -0.798  15.508  20.294  0.00  0.00    +0.000 NA
ATOM     15  C   UNL     1      -0.695  14.195  19.973  0.00  0.00    +0.000 A 
ATOM     16  N   UNL     1      -1.769  13.419  20.423  0.00  0.00    +0.000 N 
ATOM     17  H   UNL     1      -2.410  14.051  20.893  0.00  0.00    +0.000 HD
ENDROOT
BRANCH  13  18
ATOM     18  C   UNL     1      -0.029  17.875  20.160  0.00  0.00    +0.000 C 
ATOM     19  F   UNL     1      -1.121  18.445  19.565  0.00  0.00    +0.000 F 
ATOM     20  F   UNL     1      -0.181  18.111  21.493  0.00  0.00    +0.000 F 
ATOM     21  F   UNL     1       1.034  18.627  19.757  0.00  0.00    +0.000 F 
ENDBRANCH  13  18
BRANCH   8  22
ATOM     22  S   UNL     1       0.204  10.236  20.602  0.00  0.00    +0.000 S 
ATOM     23  O   UNL     1       0.996  11.017  21.533  0.00  0.00    +0.000 OA
ATOM     24  O   UNL     1      -0.963   9.521  21.085  0.00  0.00    +0.000 OA
BRANCH  22  25
ATOM     25  C   UNL     1       1.292   9.017  19.894  0.00  0.00    +0.000 A 
ATOM     26  C   UNL     1       1.571   7.855  20.614  0.00  0.00    +0.000 A 
ATOM     27  C   UNL     1       2.321   6.831  20.025  0.00  0.00    +0.000 A 
ATOM     28  C   UNL     1       2.799   6.931  18.707  0.00  0.00    +0.000 A 
ATOM     29  C   UNL     1       2.476   8.104  17.992  0.00  0.00    +0.000 A 
ATOM     30  C   UNL     1       1.724   9.136  18.573  0.00  0.00    +0.000 A 
BRANCH  28  31
ATOM     31  C   UNL     1       3.639   5.817  18.049  0.00  0.00    +0.000 C 
ATOM     32  C   UNL     1       4.673   5.184  19.009  0.00  0.00    +0.000 C 
ATOM     33  C   UNL     1       2.726   4.679  17.545  0.00  0.00    +0.000 C 
ATOM     34  C   UNL     1       4.425   6.386  16.848  0.00  0.00    +0.000 C 
ENDBRANCH  28  31
ENDBRANCH  22  25
ENDBRANCH   8  22
TORSDOF 4
ENDMDL
MODEL 7
REMARK VINA RESULT:      -7.8      5.581     11.627
REMARK  Name = 
REMARK  8 active torsions:
REMARK  status: ('A' for Active; 'I' for Inactive)
REMARK    1  A    between atoms: C_1  and  C_2
REMARK    2  A    between atoms: N_8  and  S_9
REMARK    3  A    between atoms: S_9  and  C_12
REMARK    4  A    between atoms: C_15  and  C_16
REMARK    5  A    between atoms: C_16  and  C_17
REMARK    6  A    between atoms: C_16  and  C_18
REMARK    7  A    between atoms: C_16  and  C_19
REMARK    8  A    between atoms: C_26  and  C_27
REMARK                            x       y       z     vdW  Elec       q    Type
REMARK                         _______ _______ _______ _____ _____    ______ ____
ROOT
ATOM      1  C   UNL     1      -3.598  12.453  20.471  0.00  0.00    +0.000 C 
ATOM      2  C   UNL     1      -3.055  11.923  19.173  0.00  0.00    +0.000 A 
ATOM      3  C   UNL     1      -3.949  11.563  18.155  0.00  0.00    +0.000 A 
ATOM      4  C   UNL     1      -3.490  10.940  16.996  0.00  0.00    +0.000 A 
ATOM      5  C   UNL     1      -2.136  10.634  16.854  0.00  0.00    +0.000 A 
ATOM      6  C   UNL     1      -1.223  10.962  17.866  0.00  0.00    +0.000 A 
ATOM      7  C   UNL     1      -1.686  11.647  19.003  0.00  0.00    +0.000 A 
ATOM      8  N   UNL     1      -0.764  12.003  20.036  0.00  0.00    +0.000 N 
ATOM      9  C   UNL     1      -0.187  10.914  20.815  0.00  0.00    +0.000 C 
ATOM     10  C   UNL     1       0.570   9.821  20.118  0.00  0.00    +0.000 A 
ATOM     11  C   UNL     1       1.156   8.848  20.949  0.00  0.00    +0.000 A 
ATOM     12  C   UNL     1       1.867   7.786  20.410  0.00  0.00    +0.000 A 
ATOM     13  C   UNL     1       1.999   7.713  19.030  0.00  0.00    +0.000 A 
ATOM     14  N   UNL     1       1.437   8.646  18.210  0.00  0.00    +0.000 NA
ATOM     15  C   UNL     1       0.713   9.663  18.740  0.00  0.00    +0.000 A 
ATOM     16  N   UNL     1       0.103  10.480  17.782  0.00  0.00    +0.000 N 
ATOM     17  H   UNL     1       0.345  10.096  16.874  0.00  0.00    +0.000 HD
ENDROOT
BRANCH  13  18
ATOM     18  C   UNL     1       2.771   6.552  18.415  0.00  0.00    +0.000 C 
ATOM     19  F   UNL     1       3.663   6.949  17.456  0.00  0.00    +0.000 F 
ATOM     20  F   UNL     1       3.510   5.858  19.327  0.00  0.00    +0.000 F 
ATOM     21  F   UNL     1       1.966   5.640  17.802  0.00  0.00    +0.000 F 
ENDBRANCH  13  18
BRANCH   8  22
ATOM     22  S   UNL     1      -0.005  13.510  19.987  0.00  0.00    +0.000 S 
ATOM     23  O   UNL     1       1.426  13.320  20.130  0.00  0.00    +0.000 OA
ATOM     24  O   UNL     1      -0.516  14.229  18.835  0.00  0.00    +0.000 OA
BRANCH  22  25
ATOM     25  C   UNL     1      -0.553  14.401  21.428  0.00  0.00    +0.000 A 
ATOM     26  C   UNL     1      -0.926  15.739  21.299  0.00  0.00    +0.000 A 
ATOM     27  C   UNL     1      -1.478  16.419  22.391  0.00  0.00    +0.000 A 
ATOM     28  C   UNL     1      -1.682  15.785  23.629  0.00  0.00    +0.000 A 
ATOM     29  C   UNL     1      -1.323  14.423  23.722  0.00  0.00    +0.000 A 
ATOM     30  C   UNL     1      -0.771  13.732  22.632  0.00  0.00    +0.000 A 
BRANCH  28  31
ATOM     31  C   UNL     1      -2.275  16.525  24.845  0.00  0.00    +0.000 C 
ATOM     32  C   UNL     1      -3.798  16.308  25.010  0.00  0.00    +0.000 C 
ATOM     33  C   UNL     1      -1.601  16.048  26.150  0.00  0.00    +0.000 C 
ATOM     34  C   UNL     1      -2.048  18.045  24.701  0.00  0.00    +0.000 C 
ENDBRANCH  28  31
ENDBRANCH  22  25
ENDBRANCH   8  22
TORSDOF 4
ENDMDL
MODEL 8
REMARK VINA RESULT:      -7.8      4.345      7.403
REMARK  Name = 
REMARK  8 active torsions:
REMARK  status: ('A' for Active; 'I' for Inactive)
REMARK    1  A    between atoms: C_1  and  C_2
REMARK    2  A    between atoms: N_8  and  S_9
REMARK    3  A    between atoms: S_9  and  C_12
REMARK    4  A    between atoms: C_15  and  C_16
REMARK    5  A    between atoms: C_16  and  C_17
REMARK    6  A    between atoms: C_16  and  C_18
REMARK    7  A    between atoms: C_16  and  C_19
REMARK    8  A    between atoms: C_26  and  C_27
REMARK                            x       y       z     vdW  Elec       q    Type
REMARK                         _______ _______ _______ _____ _____    ______ ____
ROOT
ATOM      1  C   UNL     1      -0.864   9.914  17.676  0.00  0.00    +0.000 C 
ATOM      2  C   UNL     1      -1.564  10.769  18.697  0.00  0.00    +0.000 A 
ATOM      3  C   UNL     1      -2.852  11.247  18.419  0.00  0.00    +0.000 A 
ATOM      4  C   UNL     1      -3.473  12.153  19.277  0.00  0.00    +0.000 A 
ATOM      5  C   UNL     1      -2.800  12.622  20.406  0.00  0.00    +0.000 A 
ATOM      6  C   UNL     1      -1.502  12.178  20.697  0.00  0.00    +0.000 A 
ATOM      7  C   UNL     1      -0.910  11.217  19.859  0.00  0.00    +0.000 A 
ATOM      8  N   UNL     1       0.407  10.742  20.152  0.00  0.00    +0.000 N 
ATOM      9  C   UNL     1       1.504  11.688  19.993  0.00  0.00    +0.000 C 
ATOM     10  C   UNL     1       1.488  12.980  20.758  0.00  0.00    +0.000 A 
ATOM     11  C   UNL     1       2.619  13.804  20.604  0.00  0.00    +0.000 A 
ATOM     12  C   UNL     1       2.704  15.026  21.253  0.00  0.00    +0.000 A 
ATOM     13  C   UNL     1       1.651  15.413  22.071  0.00  0.00    +0.000 A 
ATOM     14  N   UNL     1       0.547  14.628  22.232  0.00  0.00    +0.000 NA
ATOM     15  C   UNL     1       0.454  13.450  21.566  0.00  0.00    +0.000 A 
ATOM     16  N   UNL     1      -0.775  12.803  21.735  0.00  0.00    +0.000 N 
ATOM     17  H   UNL     1      -1.340  13.399  22.332  0.00  0.00    +0.000 HD
ENDROOT
BRANCH  13  18
ATOM     18  C   UNL     1       1.720  16.754  22.791  0.00  0.00    +0.000 C 
ATOM     19  F   UNL     1       3.000  17.152  23.062  0.00  0.00    +0.000 F 
ATOM     20  F   UNL     1       1.171  17.775  22.074  0.00  0.00    +0.000 F 
ATOM     21  F   UNL     1       1.083  16.747  23.996  0.00  0.00    +0.000 F 
ENDBRANCH  13  18
BRANCH   8  22
ATOM     22  S   UNL     1       0.598   9.369  21.116  0.00  0.00    +0.000 S 
ATOM     23  O   UNL     1       1.449   9.702  22.242  0.00  0.00    +0.000 OA
ATOM     24  O   UNL     1      -0.719   8.809  21.360  0.00  0.00    +0.000 OA
BRANCH  22  25
ATOM     25  C   UNL     1       1.485   8.178  20.133  0.00  0.00    +0.000 A 
ATOM     26  C   UNL     1       2.021   8.573  18.908  0.00  0.00    +0.000 A 
ATOM     27  C   UNL     1       2.827   7.689  18.180  0.00  0.00    +0.000 A 
ATOM     28  C   UNL     1       3.126   6.400  18.658  0.00  0.00    +0.000 A 
ATOM     29  C   UNL     1       2.594   6.039  19.914  0.00  0.00    +0.000 A 
ATOM     30  C   UNL     1       1.787   6.919  20.651  0.00  0.00    +0.000 A 
BRANCH  28  31
ATOM     31  C   UNL     1       4.000   5.410  17.861  0.00  0.00    +0.000 C 
ATOM     32  C   UNL     1       4.685   6.053  16.632  0.00  0.00    +0.000 C 
ATOM     33  C   UNL     1       5.116   4.833  18.758  0.00  0.00    +0.000 C 
ATOM     34  C   UNL     1       3.135   4.244  17.338  0.00  0.00    +0.000 C 
ENDBRANCH  28  31
ENDBRANCH  22  25
ENDBRANCH   8  22
TORSDOF 4
ENDMDL
MODEL 9
REMARK VINA RESULT:      -7.8      4.310      7.366
REMARK  Name = 
REMARK  8 active torsions:
REMARK  status: ('A' for Active; 'I' for Inactive)
REMARK    1  A    between atoms: C_1  and  C_2
REMARK    2  A    between atoms: N_8  and  S_9
REMARK    3  A    between atoms: S_9  and  C_12
REMARK    4  A    between atoms: C_15  and  C_16
REMARK    5  A    between atoms: C_16  and  C_17
REMARK    6  A    between atoms: C_16  and  C_18
REMARK    7  A    between atoms: C_16  and  C_19
REMARK    8  A    between atoms: C_26  and  C_27
REMARK                            x       y       z     vdW  Elec       q    Type
REMARK                         _______ _______ _______ _____ _____    ______ ____
ROOT
ATOM      1  C   UNL     1      -0.741   9.665  17.679  0.00  0.00    +0.000 C 
ATOM      2  C   UNL     1      -1.472  10.574  18.629  0.00  0.00    +0.000 A 
ATOM      3  C   UNL     1      -2.745  11.045  18.278  0.00  0.00    +0.000 A 
ATOM      4  C   UNL     1      -3.390  11.997  19.066  0.00  0.00    +0.000 A 
ATOM      5  C   UNL     1      -2.756  12.518  20.194  0.00  0.00    +0.000 A 
ATOM      6  C   UNL     1      -1.474  12.082  20.556  0.00  0.00    +0.000 A 
ATOM      7  C   UNL     1      -0.858  11.076  19.790  0.00  0.00    +0.000 A 
ATOM      8  N   UNL     1       0.443  10.609  20.157  0.00  0.00    +0.000 N 
ATOM      9  C   UNL     1       1.552  11.539  19.992  0.00  0.00    +0.000 C 
ATOM     10  C   UNL     1       1.518  12.868  20.690  0.00  0.00    +0.000 A 
ATOM     11  C   UNL     1       2.660  13.677  20.539  0.00  0.00    +0.000 A 
ATOM     12  C   UNL     1       2.730  14.930  21.128  0.00  0.00    +0.000 A 
ATOM     13  C   UNL     1       1.650  15.363  21.886  0.00  0.00    +0.000 A 
ATOM     14  N   UNL     1       0.535  14.593  22.044  0.00  0.00    +0.000 NA
ATOM     15  C   UNL     1       0.457  13.384  21.434  0.00  0.00    +0.000 A 
ATOM     16  N   UNL     1      -0.782  12.754  21.589  0.00  0.00    +0.000 N 
ATOM     17  H   UNL     1      -1.364  13.382  22.134  0.00  0.00    +0.000 HD
ENDROOT
BRANCH  13  18
ATOM     18  C   UNL     1       1.702  16.738  22.540  0.00  0.00    +0.000 C 
ATOM     19  F   UNL     1       1.656  17.764  21.635  0.00  0.00    +0.000 F 
ATOM     20  F   UNL     1       0.663  16.965  23.392  0.00  0.00    +0.000 F 
ATOM     21  F   UNL     1       2.840  16.945  23.260  0.00  0.00    +0.000 F 
ENDBRANCH  13  18
BRANCH   8  22
ATOM     22  S   UNL     1       0.587   9.285  21.195  0.00  0.00    +0.000 S 
ATOM     23  O   UNL     1       1.367   9.680  22.352  0.00  0.00    +0.000 OA
ATOM     24  O   UNL     1      -0.737   8.723  21.386  0.00  0.00    +0.000 OA
BRANCH  22  25
ATOM     25  C   UNL     1       1.540   8.059  20.324  0.00  0.00    +0.000 A 
ATOM     26  C   UNL     1       1.626   6.769  20.846  0.00  0.00    +0.000 A 
ATOM     27  C   UNL     1       2.264   5.760  20.114  0.00  0.00    +0.000 A 
ATOM     28  C   UNL     1       2.818   6.007  18.846  0.00  0.00    +0.000 A 
ATOM     29  C   UNL     1       2.690   7.314  18.330  0.00  0.00    +0.000 A 
ATOM     30  C   UNL     1       2.051   8.331  19.055  0.00  0.00    +0.000 A 
BRANCH  28  31
ATOM     31  C   UNL     1       3.537   4.909  18.034  0.00  0.00    +0.000 C 
ATOM     32  C   UNL     1       4.396   5.469  16.876  0.00  0.00    +0.000 C 
ATOM     33  C   UNL     1       4.475   4.090  18.946  0.00  0.00    +0.000 C 
ATOM     34  C   UNL     1       2.500   3.952  17.407  0.00  0.00    +0.000 C 
ENDBRANCH  28  31
ENDBRANCH  22  25
ENDBRANCH   8  22
TORSDOF 4
ENDMDL
