MODEL 1
REMARK VINA RESULT:      -8.5      0.000      0.000
REMARK  Name = 
REMARK  0 active torsions:
REMARK  status: ('A' for Active; 'I' for Inactive)
REMARK                            x       y       z     vdW  Elec       q    Type
REMARK                         _______ _______ _______ _____ _____    ______ ____
ROOT
ATOM      1  F   UNL     1       7.667   5.789  18.703  0.00  0.00    +0.000 F 
ATOM      2  C   UNL     1       6.818   5.311  17.787  0.00  0.00    +0.000 A 
ATOM      3  C   UNL     1       6.564   6.025  16.604  0.00  0.00    +0.000 A 
ATOM      4  C   UNL     1       5.696   5.542  15.638  0.00  0.00    +0.000 A 
ATOM      5  C   UNL     1       5.086   4.306  15.839  0.00  0.00    +0.000 A 
ATOM      6  C   UNL     1       4.920   3.950  17.181  0.00  0.00    +0.000 A 
ATOM      7  C   UNL     1       3.838   4.169  18.073  0.00  0.00    +0.000 A 
ATOM      8  C   UNL     1       4.229   3.600  19.267  0.00  0.00    +0.000 A 
ATOM      9  N   UNL     1       5.604   3.595  19.260  0.00  0.00    +0.000 N 
ATOM     10  C   UNL     1       5.932   4.271  18.081  0.00  0.00    +0.000 A 
ATOM     11  C   UNL     1       3.189   3.275  20.255  0.00  0.00    +0.000 A 
ATOM     12  N   UNL     1       3.316   2.586  21.384  0.00  0.00    +0.000 NA
ATOM     13  N   UNL     1       2.025   2.408  21.764  0.00  0.00    +0.000 N 
ATOM     14  C   UNL     1       1.113   3.036  20.962  0.00  0.00    +0.000 A 
ATOM     15  C   UNL     1       1.839   3.612  19.950  0.00  0.00    +0.000 A 
ATOM     16  C   UNL     1       1.403   4.351  18.715  0.00  0.00    +0.000 C 
ATOM     17  C   UNL     1       2.582   4.960  17.936  0.00  0.00    +0.000 C 
ATOM     18  H   UNL     1       6.176   3.518  20.088  0.00  0.00    +0.000 HD
ATOM     19  H   UNL     1       1.841   1.818  22.569  0.00  0.00    +0.000 HD
ENDROOT
TORSDOF 0
ENDMDL
MODEL 2
REMARK VINA RESULT:      -8.4      2.339      4.942
REMARK  Name = 
REMARK  0 active torsions:
REMARK  status: ('A' for Active; 'I' for Inactive)
REMARK                            x       y       z     vdW  Elec       q    Type
REMARK                         _______ _______ _______ _____ _____    ______ ____
ROOT
ATOM      1  F   UNL     1       4.028   0.768  18.571  0.00  0.00    +0.000 F 
ATOM      2  C   UNL     1       3.341   1.912  18.664  0.00  0.00    +0.000 A 
ATOM      3  C   UNL     1       2.138   2.084  17.960  0.00  0.00    +0.000 A 
ATOM      4  C   UNL     1       1.406   3.257  18.050  0.00  0.00    +0.000 A 
ATOM      5  C   UNL     1       1.867   4.276  18.882  0.00  0.00    +0.000 A 
ATOM      6  C   UNL     1       3.253   4.288  19.073  0.00  0.00    +0.000 A 
ATOM      7  C   UNL     1       4.281   4.960  18.363  0.00  0.00    +0.000 A 
ATOM      8  C   UNL     1       5.454   4.604  18.997  0.00  0.00    +0.000 A 
ATOM      9  N   UNL     1       5.211   3.396  19.608  0.00  0.00    +0.000 N 
ATOM     10  C   UNL     1       3.916   3.071  19.194  0.00  0.00    +0.000 A 
ATOM     11  C   UNL     1       6.640   5.449  18.790  0.00  0.00    +0.000 A 
ATOM     12  N   UNL     1       7.810   5.390  19.418  0.00  0.00    +0.000 NA
ATOM     13  N   UNL     1       8.426   6.522  18.993  0.00  0.00    +0.000 N 
ATOM     14  C   UNL     1       7.719   7.230  18.060  0.00  0.00    +0.000 A 
ATOM     15  C   UNL     1       6.531   6.560  17.905  0.00  0.00    +0.000 A 
ATOM     16  C   UNL     1       5.306   6.893  17.101  0.00  0.00    +0.000 C 
ATOM     17  C   UNL     1       4.263   5.761  17.106  0.00  0.00    +0.000 C 
ATOM     18  H   UNL     1       5.931   2.750  19.894  0.00  0.00    +0.000 HD
ATOM     19  H   UNL     1       9.320   6.764  19.408  0.00  0.00    +0.000 HD
ENDROOT
TORSDOF 0
ENDMDL
MODEL 3
REMARK VINA RESULT:      -8.4      1.786      2.022
REMARK  Name = 
REMARK  0 active torsions:
REMARK  status: ('A' for Active; 'I' for Inactive)
REMARK                            x       y       z     vdW  Elec       q    Type
REMARK                         _______ _______ _______ _____ _____    ______ ____
ROOT
ATOM      1  F   UNL     1       8.222   4.086  17.796  0.00  0.00    +0.000 F 
ATOM      2  C   UNL     1       7.319   5.006  17.439  0.00  0.00    +0.000 A 
ATOM      3  C   UNL     1       7.540   6.367  17.703  0.00  0.00    +0.000 A 
ATOM      4  C   UNL     1       6.622   7.337  17.332  0.00  0.00    +0.000 A 
ATOM      5  C   UNL     1       5.468   6.947  16.656  0.00  0.00    +0.000 A 
ATOM      6  C   UNL     1       5.047   5.641  16.928  0.00  0.00    +0.000 A 
ATOM      7  C   UNL     1       4.152   5.139  17.907  0.00  0.00    +0.000 A 
ATOM      8  C   UNL     1       4.120   3.774  17.706  0.00  0.00    +0.000 A 
ATOM      9  N   UNL     1       5.309   3.446  17.099  0.00  0.00    +0.000 N 
ATOM     10  C   UNL     1       6.015   4.652  17.079  0.00  0.00    +0.000 A 
ATOM     11  C   UNL     1       2.984   3.018  18.256  0.00  0.00    +0.000 A 
ATOM     12  N   UNL     1       2.669   1.744  18.047  0.00  0.00    +0.000 NA
ATOM     13  N   UNL     1       1.434   1.654  18.604  0.00  0.00    +0.000 N 
ATOM     14  C   UNL     1       1.014   2.798  19.225  0.00  0.00    +0.000 A 
ATOM     15  C   UNL     1       2.004   3.724  19.010  0.00  0.00    +0.000 A 
ATOM     16  C   UNL     1       2.084   5.185  19.355  0.00  0.00    +0.000 C 
ATOM     17  C   UNL     1       3.465   5.795  19.056  0.00  0.00    +0.000 C 
ATOM     18  H   UNL     1       5.704   2.517  17.089  0.00  0.00    +0.000 HD
ATOM     19  H   UNL     1       0.923   0.785  18.495  0.00  0.00    +0.000 HD
ENDROOT
TORSDOF 0
ENDMDL
MODEL 4
REMARK VINA RESULT:      -8.2      2.372      5.110
REMARK  Name = 
REMARK  0 active torsions:
REMARK  status: ('A' for Active; 'I' for Inactive)
REMARK                            x       y       z     vdW  Elec       q    Type
REMARK                         _______ _______ _______ _____ _____    ______ ____
ROOT
ATOM      1  F   UNL     1       3.562   0.750  18.549  0.00  0.00    +0.000 F 
ATOM      2  C   UNL     1       3.036   1.852  19.095  0.00  0.00    +0.000 A 
ATOM      3  C   UNL     1       1.650   2.075  19.063  0.00  0.00    +0.000 A 
ATOM      4  C   UNL     1       1.083   3.204  19.632  0.00  0.00    +0.000 A 
ATOM      5  C   UNL     1       1.911   4.122  20.274  0.00  0.00    +0.000 A 
ATOM      6  C   UNL     1       3.225   4.153  19.795  0.00  0.00    +0.000 A 
ATOM      7  C   UNL     1       3.825   4.941  18.779  0.00  0.00    +0.000 A 
ATOM      8  C   UNL     1       5.146   4.543  18.741  0.00  0.00    +0.000 A 
ATOM      9  N   UNL     1       5.176   3.261  19.236  0.00  0.00    +0.000 N 
ATOM     10  C   UNL     1       3.829   2.951  19.437  0.00  0.00    +0.000 A 
ATOM     11  C   UNL     1       6.124   5.444  18.112  0.00  0.00    +0.000 A 
ATOM     12  N   UNL     1       7.449   5.341  18.108  0.00  0.00    +0.000 NA
ATOM     13  N   UNL     1       7.832   6.537  17.592  0.00  0.00    +0.000 N 
ATOM     14  C   UNL     1       6.795   7.335  17.195  0.00  0.00    +0.000 A 
ATOM     15  C   UNL     1       5.651   6.655  17.530  0.00  0.00    +0.000 A 
ATOM     16  C   UNL     1       4.203   7.048  17.441  0.00  0.00    +0.000 C 
ATOM     17  C   UNL     1       3.247   5.894  17.789  0.00  0.00    +0.000 C 
ATOM     18  H   UNL     1       5.926   2.606  19.069  0.00  0.00    +0.000 HD
ATOM     19  H   UNL     1       8.824   6.751  17.568  0.00  0.00    +0.000 HD
ENDROOT
TORSDOF 0
ENDMDL
MODEL 5
REMARK VINA RESULT:      -8.2      1.482      1.861
REMARK  Name = 
REMARK  0 active torsions:
REMARK  status: ('A' for Active; 'I' for Inactive)
REMARK                            x       y       z     vdW  Elec       q    Type
REMARK                         _______ _______ _______ _____ _____    ______ ____
ROOT
ATOM      1  F   UNL     1       8.220   5.344  20.034  0.00  0.00    +0.000 F 
ATOM      2  C   UNL     1       7.638   5.684  18.879  0.00  0.00    +0.000 A 
ATOM      3  C   UNL     1       7.719   7.001  18.397  0.00  0.00    +0.000 A 
ATOM      4  C   UNL     1       7.131   7.372  17.198  0.00  0.00    +0.000 A 
ATOM      5  C   UNL     1       6.469   6.404  16.445  0.00  0.00    +0.000 A 
ATOM      6  C   UNL     1       5.946   5.343  17.193  0.00  0.00    +0.000 A 
ATOM      7  C   UNL     1       4.670   5.167  17.787  0.00  0.00    +0.000 A 
ATOM      8  C   UNL     1       4.720   3.930  18.397  0.00  0.00    +0.000 A 
ATOM      9  N   UNL     1       6.047   3.682  18.657  0.00  0.00    +0.000 N 
ATOM     10  C   UNL     1       6.687   4.861  18.267  0.00  0.00    +0.000 A 
ATOM     11  C   UNL     1       3.449   3.267  18.727  0.00  0.00    +0.000 A 
ATOM     12  N   UNL     1       3.260   2.025  19.160  0.00  0.00    +0.000 NA
ATOM     13  N   UNL     1       1.912   1.890  19.079  0.00  0.00    +0.000 N 
ATOM     14  C   UNL     1       1.256   3.028  18.699  0.00  0.00    +0.000 A 
ATOM     15  C   UNL     1       2.235   3.957  18.448  0.00  0.00    +0.000 A 
ATOM     16  C   UNL     1       2.155   5.357  17.907  0.00  0.00    +0.000 C 
ATOM     17  C   UNL     1       3.509   6.089  17.941  0.00  0.00    +0.000 C 
ATOM     18  H   UNL     1       6.377   3.016  19.340  0.00  0.00    +0.000 HD
ATOM     19  H   UNL     1       1.510   0.979  19.272  0.00  0.00    +0.000 HD
ENDROOT
TORSDOF 0
ENDMDL
MODEL 6
REMARK VINA RESULT:      -7.9      2.697      5.462
REMARK  Name = 
REMARK  0 active torsions:
REMARK  status: ('A' for Active; 'I' for Inactive)
REMARK                            x       y       z     vdW  Elec       q    Type
REMARK                         _______ _______ _______ _____ _____    ______ ____
ROOT
ATOM      1  F   UNL     1       0.737   1.757  18.525  0.00  0.00    +0.000 F 
ATOM      2  C   UNL     1       1.394   2.703  19.205  0.00  0.00    +0.000 A 
ATOM      3  C   UNL     1       0.696   3.638  19.986  0.00  0.00    +0.000 A 
ATOM      4  C   UNL     1       1.358   4.620  20.706  0.00  0.00    +0.000 A 
ATOM      5  C   UNL     1       2.750   4.656  20.672  0.00  0.00    +0.000 A 
ATOM      6  C   UNL     1       3.317   4.128  19.508  0.00  0.00    +0.000 A 
ATOM      7  C   UNL     1       3.679   4.752  18.286  0.00  0.00    +0.000 A 
ATOM      8  C   UNL     1       4.192   3.742  17.498  0.00  0.00    +0.000 A 
ATOM      9  N   UNL     1       3.635   2.573  17.960  0.00  0.00    +0.000 N 
ATOM     10  C   UNL     1       2.734   2.999  18.940  0.00  0.00    +0.000 A 
ATOM     11  C   UNL     1       5.041   4.114  16.357  0.00  0.00    +0.000 A 
ATOM     12  N   UNL     1       5.762   3.317  15.575  0.00  0.00    +0.000 NA
ATOM     13  N   UNL     1       6.500   4.202  14.857  0.00  0.00    +0.000 N 
ATOM     14  C   UNL     1       6.198   5.513  15.102  0.00  0.00    +0.000 A 
ATOM     15  C   UNL     1       5.248   5.499  16.092  0.00  0.00    +0.000 A 
ATOM     16  C   UNL     1       4.594   6.619  16.853  0.00  0.00    +0.000 C 
ATOM     17  C   UNL     1       3.459   6.134  17.772  0.00  0.00    +0.000 C 
ATOM     18  H   UNL     1       3.581   1.719  17.424  0.00  0.00    +0.000 HD
ATOM     19  H   UNL     1       7.215   3.836  14.237  0.00  0.00    +0.000 HD
ENDROOT
TORSDOF 0
ENDMDL
MODEL 7
REMARK VINA RESULT:      -7.8      2.715      5.551
REMARK  Name = 
REMARK  0 active torsions:
REMARK  status: ('A' for Active; 'I' for Inactive)
REMARK                            x       y       z     vdW  Elec       q    Type
REMARK                         _______ _______ _______ _____ _____    ______ ____
ROOT
ATOM      1  F   UNL     1       0.227   2.552  18.322  0.00  0.00    +0.000 F 
ATOM      2  C   UNL     1       1.189   2.602  19.249  0.00  0.00    +0.000 A 
ATOM      3  C   UNL     1       0.915   3.080  20.541  0.00  0.00    +0.000 A 
ATOM      4  C   UNL     1       1.895   3.130  21.519  0.00  0.00    +0.000 A 
ATOM      5  C   UNL     1       3.173   2.668  21.215  0.00  0.00    +0.000 A 
ATOM      6  C   UNL     1       3.518   2.757  19.862  0.00  0.00    +0.000 A 
ATOM      7  C   UNL     1       4.162   3.791  19.135  0.00  0.00    +0.000 A 
ATOM      8  C   UNL     1       4.238   3.330  17.836  0.00  0.00    +0.000 A 
ATOM      9  N   UNL     1       3.221   2.416  17.692  0.00  0.00    +0.000 N 
ATOM     10  C   UNL     1       2.540   2.482  18.910  0.00  0.00    +0.000 A 
ATOM     11  C   UNL     1       5.215   3.957  16.933  0.00  0.00    +0.000 A 
ATOM     12  N   UNL     1       5.568   3.571  15.711  0.00  0.00    +0.000 NA
ATOM     13  N   UNL     1       6.641   4.363  15.455  0.00  0.00    +0.000 N 
ATOM     14  C   UNL     1       6.907   5.282  16.432  0.00  0.00    +0.000 A 
ATOM     15  C   UNL     1       5.996   5.041  17.429  0.00  0.00    +0.000 A 
ATOM     16  C   UNL     1       5.839   5.648  18.796  0.00  0.00    +0.000 C 
ATOM     17  C   UNL     1       4.566   5.174  19.519  0.00  0.00    +0.000 C 
ATOM     18  H   UNL     1       2.838   2.130  16.804  0.00  0.00    +0.000 HD
ATOM     19  H   UNL     1       7.162   4.198  14.600  0.00  0.00    +0.000 HD
ENDROOT
TORSDOF 0
ENDMDL
MODEL 8
REMARK VINA RESULT:      -7.7      1.401      1.478
REMARK  Name = 
REMARK  0 active torsions:
REMARK  status: ('A' for Active; 'I' for Inactive)
REMARK                            x       y       z     vdW  Elec       q    Type
REMARK                         _______ _______ _______ _____ _____    ______ ____
ROOT
ATOM      1  F   UNL     1       5.245   7.748  17.427  0.00  0.00    +0.000 F 
ATOM      2  C   UNL     1       5.336   6.478  17.018  0.00  0.00    +0.000 A 
ATOM      3  C   UNL     1       5.303   6.161  15.651  0.00  0.00    +0.000 A 
ATOM      4  C   UNL     1       5.407   4.853  15.205  0.00  0.00    +0.000 A 
ATOM      5  C   UNL     1       5.574   3.835  16.142  0.00  0.00    +0.000 A 
ATOM      6  C   UNL     1       5.043   4.114  17.406  0.00  0.00    +0.000 A 
ATOM      7  C   UNL     1       3.761   3.848  17.952  0.00  0.00    +0.000 A 
ATOM      8  C   UNL     1       3.803   4.346  19.239  0.00  0.00    +0.000 A 
ATOM      9  N   UNL     1       4.767   5.326  19.241  0.00  0.00    +0.000 N 
ATOM     10  C   UNL     1       5.159   5.409  17.902  0.00  0.00    +0.000 A 
ATOM     11  C   UNL     1       2.808   3.858  20.205  0.00  0.00    +0.000 A 
ATOM     12  N   UNL     1       2.763   4.073  21.516  0.00  0.00    +0.000 NA
ATOM     13  N   UNL     1       1.788   3.218  21.918  0.00  0.00    +0.000 N 
ATOM     14  C   UNL     1       1.171   2.550  20.896  0.00  0.00    +0.000 A 
ATOM     15  C   UNL     1       1.820   2.938  19.751  0.00  0.00    +0.000 A 
ATOM     16  C   UNL     1       1.671   2.482  18.326  0.00  0.00    +0.000 C 
ATOM     17  C   UNL     1       2.510   3.315  17.341  0.00  0.00    +0.000 C 
ATOM     18  H   UNL     1       4.830   6.059  19.932  0.00  0.00    +0.000 HD
ATOM     19  H   UNL     1       1.619   3.120  22.914  0.00  0.00    +0.000 HD
ENDROOT
TORSDOF 0
ENDMDL
MODEL 9
REMARK VINA RESULT:      -7.7      2.410      5.286
REMARK  Name = 
REMARK  0 active torsions:
REMARK  status: ('A' for Active; 'I' for Inactive)
REMARK                            x       y       z     vdW  Elec       q    Type
REMARK                         _______ _______ _______ _____ _____    ______ ____
ROOT
ATOM      1  F   UNL     1       2.556   4.434  22.029  0.00  0.00    +0.000 F 
ATOM      2  C   UNL     1       2.076   4.209  20.801  0.00  0.00    +0.000 A 
ATOM      3  C   UNL     1       1.352   3.039  20.518  0.00  0.00    +0.000 A 
ATOM      4  C   UNL     1       0.836   2.792  19.256  0.00  0.00    +0.000 A 
ATOM      5  C   UNL     1       1.022   3.744  18.255  0.00  0.00    +0.000 A 
ATOM      6  C   UNL     1       2.163   4.537  18.412  0.00  0.00    +0.000 A 
ATOM      7  C   UNL     1       3.486   4.367  17.928  0.00  0.00    +0.000 A 
ATOM      8  C   UNL     1       4.187   5.460  18.393  0.00  0.00    +0.000 A 
ATOM      9  N   UNL     1       3.524   5.895  19.516  0.00  0.00    +0.000 N 
ATOM     10  C   UNL     1       2.517   4.942  19.695  0.00  0.00    +0.000 A 
ATOM     11  C   UNL     1       5.451   5.810  17.726  0.00  0.00    +0.000 A 
ATOM     12  N   UNL     1       6.196   6.897  17.897  0.00  0.00    +0.000 NA
ATOM     13  N   UNL     1       7.095   6.796  16.885  0.00  0.00    +0.000 N 
ATOM     14  C   UNL     1       6.989   5.646  16.153  0.00  0.00    +0.000 A 
ATOM     15  C   UNL     1       5.910   4.972  16.669  0.00  0.00    +0.000 A 
ATOM     16  C   UNL     1       5.234   3.703  16.232  0.00  0.00    +0.000 C 
ATOM     17  C   UNL     1       4.145   3.237  17.214  0.00  0.00    +0.000 C 
ATOM     18  H   UNL     1       3.938   6.474  20.232  0.00  0.00    +0.000 HD
ATOM     19  H   UNL     1       7.735   7.569  16.736  0.00  0.00    +0.000 HD
ENDROOT
TORSDOF 0
ENDMDL
