MODEL 1
REMARK VINA RESULT:      -8.6      0.000      0.000
REMARK  Name = 
REMARK  7 active torsions:
REMARK  status: ('A' for Active; 'I' for Inactive)
REMARK    1  A    between atoms: C_1  and  N_2
REMARK    2  A    between atoms: C_4  and  N_5
REMARK    3  A    between atoms: C_6  and  C_8
REMARK    4  A    between atoms: C_14  and  C_15
REMARK    5  A    between atoms: C_25  and  C_26
REMARK    6  A    between atoms: N_28  and  C_29
REMARK    7  A    between atoms: C_29  and  C_30
REMARK                            x       y       z     vdW  Elec       q    Type
REMARK                         _______ _______ _______ _____ _____    ______ ____
ROOT
ATOM      1  N   UNL     1       0.959   9.744  19.207  0.00  0.00    +0.000 N 
ATOM      2  C   UNL     1       1.780   8.963  18.426  0.00  0.00    +0.000 C 
ATOM      3  O   UNL     1       2.204   9.296  17.324  0.00  0.00    +0.000 OA
ATOM      4  H   UNL     1       0.833   9.536  20.186  0.00  0.00    +0.000 HD
ENDROOT
BRANCH   2   5
ATOM      5  C   UNL     1       2.160   7.652  19.013  0.00  0.00    +0.000 A 
ATOM      6  C   UNL     1       1.575   7.179  20.192  0.00  0.00    +0.000 A 
ATOM      7  C   UNL     1       1.919   5.933  20.720  0.00  0.00    +0.000 A 
ATOM      8  C   UNL     1       2.865   5.183  20.010  0.00  0.00    +0.000 A 
ATOM      9  N   UNL     1       3.384   3.940  20.234  0.00  0.00    +0.000 N 
ATOM     10  N   UNL     1       4.281   3.542  19.318  0.00  0.00    +0.000 NA
ATOM     11  C   UNL     1       4.367   4.575  18.462  0.00  0.00    +0.000 A 
ATOM     12  C   UNL     1       3.470   5.623  18.841  0.00  0.00    +0.000 A 
ATOM     13  C   UNL     1       3.101   6.878  18.319  0.00  0.00    +0.000 A 
ATOM     14  H   UNL     1       3.161   3.305  20.991  0.00  0.00    +0.000 HD
BRANCH  11  15
ATOM     15  C   UNL     1       5.283   4.536  17.320  0.00  0.00    +0.000 A 
ATOM     16  C   UNL     1       4.801   4.266  16.038  0.00  0.00    +0.000 A 
ATOM     17  C   UNL     1       5.699   4.248  14.985  0.00  0.00    +0.000 A 
ATOM     18  N   UNL     1       7.023   4.478  15.121  0.00  0.00    +0.000 NA
ATOM     19  C   UNL     1       7.469   4.726  16.369  0.00  0.00    +0.000 A 
ATOM     20  C   UNL     1       6.652   4.758  17.485  0.00  0.00    +0.000 A 
ENDBRANCH  11  15
ENDBRANCH   2   5
BRANCH   1  24
ATOM     21  C   UNL     1      -1.810  12.194  21.579  0.00  0.00    +0.000 C 
ATOM     22  N   UNL     1      -0.553  11.849  20.912  0.00  0.00    +0.000 NA
ATOM     23  C   UNL     1      -0.796  11.434  19.517  0.00  0.00    +0.000 C 
ATOM     24  C   UNL     1       0.492  11.052  18.756  0.00  0.00    +0.000 C 
ATOM     25  C   UNL     1       1.605  12.092  18.921  0.00  0.00    +0.000 C 
ATOM     26  C   UNL     1       1.773  12.523  20.379  0.00  0.00    +0.000 C 
ATOM     27  C   UNL     1       0.447  12.943  21.025  0.00  0.00    +0.000 C 
BRANCH  27  28
ATOM     28  C   UNL     1      -0.031  14.318  20.470  0.00  0.00    +0.000 C 
ATOM     29  O   UNL     1      -1.025  14.461  19.762  0.00  0.00    +0.000 OA
ATOM     30  N   UNL     1       0.779  15.379  20.821  0.00  0.00    +0.000 N 
ATOM     31  H   UNL     1       1.591  15.227  21.402  0.00  0.00    +0.000 HD
BRANCH  30  32
ATOM     32  C   UNL     1       0.516  16.740  20.387  0.00  0.00    +0.000 C 
BRANCH  32  33
ATOM     33  C   UNL     1       1.166  17.023  19.056  0.00  0.00    +0.000 A 
ATOM     34  C   UNL     1       2.372  16.392  18.715  0.00  0.00    +0.000 A 
ATOM     35  C   UNL     1       2.988  16.646  17.489  0.00  0.00    +0.000 A 
ATOM     36  C   UNL     1       2.397  17.521  16.578  0.00  0.00    +0.000 A 
ATOM     37  C   UNL     1       1.190  18.140  16.895  0.00  0.00    +0.000 A 
ATOM     38  C   UNL     1       0.577  17.895  18.129  0.00  0.00    +0.000 A 
ENDBRANCH  32  33
ENDBRANCH  30  32
ENDBRANCH  27  28
ENDBRANCH   1  24
TORSDOF 6
ENDMDL
MODEL 2
REMARK VINA RESULT:      -8.3      3.653      4.986
REMARK  Name = 
REMARK  7 active torsions:
REMARK  status: ('A' for Active; 'I' for Inactive)
REMARK    1  A    between atoms: C_1  and  N_2
REMARK    2  A    between atoms: C_4  and  N_5
REMARK    3  A    between atoms: C_6  and  C_8
REMARK    4  A    between atoms: C_14  and  C_15
REMARK    5  A    between atoms: C_25  and  C_26
REMARK    6  A    between atoms: N_28  and  C_29
REMARK    7  A    between atoms: C_29  and  C_30
REMARK                            x       y       z     vdW  Elec       q    Type
REMARK                         _______ _______ _______ _____ _____    ______ ____
ROOT
ATOM      1  N   UNL     1       1.723   8.027  21.465  0.00  0.00    +0.000 N 
ATOM      2  C   UNL     1       1.992   7.701  20.156  0.00  0.00    +0.000 C 
ATOM      3  O   UNL     1       2.194   8.522  19.267  0.00  0.00    +0.000 OA
ATOM      4  H   UNL     1       1.799   7.333  22.193  0.00  0.00    +0.000 HD
ENDROOT
BRANCH   2   5
ATOM      5  C   UNL     1       2.048   6.245  19.860  0.00  0.00    +0.000 A 
ATOM      6  C   UNL     1       1.113   5.352  20.393  0.00  0.00    +0.000 A 
ATOM      7  C   UNL     1       1.159   3.990  20.086  0.00  0.00    +0.000 A 
ATOM      8  C   UNL     1       2.174   3.569  19.220  0.00  0.00    +0.000 A 
ATOM      9  N   UNL     1       2.472   2.339  18.707  0.00  0.00    +0.000 N 
ATOM     10  N   UNL     1       3.535   2.322  17.889  0.00  0.00    +0.000 NA
ATOM     11  C   UNL     1       3.968   3.596  17.876  0.00  0.00    +0.000 A 
ATOM     12  C   UNL     1       3.123   4.425  18.678  0.00  0.00    +0.000 A 
ATOM     13  C   UNL     1       3.053   5.797  18.991  0.00  0.00    +0.000 A 
ATOM     14  H   UNL     1       1.980   1.468  18.868  0.00  0.00    +0.000 HD
BRANCH  11  15
ATOM     15  C   UNL     1       5.152   3.984  17.107  0.00  0.00    +0.000 A 
ATOM     16  C   UNL     1       6.321   4.378  17.762  0.00  0.00    +0.000 A 
ATOM     17  C   UNL     1       7.421   4.726  16.997  0.00  0.00    +0.000 A 
ATOM     18  N   UNL     1       7.434   4.709  15.647  0.00  0.00    +0.000 NA
ATOM     19  C   UNL     1       6.292   4.335  15.035  0.00  0.00    +0.000 A 
ATOM     20  C   UNL     1       5.140   3.976  15.711  0.00  0.00    +0.000 A 
ENDBRANCH  11  15
ENDBRANCH   2   5
BRANCH   1  24
ATOM     21  C   UNL     1      -1.088  10.864  19.637  0.00  0.00    +0.000 C 
ATOM     22  N   UNL     1      -0.508  10.042  20.701  0.00  0.00    +0.000 NA
ATOM     23  C   UNL     1       0.948  10.260  20.797  0.00  0.00    +0.000 C 
ATOM     24  C   UNL     1       1.623   9.416  21.901  0.00  0.00    +0.000 C 
ATOM     25  C   UNL     1       0.882   9.496  23.240  0.00  0.00    +0.000 C 
ATOM     26  C   UNL     1      -0.628   9.317  23.069  0.00  0.00    +0.000 C 
ATOM     27  C   UNL     1      -1.211  10.242  21.995  0.00  0.00    +0.000 C 
BRANCH  27  28
ATOM     28  C   UNL     1      -1.245  11.719  22.492  0.00  0.00    +0.000 C 
ATOM     29  O   UNL     1      -0.240  12.375  22.754  0.00  0.00    +0.000 OA
ATOM     30  N   UNL     1      -2.518  12.233  22.641  0.00  0.00    +0.000 N 
ATOM     31  H   UNL     1      -3.323  11.666  22.421  0.00  0.00    +0.000 HD
BRANCH  30  32
ATOM     32  C   UNL     1      -2.765  13.584  23.114  0.00  0.00    +0.000 C 
BRANCH  32  33
ATOM     33  C   UNL     1      -4.228  13.800  23.411  0.00  0.00    +0.000 A 
ATOM     34  C   UNL     1      -4.737  15.102  23.518  0.00  0.00    +0.000 A 
ATOM     35  C   UNL     1      -6.088  15.319  23.797  0.00  0.00    +0.000 A 
ATOM     36  C   UNL     1      -6.951  14.236  23.954  0.00  0.00    +0.000 A 
ATOM     37  C   UNL     1      -6.462  12.936  23.832  0.00  0.00    +0.000 A 
ATOM     38  C   UNL     1      -5.107  12.717  23.564  0.00  0.00    +0.000 A 
ENDBRANCH  32  33
ENDBRANCH  30  32
ENDBRANCH  27  28
ENDBRANCH   1  24
TORSDOF 6
ENDMDL
MODEL 3
REMARK VINA RESULT:      -8.2      1.018      1.275
REMARK  Name = 
REMARK  7 active torsions:
REMARK  status: ('A' for Active; 'I' for Inactive)
REMARK    1  A    between atoms: C_1  and  N_2
REMARK    2  A    between atoms: C_4  and  N_5
REMARK    3  A    between atoms: C_6  and  C_8
REMARK    4  A    between atoms: C_14  and  C_15
REMARK    5  A    between atoms: C_25  and  C_26
REMARK    6  A    between atoms: N_28  and  C_29
REMARK    7  A    between atoms: C_29  and  C_30
REMARK                            x       y       z     vdW  Elec       q    Type
REMARK                         _______ _______ _______ _____ _____    ______ ____
ROOT
ATOM      1  N   UNL     1       1.446   9.715  19.625  0.00  0.00    +0.000 N 
ATOM      2  C   UNL     1       1.983   8.875  18.676  0.00  0.00    +0.000 C 
ATOM      3  O   UNL     1       2.258   9.214  17.530  0.00  0.00    +0.000 OA
ATOM      4  H   UNL     1       1.460   9.462  20.601  0.00  0.00    +0.000 HD
ENDROOT
BRANCH   2   5
ATOM      5  C   UNL     1       2.244   7.484  19.131  0.00  0.00    +0.000 A 
ATOM      6  C   UNL     1       1.543   6.918  20.201  0.00  0.00    +0.000 A 
ATOM      7  C   UNL     1       1.776   5.601  20.602  0.00  0.00    +0.000 A 
ATOM      8  C   UNL     1       2.734   4.879  19.880  0.00  0.00    +0.000 A 
ATOM      9  N   UNL     1       3.167   3.589  19.993  0.00  0.00    +0.000 N 
ATOM     10  N   UNL     1       4.110   3.241  19.104  0.00  0.00    +0.000 NA
ATOM     11  C   UNL     1       4.320   4.358  18.384  0.00  0.00    +0.000 A 
ATOM     12  C   UNL     1       3.453   5.410  18.818  0.00  0.00    +0.000 A 
ATOM     13  C   UNL     1       3.195   6.737  18.421  0.00  0.00    +0.000 A 
ATOM     14  H   UNL     1       2.850   2.887  20.651  0.00  0.00    +0.000 HD
BRANCH  11  15
ATOM     15  C   UNL     1       5.320   4.390  17.315  0.00  0.00    +0.000 A 
ATOM     16  C   UNL     1       4.960   4.081  16.002  0.00  0.00    +0.000 A 
ATOM     17  C   UNL     1       5.935   4.134  15.021  0.00  0.00    +0.000 A 
ATOM     18  N   UNL     1       7.221   4.470  15.255  0.00  0.00    +0.000 NA
ATOM     19  C   UNL     1       7.550   4.755  16.531  0.00  0.00    +0.000 A 
ATOM     20  C   UNL     1       6.650   4.722  17.582  0.00  0.00    +0.000 A 
ENDBRANCH  11  15
ENDBRANCH   2   5
BRANCH   1  24
ATOM     21  C   UNL     1      -2.638  11.023  18.677  0.00  0.00    +0.000 C 
ATOM     22  N   UNL     1      -1.393  10.951  19.444  0.00  0.00    +0.000 NA
ATOM     23  C   UNL     1      -0.225  11.173  18.570  0.00  0.00    +0.000 C 
ATOM     24  C   UNL     1       1.124  11.105  19.319  0.00  0.00    +0.000 C 
ATOM     25  C   UNL     1       1.127  11.940  20.604  0.00  0.00    +0.000 C 
ATOM     26  C   UNL     1      -0.132  11.708  21.440  0.00  0.00    +0.000 C 
ATOM     27  C   UNL     1      -1.419  11.859  20.620  0.00  0.00    +0.000 C 
BRANCH  27  28
ATOM     28  C   UNL     1      -1.686  13.356  20.277  0.00  0.00    +0.000 C 
ATOM     29  O   UNL     1      -2.797  13.878  20.319  0.00  0.00    +0.000 OA
ATOM     30  N   UNL     1      -0.560  14.055  19.891  0.00  0.00    +0.000 N 
ATOM     31  H   UNL     1       0.338  13.595  19.863  0.00  0.00    +0.000 HD
BRANCH  30  32
ATOM     32  C   UNL     1      -0.602  15.456  19.510  0.00  0.00    +0.000 C 
BRANCH  32  33
ATOM     33  C   UNL     1       0.665  15.867  18.801  0.00  0.00    +0.000 A 
ATOM     34  C   UNL     1       1.762  14.994  18.761  0.00  0.00    +0.000 A 
ATOM     35  C   UNL     1       2.942  15.360  18.112  0.00  0.00    +0.000 A 
ATOM     36  C   UNL     1       3.034  16.598  17.478  0.00  0.00    +0.000 A 
ATOM     37  C   UNL     1       1.945  17.468  17.492  0.00  0.00    +0.000 A 
ATOM     38  C   UNL     1       0.766  17.106  18.152  0.00  0.00    +0.000 A 
ENDBRANCH  32  33
ENDBRANCH  30  32
ENDBRANCH  27  28
ENDBRANCH   1  24
TORSDOF 6
ENDMDL
MODEL 4
REMARK VINA RESULT:      -8.1      0.992      1.644
REMARK  Name = 
REMARK  7 active torsions:
REMARK  status: ('A' for Active; 'I' for Inactive)
REMARK    1  A    between atoms: C_1  and  N_2
REMARK    2  A    between atoms: C_4  and  N_5
REMARK    3  A    between atoms: C_6  and  C_8
REMARK    4  A    between atoms: C_14  and  C_15
REMARK    5  A    between atoms: C_25  and  C_26
REMARK    6  A    between atoms: N_28  and  C_29
REMARK    7  A    between atoms: C_29  and  C_30
REMARK                            x       y       z     vdW  Elec       q    Type
REMARK                         _______ _______ _______ _____ _____    ______ ____
ROOT
ATOM      1  N   UNL     1       1.374   9.856  19.559  0.00  0.00    +0.000 N 
ATOM      2  C   UNL     1       1.951   9.041  18.612  0.00  0.00    +0.000 C 
ATOM      3  O   UNL     1       2.245   9.403  17.477  0.00  0.00    +0.000 OA
ATOM      4  H   UNL     1       1.371   9.590  20.532  0.00  0.00    +0.000 HD
ENDROOT
BRANCH   2   5
ATOM      5  C   UNL     1       2.233   7.651  19.054  0.00  0.00    +0.000 A 
ATOM      6  C   UNL     1       1.555   7.072  20.131  0.00  0.00    +0.000 A 
ATOM      7  C   UNL     1       1.807   5.755  20.520  0.00  0.00    +0.000 A 
ATOM      8  C   UNL     1       2.760   5.046  19.779  0.00  0.00    +0.000 A 
ATOM      9  N   UNL     1       3.207   3.759  19.877  0.00  0.00    +0.000 N 
ATOM     10  N   UNL     1       4.139   3.426  18.971  0.00  0.00    +0.000 NA
ATOM     11  C   UNL     1       4.327   4.549  18.254  0.00  0.00    +0.000 A 
ATOM     12  C   UNL     1       3.457   5.590  18.708  0.00  0.00    +0.000 A 
ATOM     13  C   UNL     1       3.179   6.917  18.324  0.00  0.00    +0.000 A 
ATOM     14  H   UNL     1       2.908   3.051  20.536  0.00  0.00    +0.000 HD
BRANCH  11  15
ATOM     15  C   UNL     1       5.309   4.598  17.170  0.00  0.00    +0.000 A 
ATOM     16  C   UNL     1       6.504   5.301  17.331  0.00  0.00    +0.000 A 
ATOM     17  C   UNL     1       7.410   5.313  16.284  0.00  0.00    +0.000 A 
ATOM     18  N   UNL     1       7.208   4.682  15.108  0.00  0.00    +0.000 NA
ATOM     19  C   UNL     1       6.043   4.018  14.969  0.00  0.00    +0.000 A 
ATOM     20  C   UNL     1       5.073   3.954  15.953  0.00  0.00    +0.000 A 
ENDBRANCH  11  15
ENDBRANCH   2   5
BRANCH   1  24
ATOM     21  C   UNL     1      -2.757  11.129  18.779  0.00  0.00    +0.000 C 
ATOM     22  N   UNL     1      -1.481  11.068  19.494  0.00  0.00    +0.000 NA
ATOM     23  C   UNL     1      -0.352  11.298  18.572  0.00  0.00    +0.000 C 
ATOM     24  C   UNL     1       1.027  11.243  19.265  0.00  0.00    +0.000 C 
ATOM     25  C   UNL     1       1.077  12.081  20.547  0.00  0.00    +0.000 C 
ATOM     26  C   UNL     1      -0.145  11.840  21.435  0.00  0.00    +0.000 C 
ATOM     27  C   UNL     1      -1.465  11.979  20.668  0.00  0.00    +0.000 C 
BRANCH  27  28
ATOM     28  C   UNL     1      -1.759  13.472  20.334  0.00  0.00    +0.000 C 
ATOM     29  O   UNL     1      -2.887  13.958  20.313  0.00  0.00    +0.000 OA
ATOM     30  N   UNL     1      -0.635  14.214  20.033  0.00  0.00    +0.000 N 
ATOM     31  H   UNL     1       0.278  13.783  20.056  0.00  0.00    +0.000 HD
BRANCH  30  32
ATOM     32  C   UNL     1      -0.698  15.619  19.675  0.00  0.00    +0.000 C 
BRANCH  32  33
ATOM     33  C   UNL     1       0.518  16.037  18.885  0.00  0.00    +0.000 A 
ATOM     34  C   UNL     1       0.502  17.233  18.153  0.00  0.00    +0.000 A 
ATOM     35  C   UNL     1       1.617  17.632  17.413  0.00  0.00    +0.000 A 
ATOM     36  C   UNL     1       2.769  16.848  17.411  0.00  0.00    +0.000 A 
ATOM     37  C   UNL     1       2.806  15.666  18.149  0.00  0.00    +0.000 A 
ATOM     38  C   UNL     1       1.686  15.260  18.881  0.00  0.00    +0.000 A 
ENDBRANCH  32  33
ENDBRANCH  30  32
ENDBRANCH  27  28
ENDBRANCH   1  24
TORSDOF 6
ENDMDL
MODEL 5
REMARK VINA RESULT:      -8.1      0.789      1.352
REMARK  Name = 
REMARK  7 active torsions:
REMARK  status: ('A' for Active; 'I' for Inactive)
REMARK    1  A    between atoms: C_1  and  N_2
REMARK    2  A    between atoms: C_4  and  N_5
REMARK    3  A    between atoms: C_6  and  C_8
REMARK    4  A    between atoms: C_14  and  C_15
REMARK    5  A    between atoms: C_25  and  C_26
REMARK    6  A    between atoms: N_28  and  C_29
REMARK    7  A    between atoms: C_29  and  C_30
REMARK                            x       y       z     vdW  Elec       q    Type
REMARK                         _______ _______ _______ _____ _____    ______ ____
ROOT
ATOM      1  N   UNL     1       0.703   9.796  19.522  0.00  0.00    +0.000 N 
ATOM      2  C   UNL     1       1.544   9.129  18.659  0.00  0.00    +0.000 C 
ATOM      3  O   UNL     1       1.935   9.582  17.589  0.00  0.00    +0.000 OA
ATOM      4  H   UNL     1       0.602   9.492  20.478  0.00  0.00    +0.000 HD
ENDROOT
BRANCH   2   5
ATOM      5  C   UNL     1       1.990   7.787  19.116  0.00  0.00    +0.000 A 
ATOM      6  C   UNL     1       1.407   7.156  20.219  0.00  0.00    +0.000 A 
ATOM      7  C   UNL     1       1.815   5.882  20.622  0.00  0.00    +0.000 A 
ATOM      8  C   UNL     1       2.823   5.271  19.867  0.00  0.00    +0.000 A 
ATOM      9  N   UNL     1       3.413   4.044  19.973  0.00  0.00    +0.000 N 
ATOM     10  N   UNL     1       4.355   3.801  19.049  0.00  0.00    +0.000 NA
ATOM     11  C   UNL     1       4.398   4.925  18.311  0.00  0.00    +0.000 A 
ATOM     12  C   UNL     1       3.428   5.870  18.771  0.00  0.00    +0.000 A 
ATOM     13  C   UNL     1       2.995   7.150  18.374  0.00  0.00    +0.000 A 
ATOM     14  H   UNL     1       3.211   3.319  20.651  0.00  0.00    +0.000 HD
BRANCH  11  15
ATOM     15  C   UNL     1       5.342   5.063  17.200  0.00  0.00    +0.000 A 
ATOM     16  C   UNL     1       6.434   5.928  17.306  0.00  0.00    +0.000 A 
ATOM     17  C   UNL     1       7.308   6.020  16.236  0.00  0.00    +0.000 A 
ATOM     18  N   UNL     1       7.170   5.322  15.089  0.00  0.00    +0.000 NA
ATOM     19  C   UNL     1       6.104   4.501  15.004  0.00  0.00    +0.000 A 
ATOM     20  C   UNL     1       5.172   4.345  16.015  0.00  0.00    +0.000 A 
ENDBRANCH  11  15
ENDBRANCH   2   5
BRANCH   1  24
ATOM     21  C   UNL     1      -2.089  11.909  22.173  0.00  0.00    +0.000 C 
ATOM     22  N   UNL     1      -0.840  11.677  21.446  0.00  0.00    +0.000 NA
ATOM     23  C   UNL     1      -1.108  11.377  20.026  0.00  0.00    +0.000 C 
ATOM     24  C   UNL     1       0.172  11.118  19.202  0.00  0.00    +0.000 C 
ATOM     25  C   UNL     1       1.247  12.185  19.430  0.00  0.00    +0.000 C 
ATOM     26  C   UNL     1       1.441  12.492  20.916  0.00  0.00    +0.000 C 
ATOM     27  C   UNL     1       0.120  12.797  21.631  0.00  0.00    +0.000 C 
BRANCH  27  28
ATOM     28  C   UNL     1      -0.428  14.195  21.214  0.00  0.00    +0.000 C 
ATOM     29  O   UNL     1      -1.118  14.904  21.942  0.00  0.00    +0.000 OA
ATOM     30  N   UNL     1      -0.092  14.571  19.929  0.00  0.00    +0.000 N 
ATOM     31  H   UNL     1       0.474  13.963  19.354  0.00  0.00    +0.000 HD
BRANCH  30  32
ATOM     32  C   UNL     1      -0.523  15.828  19.344  0.00  0.00    +0.000 C 
BRANCH  32  33
ATOM     33  C   UNL     1       0.557  16.424  18.474  0.00  0.00    +0.000 A 
ATOM     34  C   UNL     1       0.280  17.550  17.685  0.00  0.00    +0.000 A 
ATOM     35  C   UNL     1       1.266  18.111  16.871  0.00  0.00    +0.000 A 
ATOM     36  C   UNL     1       2.548  17.564  16.851  0.00  0.00    +0.000 A 
ATOM     37  C   UNL     1       2.843  16.456  17.644  0.00  0.00    +0.000 A 
ATOM     38  C   UNL     1       1.852  15.886  18.451  0.00  0.00    +0.000 A 
ENDBRANCH  32  33
ENDBRANCH  30  32
ENDBRANCH  27  28
ENDBRANCH   1  24
TORSDOF 6
ENDMDL
MODEL 6
REMARK VINA RESULT:      -8.1      3.645      4.683
REMARK  Name = 
REMARK  7 active torsions:
REMARK  status: ('A' for Active; 'I' for Inactive)
REMARK    1  A    between atoms: C_1  and  N_2
REMARK    2  A    between atoms: C_4  and  N_5
REMARK    3  A    between atoms: C_6  and  C_8
REMARK    4  A    between atoms: C_14  and  C_15
REMARK    5  A    between atoms: C_25  and  C_26
REMARK    6  A    between atoms: N_28  and  C_29
REMARK    7  A    between atoms: C_29  and  C_30
REMARK                            x       y       z     vdW  Elec       q    Type
REMARK                         _______ _______ _______ _____ _____    ______ ____
ROOT
ATOM      1  N   UNL     1       1.745   7.993  21.426  0.00  0.00    +0.000 N 
ATOM      2  C   UNL     1       2.017   7.674  20.115  0.00  0.00    +0.000 C 
ATOM      3  O   UNL     1       2.226   8.500  19.233  0.00  0.00    +0.000 OA
ATOM      4  H   UNL     1       1.816   7.293  22.149  0.00  0.00    +0.000 HD
ENDROOT
BRANCH   2   5
ATOM      5  C   UNL     1       2.066   6.220  19.810  0.00  0.00    +0.000 A 
ATOM      6  C   UNL     1       1.132   5.326  20.343  0.00  0.00    +0.000 A 
ATOM      7  C   UNL     1       1.171   3.967  20.027  0.00  0.00    +0.000 A 
ATOM      8  C   UNL     1       2.179   3.548  19.150  0.00  0.00    +0.000 A 
ATOM      9  N   UNL     1       2.469   2.320  18.627  0.00  0.00    +0.000 N 
ATOM     10  N   UNL     1       3.527   2.306  17.802  0.00  0.00    +0.000 NA
ATOM     11  C   UNL     1       3.964   3.578  17.795  0.00  0.00    +0.000 A 
ATOM     12  C   UNL     1       3.127   4.405  18.608  0.00  0.00    +0.000 A 
ATOM     13  C   UNL     1       3.063   5.775  18.930  0.00  0.00    +0.000 A 
ATOM     14  H   UNL     1       1.976   1.450  18.786  0.00  0.00    +0.000 HD
BRANCH  11  15
ATOM     15  C   UNL     1       5.144   3.967  17.021  0.00  0.00    +0.000 A 
ATOM     16  C   UNL     1       5.115   3.934  15.625  0.00  0.00    +0.000 A 
ATOM     17  C   UNL     1       6.249   4.320  14.932  0.00  0.00    +0.000 A 
ATOM     18  N   UNL     1       7.391   4.730  15.525  0.00  0.00    +0.000 NA
ATOM     19  C   UNL     1       7.401   4.744  16.873  0.00  0.00    +0.000 A 
ATOM     20  C   UNL     1       6.321   4.370  17.654  0.00  0.00    +0.000 A 
ENDBRANCH  11  15
ENDBRANCH   2   5
BRANCH   1  24
ATOM     21  C   UNL     1      -1.017  10.868  19.584  0.00  0.00    +0.000 C 
ATOM     22  N   UNL     1      -0.458  10.033  20.649  0.00  0.00    +0.000 NA
ATOM     23  C   UNL     1       0.998  10.237  20.765  0.00  0.00    +0.000 C 
ATOM     24  C   UNL     1       1.652   9.380  21.871  0.00  0.00    +0.000 C 
ATOM     25  C   UNL     1       0.894   9.455  23.201  0.00  0.00    +0.000 C 
ATOM     26  C   UNL     1      -0.614   9.290  23.009  0.00  0.00    +0.000 C 
ATOM     27  C   UNL     1      -1.176  10.229  21.935  0.00  0.00    +0.000 C 
BRANCH  27  28
ATOM     28  C   UNL     1      -1.205  11.702  22.443  0.00  0.00    +0.000 C 
ATOM     29  O   UNL     1      -0.282  12.497  22.284  0.00  0.00    +0.000 OA
ATOM     30  N   UNL     1      -2.359  12.042  23.119  0.00  0.00    +0.000 N 
ATOM     31  H   UNL     1      -3.097  11.363  23.235  0.00  0.00    +0.000 HD
BRANCH  30  32
ATOM     32  C   UNL     1      -2.572  13.360  23.689  0.00  0.00    +0.000 C 
BRANCH  32  33
ATOM     33  C   UNL     1      -3.971  13.854  23.416  0.00  0.00    +0.000 A 
ATOM     34  C   UNL     1      -4.820  13.125  22.570  0.00  0.00    +0.000 A 
ATOM     35  C   UNL     1      -6.116  13.570  22.304  0.00  0.00    +0.000 A 
ATOM     36  C   UNL     1      -6.586  14.741  22.895  0.00  0.00    +0.000 A 
ATOM     37  C   UNL     1      -5.760  15.467  23.752  0.00  0.00    +0.000 A 
ATOM     38  C   UNL     1      -4.458  15.028  24.010  0.00  0.00    +0.000 A 
ENDBRANCH  32  33
ENDBRANCH  30  32
ENDBRANCH  27  28
ENDBRANCH   1  24
TORSDOF 6
ENDMDL
MODEL 7
REMARK VINA RESULT:      -8.0      3.770     10.842
REMARK  Name = 
REMARK  7 active torsions:
REMARK  status: ('A' for Active; 'I' for Inactive)
REMARK    1  A    between atoms: C_1  and  N_2
REMARK    2  A    between atoms: C_4  and  N_5
REMARK    3  A    between atoms: C_6  and  C_8
REMARK    4  A    between atoms: C_14  and  C_15
REMARK    5  A    between atoms: C_25  and  C_26
REMARK    6  A    between atoms: N_28  and  C_29
REMARK    7  A    between atoms: C_29  and  C_30
REMARK                            x       y       z     vdW  Elec       q    Type
REMARK                         _______ _______ _______ _____ _____    ______ ____
ROOT
ATOM      1  N   UNL     1      -1.478  12.251  21.082  0.00  0.00    +0.000 N 
ATOM      2  C   UNL     1      -1.671  12.453  22.430  0.00  0.00    +0.000 C 
ATOM      3  O   UNL     1      -0.764  12.586  23.244  0.00  0.00    +0.000 OA
ATOM      4  H   UNL     1      -2.236  12.384  20.429  0.00  0.00    +0.000 HD
ENDROOT
BRANCH   2   5
ATOM      5  C   UNL     1      -3.090  12.526  22.866  0.00  0.00    +0.000 A 
ATOM      6  C   UNL     1      -3.441  12.542  24.220  0.00  0.00    +0.000 A 
ATOM      7  C   UNL     1      -4.775  12.640  24.620  0.00  0.00    +0.000 A 
ATOM      8  C   UNL     1      -5.736  12.727  23.605  0.00  0.00    +0.000 A 
ATOM      9  N   UNL     1      -7.094  12.862  23.655  0.00  0.00    +0.000 N 
ATOM     10  N   UNL     1      -7.690  12.919  22.455  0.00  0.00    +0.000 NA
ATOM     11  C   UNL     1      -6.680  12.801  21.573  0.00  0.00    +0.000 A 
ATOM     12  C   UNL     1      -5.425  12.707  22.252  0.00  0.00    +0.000 A 
ATOM     13  C   UNL     1      -4.072  12.620  21.870  0.00  0.00    +0.000 A 
ATOM     14  H   UNL     1      -7.677  12.930  24.481  0.00  0.00    +0.000 HD
BRANCH  11  15
ATOM     15  C   UNL     1      -6.934  12.788  20.131  0.00  0.00    +0.000 A 
ATOM     16  C   UNL     1      -6.693  11.634  19.383  0.00  0.00    +0.000 A 
ATOM     17  C   UNL     1      -6.956  11.662  18.024  0.00  0.00    +0.000 A 
ATOM     18  N   UNL     1      -7.436  12.743  17.372  0.00  0.00    +0.000 NA
ATOM     19  C   UNL     1      -7.652  13.850  18.112  0.00  0.00    +0.000 A 
ATOM     20  C   UNL     1      -7.413  13.923  19.473  0.00  0.00    +0.000 A 
ENDBRANCH  11  15
ENDBRANCH   2   5
BRANCH   1  24
ATOM     21  C   UNL     1       0.790   8.489  21.100  0.00  0.00    +0.000 C 
ATOM     22  N   UNL     1       0.080   9.629  20.516  0.00  0.00    +0.000 NA
ATOM     23  C   UNL     1       0.572  10.899  21.082  0.00  0.00    +0.000 C 
ATOM     24  C   UNL     1      -0.140  12.144  20.509  0.00  0.00    +0.000 C 
ATOM     25  C   UNL     1      -0.223  12.124  18.979  0.00  0.00    +0.000 C 
ATOM     26  C   UNL     1      -0.686  10.765  18.450  0.00  0.00    +0.000 C 
ATOM     27  C   UNL     1       0.124   9.601  19.031  0.00  0.00    +0.000 C 
BRANCH  27  28
ATOM     28  C   UNL     1       1.559   9.565  18.426  0.00  0.00    +0.000 C 
ATOM     29  O   UNL     1       2.218  10.570  18.171  0.00  0.00    +0.000 OA
ATOM     30  N   UNL     1       2.032   8.293  18.170  0.00  0.00    +0.000 N 
ATOM     31  H   UNL     1       1.463   7.488  18.388  0.00  0.00    +0.000 HD
BRANCH  30  32
ATOM     32  C   UNL     1       3.338   8.047  17.588  0.00  0.00    +0.000 C 
BRANCH  32  33
ATOM     33  C   UNL     1       3.682   6.578  17.617  0.00  0.00    +0.000 A 
ATOM     34  C   UNL     1       2.667   5.624  17.785  0.00  0.00    +0.000 A 
ATOM     35  C   UNL     1       2.968   4.261  17.818  0.00  0.00    +0.000 A 
ATOM     36  C   UNL     1       4.286   3.834  17.666  0.00  0.00    +0.000 A 
ATOM     37  C   UNL     1       5.302   4.770  17.480  0.00  0.00    +0.000 A 
ATOM     38  C   UNL     1       5.003   6.136  17.458  0.00  0.00    +0.000 A 
ENDBRANCH  32  33
ENDBRANCH  30  32
ENDBRANCH  27  28
ENDBRANCH   1  24
TORSDOF 6
ENDMDL
MODEL 8
REMARK VINA RESULT:      -7.9      3.726     10.941
REMARK  Name = 
REMARK  7 active torsions:
REMARK  status: ('A' for Active; 'I' for Inactive)
REMARK    1  A    between atoms: C_1  and  N_2
REMARK    2  A    between atoms: C_4  and  N_5
REMARK    3  A    between atoms: C_6  and  C_8
REMARK    4  A    between atoms: C_14  and  C_15
REMARK    5  A    between atoms: C_25  and  C_26
REMARK    6  A    between atoms: N_28  and  C_29
REMARK    7  A    between atoms: C_29  and  C_30
REMARK                            x       y       z     vdW  Elec       q    Type
REMARK                         _______ _______ _______ _____ _____    ______ ____
ROOT
ATOM      1  N   UNL     1      -1.309  11.962  21.144  0.00  0.00    +0.000 N 
ATOM      2  C   UNL     1      -1.525  12.785  22.226  0.00  0.00    +0.000 C 
ATOM      3  O   UNL     1      -0.680  13.535  22.702  0.00  0.00    +0.000 OA
ATOM      4  H   UNL     1      -2.085  11.549  20.649  0.00  0.00    +0.000 HD
ENDROOT
BRANCH   2   5
ATOM      5  C   UNL     1      -2.894  12.733  22.802  0.00  0.00    +0.000 A 
ATOM      6  C   UNL     1      -3.106  12.610  24.179  0.00  0.00    +0.000 A 
ATOM      7  C   UNL     1      -4.397  12.591  24.712  0.00  0.00    +0.000 A 
ATOM      8  C   UNL     1      -5.459  12.708  23.807  0.00  0.00    +0.000 A 
ATOM      9  N   UNL     1      -6.810  12.755  24.000  0.00  0.00    +0.000 N 
ATOM     10  N   UNL     1      -7.526  12.881  22.873  0.00  0.00    +0.000 NA
ATOM     11  C   UNL     1      -6.607  12.902  21.891  0.00  0.00    +0.000 A 
ATOM     12  C   UNL     1      -5.286  12.825  22.434  0.00  0.00    +0.000 A 
ATOM     13  C   UNL     1      -3.975  12.854  21.918  0.00  0.00    +0.000 A 
ATOM     14  H   UNL     1      -7.309  12.715  24.881  0.00  0.00    +0.000 HD
BRANCH  11  15
ATOM     15  C   UNL     1      -7.004  13.000  20.486  0.00  0.00    +0.000 A 
ATOM     16  C   UNL     1      -7.565  14.179  19.991  0.00  0.00    +0.000 A 
ATOM     17  C   UNL     1      -7.917  14.233  18.653  0.00  0.00    +0.000 A 
ATOM     18  N   UNL     1      -7.750  13.208  17.790  0.00  0.00    +0.000 NA
ATOM     19  C   UNL     1      -7.217  12.075  18.291  0.00  0.00    +0.000 A 
ATOM     20  C   UNL     1      -6.840  11.922  19.613  0.00  0.00    +0.000 A 
ENDBRANCH  11  15
ENDBRANCH   2   5
BRANCH   1  24
ATOM     21  C   UNL     1       1.109   8.296  21.081  0.00  0.00    +0.000 C 
ATOM     22  N   UNL     1       0.315   9.392  20.524  0.00  0.00    +0.000 NA
ATOM     23  C   UNL     1       0.792  10.694  21.029  0.00  0.00    +0.000 C 
ATOM     24  C   UNL     1      -0.009  11.896  20.482  0.00  0.00    +0.000 C 
ATOM     25  C   UNL     1      -0.196  11.837  18.962  0.00  0.00    +0.000 C 
ATOM     26  C   UNL     1      -0.638  10.450  18.494  0.00  0.00    +0.000 C 
ATOM     27  C   UNL     1       0.258   9.332  19.040  0.00  0.00    +0.000 C 
BRANCH  27  28
ATOM     28  C   UNL     1       1.649   9.340  18.338  0.00  0.00    +0.000 C 
ATOM     29  O   UNL     1       2.233  10.364  17.991  0.00  0.00    +0.000 OA
ATOM     30  N   UNL     1       2.172   8.083  18.110  0.00  0.00    +0.000 N 
ATOM     31  H   UNL     1       1.665   7.262  18.405  0.00  0.00    +0.000 HD
BRANCH  30  32
ATOM     32  C   UNL     1       3.448   7.876  17.449  0.00  0.00    +0.000 C 
BRANCH  32  33
ATOM     33  C   UNL     1       4.080   6.574  17.877  0.00  0.00    +0.000 A 
ATOM     34  C   UNL     1       5.357   6.227  17.412  0.00  0.00    +0.000 A 
ATOM     35  C   UNL     1       5.953   5.025  17.796  0.00  0.00    +0.000 A 
ATOM     36  C   UNL     1       5.288   4.162  18.665  0.00  0.00    +0.000 A 
ATOM     37  C   UNL     1       4.026   4.502  19.150  0.00  0.00    +0.000 A 
ATOM     38  C   UNL     1       3.423   5.701  18.757  0.00  0.00    +0.000 A 
ENDBRANCH  32  33
ENDBRANCH  30  32
ENDBRANCH  27  28
ENDBRANCH   1  24
TORSDOF 6
ENDMDL
MODEL 9
REMARK VINA RESULT:      -7.9      2.738      3.872
REMARK  Name = 
REMARK  7 active torsions:
REMARK  status: ('A' for Active; 'I' for Inactive)
REMARK    1  A    between atoms: C_1  and  N_2
REMARK    2  A    between atoms: C_4  and  N_5
REMARK    3  A    between atoms: C_6  and  C_8
REMARK    4  A    between atoms: C_14  and  C_15
REMARK    5  A    between atoms: C_25  and  C_26
REMARK    6  A    between atoms: N_28  and  C_29
REMARK    7  A    between atoms: C_29  and  C_30
REMARK                            x       y       z     vdW  Elec       q    Type
REMARK                         _______ _______ _______ _____ _____    ______ ____
ROOT
ATOM      1  N   UNL     1       1.404   9.718  19.713  0.00  0.00    +0.000 N 
ATOM      2  C   UNL     1       1.970   8.919  18.745  0.00  0.00    +0.000 C 
ATOM      3  O   UNL     1       2.267   9.305  17.619  0.00  0.00    +0.000 OA
ATOM      4  H   UNL     1       1.398   9.428  20.679  0.00  0.00    +0.000 HD
ENDROOT
BRANCH   2   5
ATOM      5  C   UNL     1       2.234   7.514  19.152  0.00  0.00    +0.000 A 
ATOM      6  C   UNL     1       1.534   6.912  20.203  0.00  0.00    +0.000 A 
ATOM      7  C   UNL     1       1.770   5.582  20.559  0.00  0.00    +0.000 A 
ATOM      8  C   UNL     1       2.728   4.886  19.812  0.00  0.00    +0.000 A 
ATOM      9  N   UNL     1       3.162   3.593  19.880  0.00  0.00    +0.000 N 
ATOM     10  N   UNL     1       4.105   3.278  18.980  0.00  0.00    +0.000 NA
ATOM     11  C   UNL     1       4.313   4.418  18.298  0.00  0.00    +0.000 A 
ATOM     12  C   UNL     1       3.445   5.454  18.768  0.00  0.00    +0.000 A 
ATOM     13  C   UNL     1       3.185   6.793  18.417  0.00  0.00    +0.000 A 
ATOM     14  H   UNL     1       2.847   2.870  20.515  0.00  0.00    +0.000 HD
BRANCH  11  15
ATOM     15  C   UNL     1       5.312   4.488  17.230  0.00  0.00    +0.000 A 
ATOM     16  C   UNL     1       6.657   4.704  17.535  0.00  0.00    +0.000 A 
ATOM     17  C   UNL     1       7.570   4.753  16.496  0.00  0.00    +0.000 A 
ATOM     18  N   UNL     1       7.239   4.604  15.195  0.00  0.00    +0.000 NA
ATOM     19  C   UNL     1       5.933   4.407  14.922  0.00  0.00    +0.000 A 
ATOM     20  C   UNL     1       4.946   4.350  15.889  0.00  0.00    +0.000 A 
ENDBRANCH  11  15
ENDBRANCH   2   5
BRANCH   1  24
ATOM     21  C   UNL     1      -2.663  11.024  18.691  0.00  0.00    +0.000 C 
ATOM     22  N   UNL     1      -1.441  10.933  19.493  0.00  0.00    +0.000 NA
ATOM     23  C   UNL     1      -0.249  11.201  18.665  0.00  0.00    +0.000 C 
ATOM     24  C   UNL     1       1.076  11.117  19.453  0.00  0.00    +0.000 C 
ATOM     25  C   UNL     1       1.031  11.899  20.770  0.00  0.00    +0.000 C 
ATOM     26  C   UNL     1      -0.251  11.621  21.556  0.00  0.00    +0.000 C 
ATOM     27  C   UNL     1      -1.513  11.793  20.703  0.00  0.00    +0.000 C 
BRANCH  27  28
ATOM     28  C   UNL     1      -1.786  13.299  20.412  0.00  0.00    +0.000 C 
ATOM     29  O   UNL     1      -1.095  13.987  19.664  0.00  0.00    +0.000 OA
ATOM     30  N   UNL     1      -2.871  13.816  21.091  0.00  0.00    +0.000 N 
ATOM     31  H   UNL     1      -3.416  13.224  21.701  0.00  0.00    +0.000 HD
BRANCH  30  32
ATOM     32  C   UNL     1      -3.279  15.204  20.972  0.00  0.00    +0.000 C 
BRANCH  32  33
ATOM     33  C   UNL     1      -3.671  15.775  22.313  0.00  0.00    +0.000 A 
ATOM     34  C   UNL     1      -2.690  16.304  23.165  0.00  0.00    +0.000 A 
ATOM     35  C   UNL     1      -3.036  16.832  24.409  0.00  0.00    +0.000 A 
ATOM     36  C   UNL     1      -4.370  16.855  24.811  0.00  0.00    +0.000 A 
ATOM     37  C   UNL     1      -5.358  16.350  23.968  0.00  0.00    +0.000 A 
ATOM     38  C   UNL     1      -5.012  15.810  22.725  0.00  0.00    +0.000 A 
ENDBRANCH  32  33
ENDBRANCH  30  32
ENDBRANCH  27  28
ENDBRANCH   1  24
TORSDOF 6
ENDMDL
