MODEL 1
REMARK VINA RESULT:      -7.2      0.000      0.000
REMARK  Name = 
REMARK  2 active torsions:
REMARK  status: ('A' for Active; 'I' for Inactive)
REMARK    1  A    between atoms: C_2  and  C_12
REMARK    2  A    between atoms: N_3  and  C_4
REMARK                            x       y       z     vdW  Elec       q    Type
REMARK                         _______ _______ _______ _____ _____    ______ ____
ROOT
ATOM      1  O   UNL     1       6.159   4.313  19.174  0.00  0.00    +0.000 OA
ATOM      2  C   UNL     1       5.379   4.342  18.241  0.00  0.00    +0.000 C 
ATOM      3  N   UNL     1       4.006   4.251  18.374  0.00  0.00    +0.000 N 
ATOM      4  H   UNL     1       3.458   4.032  17.554  0.00  0.00    +0.000 HD
ENDROOT
BRANCH   3   5
ATOM      5  C   UNL     1       3.368   4.081  19.674  0.00  0.00    +0.000 C 
ATOM      6  C   UNL     1       1.958   4.728  19.708  0.00  0.00    +0.000 C 
ATOM      7  N   UNL     1       0.902   3.765  20.106  0.00  0.00    +0.000 NA
ATOM      8  C   UNL     1       0.892   2.647  19.138  0.00  0.00    +0.000 C 
ATOM      9  C   UNL     1       2.238   1.906  19.098  0.00  0.00    +0.000 C 
ATOM     10  C   UNL     1       3.230   2.589  20.057  0.00  0.00    +0.000 C 
ATOM     11  C   UNL     1       2.602   2.529  21.462  0.00  0.00    +0.000 C 
ATOM     12  C   UNL     1       1.233   3.231  21.446  0.00  0.00    +0.000 C 
ENDBRANCH   3   5
BRANCH   2  13
ATOM     13  C   UNL     1       5.870   4.471  16.838  0.00  0.00    +0.000 A 
ATOM     14  C   UNL     1       7.179   4.889  16.569  0.00  0.00    +0.000 A 
ATOM     15  C   UNL     1       7.606   5.026  15.245  0.00  0.00    +0.000 A 
ATOM     16  C   UNL     1       6.729   4.750  14.195  0.00  0.00    +0.000 A 
ATOM     17  C   UNL     1       5.430   4.320  14.461  0.00  0.00    +0.000 A 
ATOM     18  C   UNL     1       5.001   4.180  15.780  0.00  0.00    +0.000 A 
ENDBRANCH   2  13
TORSDOF 2
ENDMDL
MODEL 2
REMARK VINA RESULT:      -7.2      0.064      1.175
REMARK  Name = 
REMARK  2 active torsions:
REMARK  status: ('A' for Active; 'I' for Inactive)
REMARK    1  A    between atoms: C_2  and  C_12
REMARK    2  A    between atoms: N_3  and  C_4
REMARK                            x       y       z     vdW  Elec       q    Type
REMARK                         _______ _______ _______ _____ _____    ______ ____
ROOT
ATOM      1  O   UNL     1       6.137   4.149  19.159  0.00  0.00    +0.000 OA
ATOM      2  C   UNL     1       5.346   4.293  18.246  0.00  0.00    +0.000 C 
ATOM      3  N   UNL     1       3.972   4.298  18.404  0.00  0.00    +0.000 N 
ATOM      4  H   UNL     1       3.395   4.171  17.585  0.00  0.00    +0.000 HD
ENDROOT
BRANCH   3   5
ATOM      5  C   UNL     1       3.346   4.099  19.707  0.00  0.00    +0.000 C 
ATOM      6  C   UNL     1       1.932   4.736  19.764  0.00  0.00    +0.000 C 
ATOM      7  N   UNL     1       0.886   3.757  20.152  0.00  0.00    +0.000 NA
ATOM      8  C   UNL     1       0.877   2.657  19.163  0.00  0.00    +0.000 C 
ATOM      9  C   UNL     1       2.227   1.927  19.099  0.00  0.00    +0.000 C 
ATOM     10  C   UNL     1       3.222   2.599  20.063  0.00  0.00    +0.000 C 
ATOM     11  C   UNL     1       2.606   2.509  21.472  0.00  0.00    +0.000 C 
ATOM     12  C   UNL     1       1.231   3.201  21.479  0.00  0.00    +0.000 C 
ENDBRANCH   3   5
BRANCH   2  13
ATOM     13  C   UNL     1       5.820   4.469  16.843  0.00  0.00    +0.000 A 
ATOM     14  C   UNL     1       4.989   4.165  15.759  0.00  0.00    +0.000 A 
ATOM     15  C   UNL     1       5.467   4.314  14.454  0.00  0.00    +0.000 A 
ATOM     16  C   UNL     1       6.771   4.761  14.233  0.00  0.00    +0.000 A 
ATOM     17  C   UNL     1       7.594   5.078  15.312  0.00  0.00    +0.000 A 
ATOM     18  C   UNL     1       7.121   4.933  16.614  0.00  0.00    +0.000 A 
ENDBRANCH   2  13
TORSDOF 2
ENDMDL
MODEL 3
REMARK VINA RESULT:      -7.0      1.748      2.508
REMARK  Name = 
REMARK  2 active torsions:
REMARK  status: ('A' for Active; 'I' for Inactive)
REMARK    1  A    between atoms: C_2  and  C_12
REMARK    2  A    between atoms: N_3  and  C_4
REMARK                            x       y       z     vdW  Elec       q    Type
REMARK                         _______ _______ _______ _____ _____    ______ ____
ROOT
ATOM      1  O   UNL     1       7.465   4.687  16.751  0.00  0.00    +0.000 OA
ATOM      2  C   UNL     1       6.538   4.478  15.990  0.00  0.00    +0.000 C 
ATOM      3  N   UNL     1       5.236   4.256  16.397  0.00  0.00    +0.000 N 
ATOM      4  H   UNL     1       4.590   3.847  15.736  0.00  0.00    +0.000 HD
ENDROOT
BRANCH   3   5
ATOM      5  C   UNL     1       4.864   4.227  17.807  0.00  0.00    +0.000 C 
ATOM      6  C   UNL     1       4.175   5.547  18.243  0.00  0.00    +0.000 C 
ATOM      7  N   UNL     1       2.839   5.316  18.846  0.00  0.00    +0.000 NA
ATOM      8  C   UNL     1       1.982   4.634  17.853  0.00  0.00    +0.000 C 
ATOM      9  C   UNL     1       2.564   3.278  17.423  0.00  0.00    +0.000 C 
ATOM     10  C   UNL     1       3.913   3.050  18.128  0.00  0.00    +0.000 C 
ATOM     11  C   UNL     1       3.634   3.082  19.642  0.00  0.00    +0.000 C 
ATOM     12  C   UNL     1       3.000   4.431  20.022  0.00  0.00    +0.000 C 
ENDBRANCH   3   5
BRANCH   2  13
ATOM     13  C   UNL     1       6.755   4.434  14.515  0.00  0.00    +0.000 A 
ATOM     14  C   UNL     1       7.676   5.289  13.897  0.00  0.00    +0.000 A 
ATOM     15  C   UNL     1       7.841   5.245  12.509  0.00  0.00    +0.000 A 
ATOM     16  C   UNL     1       7.089   4.354  11.743  0.00  0.00    +0.000 A 
ATOM     17  C   UNL     1       6.182   3.492  12.359  0.00  0.00    +0.000 A 
ATOM     18  C   UNL     1       6.016   3.531  13.742  0.00  0.00    +0.000 A 
ENDBRANCH   2  13
TORSDOF 2
ENDMDL
MODEL 4
REMARK VINA RESULT:      -6.9      1.702      2.583
REMARK  Name = 
REMARK  2 active torsions:
REMARK  status: ('A' for Active; 'I' for Inactive)
REMARK    1  A    between atoms: C_2  and  C_12
REMARK    2  A    between atoms: N_3  and  C_4
REMARK                            x       y       z     vdW  Elec       q    Type
REMARK                         _______ _______ _______ _____ _____    ______ ____
ROOT
ATOM      1  O   UNL     1       7.265   4.577  16.811  0.00  0.00    +0.000 OA
ATOM      2  C   UNL     1       6.348   4.357  16.042  0.00  0.00    +0.000 C 
ATOM      3  N   UNL     1       5.048   4.099  16.438  0.00  0.00    +0.000 N 
ATOM      4  H   UNL     1       4.416   3.685  15.768  0.00  0.00    +0.000 HD
ENDROOT
BRANCH   3   5
ATOM      5  C   UNL     1       4.670   4.042  17.845  0.00  0.00    +0.000 C 
ATOM      6  C   UNL     1       3.900   5.316  18.282  0.00  0.00    +0.000 C 
ATOM      7  N   UNL     1       2.576   5.002  18.876  0.00  0.00    +0.000 NA
ATOM      8  C   UNL     1       1.769   4.275  17.874  0.00  0.00    +0.000 C 
ATOM      9  C   UNL     1       2.433   2.958  17.443  0.00  0.00    +0.000 C 
ATOM     10  C   UNL     1       3.789   2.809  18.155  0.00  0.00    +0.000 C 
ATOM     11  C   UNL     1       3.500   2.817  19.668  0.00  0.00    +0.000 C 
ATOM     12  C   UNL     1       2.783   4.124  20.049  0.00  0.00    +0.000 C 
ENDBRANCH   3   5
BRANCH   2  13
ATOM     13  C   UNL     1       6.573   4.339  14.567  0.00  0.00    +0.000 A 
ATOM     14  C   UNL     1       5.830   3.493  13.736  0.00  0.00    +0.000 A 
ATOM     15  C   UNL     1       6.079   3.477  12.360  0.00  0.00    +0.000 A 
ATOM     16  C   UNL     1       7.068   4.299  11.819  0.00  0.00    +0.000 A 
ATOM     17  C   UNL     1       7.799   5.152  12.644  0.00  0.00    +0.000 A 
ATOM     18  C   UNL     1       7.552   5.174  14.015  0.00  0.00    +0.000 A 
ENDBRANCH   2  13
TORSDOF 2
ENDMDL
MODEL 5
REMARK VINA RESULT:      -6.7      3.299      5.357
REMARK  Name = 
REMARK  2 active torsions:
REMARK  status: ('A' for Active; 'I' for Inactive)
REMARK    1  A    between atoms: C_2  and  C_12
REMARK    2  A    between atoms: N_3  and  C_4
REMARK                            x       y       z     vdW  Elec       q    Type
REMARK                         _______ _______ _______ _____ _____    ______ ____
ROOT
ATOM      1  O   UNL     1       3.734   7.103  17.601  0.00  0.00    +0.000 OA
ATOM      2  C   UNL     1       2.790   6.978  18.359  0.00  0.00    +0.000 C 
ATOM      3  N   UNL     1       2.317   5.761  18.815  0.00  0.00    +0.000 N 
ATOM      4  H   UNL     1       1.395   5.729  19.227  0.00  0.00    +0.000 HD
ENDROOT
BRANCH   3   5
ATOM      5  C   UNL     1       2.910   4.498  18.392  0.00  0.00    +0.000 C 
ATOM      6  C   UNL     1       3.838   3.908  19.487  0.00  0.00    +0.000 C 
ATOM      7  N   UNL     1       3.453   2.527  19.871  0.00  0.00    +0.000 NA
ATOM      8  C   UNL     1       2.065   2.546  20.380  0.00  0.00    +0.000 C 
ATOM      9  C   UNL     1       1.071   3.052  19.323  0.00  0.00    +0.000 C 
ATOM     10  C   UNL     1       1.833   3.443  18.045  0.00  0.00    +0.000 C 
ATOM     11  C   UNL     1       2.566   2.179  17.559  0.00  0.00    +0.000 C 
ATOM     12  C   UNL     1       3.507   1.671  18.665  0.00  0.00    +0.000 C 
ENDBRANCH   3   5
BRANCH   2  13
ATOM     13  C   UNL     1       2.044   8.171  18.855  0.00  0.00    +0.000 A 
ATOM     14  C   UNL     1       1.795   9.264  18.017  0.00  0.00    +0.000 A 
ATOM     15  C   UNL     1       1.117  10.381  18.515  0.00  0.00    +0.000 A 
ATOM     16  C   UNL     1       0.692  10.406  19.844  0.00  0.00    +0.000 A 
ATOM     17  C   UNL     1       0.927   9.312  20.675  0.00  0.00    +0.000 A 
ATOM     18  C   UNL     1       1.601   8.196  20.183  0.00  0.00    +0.000 A 
ENDBRANCH   2  13
TORSDOF 2
ENDMDL
MODEL 6
REMARK VINA RESULT:      -6.7      1.820      6.309
REMARK  Name = 
REMARK  2 active torsions:
REMARK  status: ('A' for Active; 'I' for Inactive)
REMARK    1  A    between atoms: C_2  and  C_12
REMARK    2  A    between atoms: N_3  and  C_4
REMARK                            x       y       z     vdW  Elec       q    Type
REMARK                         _______ _______ _______ _____ _____    ______ ____
ROOT
ATOM      1  O   UNL     1       2.316   3.161  16.793  0.00  0.00    +0.000 OA
ATOM      2  C   UNL     1       2.965   3.529  17.754  0.00  0.00    +0.000 C 
ATOM      3  N   UNL     1       4.166   4.207  17.666  0.00  0.00    +0.000 N 
ATOM      4  H   UNL     1       4.754   4.251  18.487  0.00  0.00    +0.000 HD
ENDROOT
BRANCH   3   5
ATOM      5  C   UNL     1       4.780   4.521  16.381  0.00  0.00    +0.000 C 
ATOM      6  C   UNL     1       4.982   6.050  16.203  0.00  0.00    +0.000 C 
ATOM      7  N   UNL     1       6.393   6.404  15.910  0.00  0.00    +0.000 NA
ATOM      8  C   UNL     1       7.241   5.936  17.028  0.00  0.00    +0.000 C 
ATOM      9  C   UNL     1       7.151   4.414  17.222  0.00  0.00    +0.000 C 
ATOM     10  C   UNL     1       6.151   3.825  16.212  0.00  0.00    +0.000 C 
ATOM     11  C   UNL     1       6.677   4.177  14.808  0.00  0.00    +0.000 C 
ATOM     12  C   UNL     1       6.807   5.704  14.674  0.00  0.00    +0.000 C 
ENDBRANCH   3   5
BRANCH   2  13
ATOM     13  C   UNL     1       2.497   3.251  19.143  0.00  0.00    +0.000 A 
ATOM     14  C   UNL     1       3.391   2.819  20.131  0.00  0.00    +0.000 A 
ATOM     15  C   UNL     1       2.921   2.541  21.418  0.00  0.00    +0.000 A 
ATOM     16  C   UNL     1       1.566   2.691  21.717  0.00  0.00    +0.000 A 
ATOM     17  C   UNL     1       0.678   3.134  20.738  0.00  0.00    +0.000 A 
ATOM     18  C   UNL     1       1.142   3.415  19.454  0.00  0.00    +0.000 A 
ENDBRANCH   2  13
TORSDOF 2
ENDMDL
MODEL 7
REMARK VINA RESULT:      -6.7      3.317      5.363
REMARK  Name = 
REMARK  2 active torsions:
REMARK  status: ('A' for Active; 'I' for Inactive)
REMARK    1  A    between atoms: C_2  and  C_12
REMARK    2  A    between atoms: N_3  and  C_4
REMARK                            x       y       z     vdW  Elec       q    Type
REMARK                         _______ _______ _______ _____ _____    ______ ____
ROOT
ATOM      1  O   UNL     1       3.679   7.125  17.563  0.00  0.00    +0.000 OA
ATOM      2  C   UNL     1       2.769   6.999  18.362  0.00  0.00    +0.000 C 
ATOM      3  N   UNL     1       2.324   5.783  18.846  0.00  0.00    +0.000 N 
ATOM      4  H   UNL     1       1.421   5.748  19.297  0.00  0.00    +0.000 HD
ENDROOT
BRANCH   3   5
ATOM      5  C   UNL     1       2.906   4.520  18.407  0.00  0.00    +0.000 C 
ATOM      6  C   UNL     1       3.843   3.917  19.487  0.00  0.00    +0.000 C 
ATOM      7  N   UNL     1       3.455   2.535  19.864  0.00  0.00    +0.000 NA
ATOM      8  C   UNL     1       2.073   2.557  20.387  0.00  0.00    +0.000 C 
ATOM      9  C   UNL     1       1.069   3.076  19.346  0.00  0.00    +0.000 C 
ATOM     10  C   UNL     1       1.820   3.474  18.062  0.00  0.00    +0.000 C 
ATOM     11  C   UNL     1       2.541   2.209  17.559  0.00  0.00    +0.000 C 
ATOM     12  C   UNL     1       3.492   1.688  18.651  0.00  0.00    +0.000 C 
ENDBRANCH   3   5
BRANCH   2  13
ATOM     13  C   UNL     1       2.038   8.191  18.882  0.00  0.00    +0.000 A 
ATOM     14  C   UNL     1       1.584   8.236  20.205  0.00  0.00    +0.000 A 
ATOM     15  C   UNL     1       0.879   9.355  20.659  0.00  0.00    +0.000 A 
ATOM     16  C   UNL     1       0.627  10.422  19.796  0.00  0.00    +0.000 A 
ATOM     17  C   UNL     1       1.092  10.384  18.482  0.00  0.00    +0.000 A 
ATOM     18  C   UNL     1       1.797   9.272  18.025  0.00  0.00    +0.000 A 
ENDBRANCH   2  13
TORSDOF 2
ENDMDL
MODEL 8
REMARK VINA RESULT:      -6.7      1.944      2.971
REMARK  Name = 
REMARK  2 active torsions:
REMARK  status: ('A' for Active; 'I' for Inactive)
REMARK    1  A    between atoms: C_2  and  C_12
REMARK    2  A    between atoms: N_3  and  C_4
REMARK                            x       y       z     vdW  Elec       q    Type
REMARK                         _______ _______ _______ _____ _____    ______ ____
ROOT
ATOM      1  O   UNL     1       4.638   4.672  16.579  0.00  0.00    +0.000 OA
ATOM      2  C   UNL     1       5.067   4.878  17.699  0.00  0.00    +0.000 C 
ATOM      3  N   UNL     1       4.558   4.293  18.844  0.00  0.00    +0.000 N 
ATOM      4  H   UNL     1       4.797   4.702  19.737  0.00  0.00    +0.000 HD
ENDROOT
BRANCH   3   5
ATOM      5  C   UNL     1       3.422   3.380  18.803  0.00  0.00    +0.000 C 
ATOM      6  C   UNL     1       3.389   2.452  20.046  0.00  0.00    +0.000 C 
ATOM      7  N   UNL     1       2.103   2.536  20.782  0.00  0.00    +0.000 NA
ATOM      8  C   UNL     1       1.900   3.933  21.222  0.00  0.00    +0.000 C 
ATOM      9  C   UNL     1       1.848   4.910  20.036  0.00  0.00    +0.000 C 
ATOM     10  C   UNL     1       2.076   4.139  18.724  0.00  0.00    +0.000 C 
ATOM     11  C   UNL     1       0.958   3.084  18.627  0.00  0.00    +0.000 C 
ATOM     12  C   UNL     1       1.008   2.164  19.859  0.00  0.00    +0.000 C 
ENDBRANCH   3   5
BRANCH   2  13
ATOM     13  C   UNL     1       6.203   5.819  17.922  0.00  0.00    +0.000 A 
ATOM     14  C   UNL     1       7.151   5.578  18.923  0.00  0.00    +0.000 A 
ATOM     15  C   UNL     1       8.192   6.490  19.127  0.00  0.00    +0.000 A 
ATOM     16  C   UNL     1       8.282   7.637  18.338  0.00  0.00    +0.000 A 
ATOM     17  C   UNL     1       7.347   7.870  17.332  0.00  0.00    +0.000 A 
ATOM     18  C   UNL     1       6.309   6.964  17.123  0.00  0.00    +0.000 A 
ENDBRANCH   2  13
TORSDOF 2
ENDMDL
MODEL 9
REMARK VINA RESULT:      -6.6      1.840      6.396
REMARK  Name = 
REMARK  2 active torsions:
REMARK  status: ('A' for Active; 'I' for Inactive)
REMARK    1  A    between atoms: C_2  and  C_12
REMARK    2  A    between atoms: N_3  and  C_4
REMARK                            x       y       z     vdW  Elec       q    Type
REMARK                         _______ _______ _______ _____ _____    ______ ____
ROOT
ATOM      1  O   UNL     1       2.200   3.446  16.781  0.00  0.00    +0.000 OA
ATOM      2  C   UNL     1       2.936   3.614  17.736  0.00  0.00    +0.000 C 
ATOM      3  N   UNL     1       4.223   4.111  17.646  0.00  0.00    +0.000 N 
ATOM      4  H   UNL     1       4.842   3.984  18.434  0.00  0.00    +0.000 HD
ENDROOT
BRANCH   3   5
ATOM      5  C   UNL     1       4.827   4.457  16.364  0.00  0.00    +0.000 C 
ATOM      6  C   UNL     1       4.964   5.993  16.193  0.00  0.00    +0.000 C 
ATOM      7  N   UNL     1       6.359   6.408  15.906  0.00  0.00    +0.000 NA
ATOM      8  C   UNL     1       7.223   5.972  17.024  0.00  0.00    +0.000 C 
ATOM      9  C   UNL     1       7.198   4.447  17.212  0.00  0.00    +0.000 C 
ATOM     10  C   UNL     1       6.226   3.820  16.196  0.00  0.00    +0.000 C 
ATOM     11  C   UNL     1       6.741   4.200  14.795  0.00  0.00    +0.000 C 
ATOM     12  C   UNL     1       6.806   5.732  14.668  0.00  0.00    +0.000 C 
ENDBRANCH   3   5
BRANCH   2  13
ATOM     13  C   UNL     1       2.486   3.272  19.117  0.00  0.00    +0.000 A 
ATOM     14  C   UNL     1       1.144   3.405  19.490  0.00  0.00    +0.000 A 
ATOM     15  C   UNL     1       0.754   3.102  20.798  0.00  0.00    +0.000 A 
ATOM     16  C   UNL     1       1.700   2.672  21.729  0.00  0.00    +0.000 A 
ATOM     17  C   UNL     1       3.035   2.525  21.354  0.00  0.00    +0.000 A 
ATOM     18  C   UNL     1       3.428   2.824  20.051  0.00  0.00    +0.000 A 
ENDBRANCH   2  13
TORSDOF 2
ENDMDL
