MODEL 1
REMARK VINA RESULT:      -8.7      0.000      0.000
REMARK  Name = 
REMARK  7 active torsions:
REMARK  status: ('A' for Active; 'I' for Inactive)
REMARK    1  A    between atoms: C_1  and  O_2
REMARK    2  A    between atoms: O_2  and  C_3
REMARK    3  A    between atoms: C_6  and  C_7
REMARK    4  A    between atoms: C_10  and  C_11
REMARK    5  A    between atoms: C_13  and  C_14
REMARK    6  A    between atoms: C_17  and  C_18
REMARK    7  A    between atoms: C_18  and  N_19
REMARK                            x       y       z     vdW  Elec       q    Type
REMARK                         _______ _______ _______ _____ _____    ______ ____
ROOT
ATOM      1  C   UNL     1       2.556   6.933  19.154  0.00  0.00    +0.000 A 
ATOM      2  N   UNL     1       2.077   8.141  19.346  0.00  0.00    +0.000 NA
ATOM      3  C   UNL     1       1.438   8.020  20.564  0.00  0.00    +0.000 A 
ATOM      4  N   UNL     1       1.523   6.794  21.104  0.00  0.00    +0.000 NA
ATOM      5  O   UNL     1       2.260   6.074  20.174  0.00  0.00    +0.000 OA
ENDROOT
BRANCH   1   9
ATOM      6  C   UNL     1       4.844   5.321  15.878  0.00  0.00    +0.000 A 
ATOM      7  C   UNL     1       4.039   4.503  16.692  0.00  0.00    +0.000 A 
ATOM      8  C   UNL     1       3.298   5.031  17.758  0.00  0.00    +0.000 A 
ATOM      9  C   UNL     1       3.347   6.396  18.057  0.00  0.00    +0.000 A 
ATOM     10  C   UNL     1       4.163   7.216  17.270  0.00  0.00    +0.000 A 
ATOM     11  C   UNL     1       4.891   6.688  16.198  0.00  0.00    +0.000 A 
BRANCH   6  15
ATOM     12  C   UNL     1       6.997   3.758  12.475  0.00  0.00    +0.000 A 
ATOM     13  C   UNL     1       5.692   3.351  12.736  0.00  0.00    +0.000 A 
ATOM     14  C   UNL     1       4.996   3.863  13.834  0.00  0.00    +0.000 A 
ATOM     15  C   UNL     1       5.592   4.772  14.724  0.00  0.00    +0.000 A 
ATOM     16  C   UNL     1       6.923   5.142  14.458  0.00  0.00    +0.000 A 
ATOM     17  C   UNL     1       7.617   4.649  13.344  0.00  0.00    +0.000 A 
BRANCH  12  19
ATOM     18  C   UNL     1       7.197   1.852  11.102  0.00  0.00    +0.000 C 
ATOM     19  O   UNL     1       7.577   3.197  11.372  0.00  0.00    +0.000 OA
ENDBRANCH  12  19
ENDBRANCH   6  15
ENDBRANCH   1   9
BRANCH   3  20
ATOM     20  C   UNL     1       0.742   9.132  21.196  0.00  0.00    +0.000 A 
ATOM     21  C   UNL     1      -0.047   8.927  22.337  0.00  0.00    +0.000 A 
ATOM     22  C   UNL     1      -0.728   9.994  22.933  0.00  0.00    +0.000 A 
ATOM     23  C   UNL     1      -0.641  11.286  22.397  0.00  0.00    +0.000 A 
ATOM     24  C   UNL     1       0.167  11.498  21.272  0.00  0.00    +0.000 A 
ATOM     25  C   UNL     1       0.848  10.434  20.676  0.00  0.00    +0.000 A 
BRANCH  23  26
ATOM     26  C   UNL     1      -1.399  12.434  23.022  0.00  0.00    +0.000 C 
BRANCH  26  27
ATOM     27  N   UNL     1      -2.715  12.632  22.424  0.00  0.00    +0.000 N 
ATOM     28  N   UNL     1      -2.733  13.100  21.121  0.00  0.00    +0.000 NA
ATOM     29  C   UNL     1      -3.889  13.268  20.566  0.00  0.00    +0.000 A 
ATOM     30  C   UNL     1      -5.179  12.973  21.261  0.00  0.00    +0.000 A 
ATOM     31  O   UNL     1      -6.236  13.128  20.670  0.00  0.00    +0.000 OA
ATOM     32  N   UNL     1      -5.051  12.547  22.545  0.00  0.00    +0.000 N 
ATOM     33  C   UNL     1      -3.854  12.358  23.175  0.00  0.00    +0.000 A 
ATOM     34  O   UNL     1      -3.842  11.976  24.344  0.00  0.00    +0.000 OA
ATOM     35  H   UNL     1      -5.885  12.339  23.070  0.00  0.00    +0.000 HD
ENDBRANCH  26  27
ENDBRANCH  23  26
ENDBRANCH   3  20
TORSDOF 6
ENDMDL
MODEL 2
REMARK VINA RESULT:      -8.6      3.268     13.209
REMARK  Name = 
REMARK  7 active torsions:
REMARK  status: ('A' for Active; 'I' for Inactive)
REMARK    1  A    between atoms: C_1  and  O_2
REMARK    2  A    between atoms: O_2  and  C_3
REMARK    3  A    between atoms: C_6  and  C_7
REMARK    4  A    between atoms: C_10  and  C_11
REMARK    5  A    between atoms: C_13  and  C_14
REMARK    6  A    between atoms: C_17  and  C_18
REMARK    7  A    between atoms: C_18  and  N_19
REMARK                            x       y       z     vdW  Elec       q    Type
REMARK                         _______ _______ _______ _____ _____    ______ ____
ROOT
ATOM      1  C   UNL     1       0.029  10.500  19.860  0.00  0.00    +0.000 A 
ATOM      2  N   UNL     1       0.894   9.568  20.192  0.00  0.00    +0.000 NA
ATOM      3  C   UNL     1       1.241   9.031  18.969  0.00  0.00    +0.000 A 
ATOM      4  N   UNL     1       0.624   9.609  17.926  0.00  0.00    +0.000 NA
ATOM      5  O   UNL     1      -0.178  10.578  18.513  0.00  0.00    +0.000 OA
ENDROOT
BRANCH   1   9
ATOM      6  C   UNL     1      -2.090  13.317  22.337  0.00  0.00    +0.000 A 
ATOM      7  C   UNL     1      -1.206  12.370  22.884  0.00  0.00    +0.000 A 
ATOM      8  C   UNL     1      -0.520  11.454  22.075  0.00  0.00    +0.000 A 
ATOM      9  C   UNL     1      -0.704  11.444  20.689  0.00  0.00    +0.000 A 
ATOM     10  C   UNL     1      -1.601  12.366  20.136  0.00  0.00    +0.000 A 
ATOM     11  C   UNL     1      -2.274  13.288  20.945  0.00  0.00    +0.000 A 
BRANCH   6  15
ATOM     12  C   UNL     1      -4.136  16.184  24.839  0.00  0.00    +0.000 A 
ATOM     13  C   UNL     1      -4.754  15.664  23.705  0.00  0.00    +0.000 A 
ATOM     14  C   UNL     1      -4.092  14.731  22.902  0.00  0.00    +0.000 A 
ATOM     15  C   UNL     1      -2.781  14.315  23.186  0.00  0.00    +0.000 A 
ATOM     16  C   UNL     1      -2.165  14.881  24.316  0.00  0.00    +0.000 A 
ATOM     17  C   UNL     1      -2.834  15.799  25.139  0.00  0.00    +0.000 A 
BRANCH  12  19
ATOM     18  C   UNL     1      -5.441  18.147  24.793  0.00  0.00    +0.000 C 
ATOM     19  O   UNL     1      -4.879  17.082  25.552  0.00  0.00    +0.000 OA
ENDBRANCH  12  19
ENDBRANCH   6  15
ENDBRANCH   1   9
BRANCH   3  20
ATOM     20  C   UNL     1       2.196   7.940  18.836  0.00  0.00    +0.000 A 
ATOM     21  C   UNL     1       3.104   7.910  17.769  0.00  0.00    +0.000 A 
ATOM     22  C   UNL     1       4.010   6.852  17.633  0.00  0.00    +0.000 A 
ATOM     23  C   UNL     1       4.021   5.799  18.558  0.00  0.00    +0.000 A 
ATOM     24  C   UNL     1       3.132   5.839  19.639  0.00  0.00    +0.000 A 
ATOM     25  C   UNL     1       2.227   6.895  19.776  0.00  0.00    +0.000 A 
BRANCH  23  26
ATOM     26  C   UNL     1       4.978   4.641  18.397  0.00  0.00    +0.000 C 
BRANCH  26  27
ATOM     27  N   UNL     1       5.648   4.639  17.100  0.00  0.00    +0.000 N 
ATOM     28  N   UNL     1       4.866   4.309  16.006  0.00  0.00    +0.000 NA
ATOM     29  C   UNL     1       5.435   4.316  14.845  0.00  0.00    +0.000 A 
ATOM     30  C   UNL     1       6.873   4.670  14.643  0.00  0.00    +0.000 A 
ATOM     31  O   UNL     1       7.342   4.684  13.516  0.00  0.00    +0.000 OA
ATOM     32  N   UNL     1       7.558   4.949  15.784  0.00  0.00    +0.000 N 
ATOM     33  C   UNL     1       7.002   4.951  17.030  0.00  0.00    +0.000 A 
ATOM     34  O   UNL     1       7.707   5.210  18.004  0.00  0.00    +0.000 OA
ATOM     35  H   UNL     1       8.534   5.187  15.713  0.00  0.00    +0.000 HD
ENDBRANCH  26  27
ENDBRANCH  23  26
ENDBRANCH   3  20
TORSDOF 6
ENDMDL
MODEL 3
REMARK VINA RESULT:      -8.5      3.302     13.211
REMARK  Name = 
REMARK  7 active torsions:
REMARK  status: ('A' for Active; 'I' for Inactive)
REMARK    1  A    between atoms: C_1  and  O_2
REMARK    2  A    between atoms: O_2  and  C_3
REMARK    3  A    between atoms: C_6  and  C_7
REMARK    4  A    between atoms: C_10  and  C_11
REMARK    5  A    between atoms: C_13  and  C_14
REMARK    6  A    between atoms: C_17  and  C_18
REMARK    7  A    between atoms: C_18  and  N_19
REMARK                            x       y       z     vdW  Elec       q    Type
REMARK                         _______ _______ _______ _____ _____    ______ ____
ROOT
ATOM      1  C   UNL     1       0.106  10.604  19.999  0.00  0.00    +0.000 A 
ATOM      2  N   UNL     1       0.904   9.612  20.326  0.00  0.00    +0.000 NA
ATOM      3  C   UNL     1       1.219   9.063  19.099  0.00  0.00    +0.000 A 
ATOM      4  N   UNL     1       0.647   9.691  18.059  0.00  0.00    +0.000 NA
ATOM      5  O   UNL     1      -0.089  10.708  18.652  0.00  0.00    +0.000 OA
ENDROOT
BRANCH   1   9
ATOM      6  C   UNL     1      -1.932  13.514  22.437  0.00  0.00    +0.000 A 
ATOM      7  C   UNL     1      -1.712  13.723  21.063  0.00  0.00    +0.000 A 
ATOM      8  C   UNL     1      -1.048  12.774  20.274  0.00  0.00    +0.000 A 
ATOM      9  C   UNL     1      -0.565  11.588  20.834  0.00  0.00    +0.000 A 
ATOM     10  C   UNL     1      -0.755  11.380  22.206  0.00  0.00    +0.000 A 
ATOM     11  C   UNL     1      -1.431  12.323  22.988  0.00  0.00    +0.000 A 
BRANCH   6  15
ATOM     12  C   UNL     1      -4.134  16.329  24.863  0.00  0.00    +0.000 A 
ATOM     13  C   UNL     1      -4.623  15.927  23.623  0.00  0.00    +0.000 A 
ATOM     14  C   UNL     1      -3.912  15.011  22.843  0.00  0.00    +0.000 A 
ATOM     15  C   UNL     1      -2.674  14.494  23.262  0.00  0.00    +0.000 A 
ATOM     16  C   UNL     1      -2.184  14.942  24.502  0.00  0.00    +0.000 A 
ATOM     17  C   UNL     1      -2.906  15.843  25.298  0.00  0.00    +0.000 A 
BRANCH  12  19
ATOM     18  C   UNL     1      -5.587  18.181  24.730  0.00  0.00    +0.000 C 
ATOM     19  O   UNL     1      -4.915  17.222  25.540  0.00  0.00    +0.000 OA
ENDBRANCH  12  19
ENDBRANCH   6  15
ENDBRANCH   1   9
BRANCH   3  20
ATOM     20  C   UNL     1       2.097   7.910  18.960  0.00  0.00    +0.000 A 
ATOM     21  C   UNL     1       2.083   6.880  19.911  0.00  0.00    +0.000 A 
ATOM     22  C   UNL     1       2.939   5.782  19.784  0.00  0.00    +0.000 A 
ATOM     23  C   UNL     1       3.834   5.694  18.708  0.00  0.00    +0.000 A 
ATOM     24  C   UNL     1       3.832   6.709  17.743  0.00  0.00    +0.000 A 
ATOM     25  C   UNL     1       2.977   7.807  17.868  0.00  0.00    +0.000 A 
BRANCH  23  26
ATOM     26  C   UNL     1       4.780   4.523  18.585  0.00  0.00    +0.000 C 
BRANCH  26  27
ATOM     27  N   UNL     1       5.593   4.579  17.374  0.00  0.00    +0.000 N 
ATOM     28  N   UNL     1       4.917   4.438  16.173  0.00  0.00    +0.000 NA
ATOM     29  C   UNL     1       5.616   4.501  15.087  0.00  0.00    +0.000 A 
ATOM     30  C   UNL     1       7.094   4.726  15.079  0.00  0.00    +0.000 A 
ATOM     31  O   UNL     1       7.690   4.802  14.017  0.00  0.00    +0.000 OA
ATOM     32  N   UNL     1       7.663   4.822  16.309  0.00  0.00    +0.000 N 
ATOM     33  C   UNL     1       6.969   4.758  17.483  0.00  0.00    +0.000 A 
ATOM     34  O   UNL     1       7.576   4.849  18.549  0.00  0.00    +0.000 OA
ATOM     35  H   UNL     1       8.658   4.966  16.370  0.00  0.00    +0.000 HD
ENDBRANCH  26  27
ENDBRANCH  23  26
ENDBRANCH   3  20
TORSDOF 6
ENDMDL
MODEL 4
REMARK VINA RESULT:      -8.5      2.594      4.281
REMARK  Name = 
REMARK  7 active torsions:
REMARK  status: ('A' for Active; 'I' for Inactive)
REMARK    1  A    between atoms: C_1  and  O_2
REMARK    2  A    between atoms: O_2  and  C_3
REMARK    3  A    between atoms: C_6  and  C_7
REMARK    4  A    between atoms: C_10  and  C_11
REMARK    5  A    between atoms: C_13  and  C_14
REMARK    6  A    between atoms: C_17  and  C_18
REMARK    7  A    between atoms: C_18  and  N_19
REMARK                            x       y       z     vdW  Elec       q    Type
REMARK                         _______ _______ _______ _____ _____    ______ ____
ROOT
ATOM      1  C   UNL     1       0.626   9.592  20.800  0.00  0.00    +0.000 A 
ATOM      2  N   UNL     1      -0.337  10.427  20.478  0.00  0.00    +0.000 NA
ATOM      3  C   UNL     1      -0.644  11.013  21.690  0.00  0.00    +0.000 A 
ATOM      4  N   UNL     1       0.099  10.566  22.714  0.00  0.00    +0.000 NA
ATOM      5  O   UNL     1       0.937   9.626  22.129  0.00  0.00    +0.000 OA
ENDROOT
BRANCH   1   9
ATOM      6  C   UNL     1       2.951   6.927  18.340  0.00  0.00    +0.000 A 
ATOM      7  C   UNL     1       2.480   8.160  17.855  0.00  0.00    +0.000 A 
ATOM      8  C   UNL     1       1.723   9.024  18.658  0.00  0.00    +0.000 A 
ATOM      9  C   UNL     1       1.396   8.677  19.972  0.00  0.00    +0.000 A 
ATOM     10  C   UNL     1       1.837   7.441  20.458  0.00  0.00    +0.000 A 
ATOM     11  C   UNL     1       2.605   6.587  19.659  0.00  0.00    +0.000 A 
BRANCH   6  15
ATOM     12  C   UNL     1       5.443   4.329  15.952  0.00  0.00    +0.000 A 
ATOM     13  C   UNL     1       5.574   5.713  15.867  0.00  0.00    +0.000 A 
ATOM     14  C   UNL     1       4.771   6.550  16.646  0.00  0.00    +0.000 A 
ATOM     15  C   UNL     1       3.790   6.034  17.508  0.00  0.00    +0.000 A 
ATOM     16  C   UNL     1       3.652   4.634  17.551  0.00  0.00    +0.000 A 
ATOM     17  C   UNL     1       4.472   3.790  16.788  0.00  0.00    +0.000 A 
BRANCH  12  19
ATOM     18  C   UNL     1       6.240   3.944  13.767  0.00  0.00    +0.000 C 
ATOM     19  O   UNL     1       6.283   3.610  15.150  0.00  0.00    +0.000 OA
ENDBRANCH  12  19
ENDBRANCH   6  15
ENDBRANCH   1   9
BRANCH   3  20
ATOM     20  C   UNL     1      -1.680  12.027  21.828  0.00  0.00    +0.000 A 
ATOM     21  C   UNL     1      -2.107  12.770  20.719  0.00  0.00    +0.000 A 
ATOM     22  C   UNL     1      -3.090  13.756  20.857  0.00  0.00    +0.000 A 
ATOM     23  C   UNL     1      -3.660  14.025  22.109  0.00  0.00    +0.000 A 
ATOM     24  C   UNL     1      -3.254  13.267  23.214  0.00  0.00    +0.000 A 
ATOM     25  C   UNL     1      -2.272  12.282  23.078  0.00  0.00    +0.000 A 
BRANCH  23  26
ATOM     26  C   UNL     1      -4.701  15.109  22.266  0.00  0.00    +0.000 C 
BRANCH  26  27
ATOM     27  N   UNL     1      -5.267  15.536  20.990  0.00  0.00    +0.000 N 
ATOM     28  N   UNL     1      -6.328  14.787  20.507  0.00  0.00    +0.000 NA
ATOM     29  C   UNL     1      -6.855  15.157  19.386  0.00  0.00    +0.000 A 
ATOM     30  C   UNL     1      -6.379  16.344  18.613  0.00  0.00    +0.000 A 
ATOM     31  O   UNL     1      -6.939  16.656  17.574  0.00  0.00    +0.000 OA
ATOM     32  N   UNL     1      -5.315  16.992  19.158  0.00  0.00    +0.000 N 
ATOM     33  C   UNL     1      -4.723  16.637  20.336  0.00  0.00    +0.000 A 
ATOM     34  O   UNL     1      -3.759  17.283  20.745  0.00  0.00    +0.000 OA
ATOM     35  H   UNL     1      -4.943  17.796  18.679  0.00  0.00    +0.000 HD
ENDBRANCH  26  27
ENDBRANCH  23  26
ENDBRANCH   3  20
TORSDOF 6
ENDMDL
MODEL 5
REMARK VINA RESULT:      -8.5      2.355      4.002
REMARK  Name = 
REMARK  7 active torsions:
REMARK  status: ('A' for Active; 'I' for Inactive)
REMARK    1  A    between atoms: C_1  and  O_2
REMARK    2  A    between atoms: O_2  and  C_3
REMARK    3  A    between atoms: C_6  and  C_7
REMARK    4  A    between atoms: C_10  and  C_11
REMARK    5  A    between atoms: C_13  and  C_14
REMARK    6  A    between atoms: C_17  and  C_18
REMARK    7  A    between atoms: C_18  and  N_19
REMARK                            x       y       z     vdW  Elec       q    Type
REMARK                         _______ _______ _______ _____ _____    ______ ____
ROOT
ATOM      1  C   UNL     1       0.705   9.267  21.339  0.00  0.00    +0.000 A 
ATOM      2  N   UNL     1      -0.098  10.280  21.106  0.00  0.00    +0.000 NA
ATOM      3  C   UNL     1      -0.442  10.691  22.378  0.00  0.00    +0.000 A 
ATOM      4  N   UNL     1       0.128   9.968  23.356  0.00  0.00    +0.000 NA
ATOM      5  O   UNL     1       0.884   9.026  22.671  0.00  0.00    +0.000 OA
ENDROOT
BRANCH   1   9
ATOM      6  C   UNL     1       2.876   6.744  18.604  0.00  0.00    +0.000 A 
ATOM      7  C   UNL     1       2.473   8.044  18.250  0.00  0.00    +0.000 A 
ATOM      8  C   UNL     1       1.766   8.861  19.142  0.00  0.00    +0.000 A 
ATOM      9  C   UNL     1       1.423   8.401  20.417  0.00  0.00    +0.000 A 
ATOM     10  C   UNL     1       1.796   7.099  20.771  0.00  0.00    +0.000 A 
ATOM     11  C   UNL     1       2.515   6.291  19.883  0.00  0.00    +0.000 A 
BRANCH   6  15
ATOM     12  C   UNL     1       5.217   4.271  15.945  0.00  0.00    +0.000 A 
ATOM     13  C   UNL     1       5.436   5.645  16.013  0.00  0.00    +0.000 A 
ATOM     14  C   UNL     1       4.682   6.441  16.879  0.00  0.00    +0.000 A 
ATOM     15  C   UNL     1       3.663   5.896  17.679  0.00  0.00    +0.000 A 
ATOM     16  C   UNL     1       3.437   4.512  17.566  0.00  0.00    +0.000 A 
ATOM     17  C   UNL     1       4.208   3.706  16.716  0.00  0.00    +0.000 A 
BRANCH  12  19
ATOM     18  C   UNL     1       5.874   3.962  13.702  0.00  0.00    +0.000 C 
ATOM     19  O   UNL     1       6.016   3.593  15.070  0.00  0.00    +0.000 OA
ENDBRANCH  12  19
ENDBRANCH   6  15
ENDBRANCH   1   9
BRANCH   3  20
ATOM     20  C   UNL     1      -1.338  11.812  22.623  0.00  0.00    +0.000 A 
ATOM     21  C   UNL     1      -2.518  11.637  23.361  0.00  0.00    +0.000 A 
ATOM     22  C   UNL     1      -3.386  12.711  23.582  0.00  0.00    +0.000 A 
ATOM     23  C   UNL     1      -3.097  13.981  23.063  0.00  0.00    +0.000 A 
ATOM     24  C   UNL     1      -1.907  14.164  22.347  0.00  0.00    +0.000 A 
ATOM     25  C   UNL     1      -1.039  13.092  22.126  0.00  0.00    +0.000 A 
BRANCH  23  26
ATOM     26  C   UNL     1      -4.048  15.136  23.275  0.00  0.00    +0.000 C 
BRANCH  26  27
ATOM     27  N   UNL     1      -4.939  15.348  22.139  0.00  0.00    +0.000 N 
ATOM     28  N   UNL     1      -6.027  14.496  22.044  0.00  0.00    +0.000 NA
ATOM     29  C   UNL     1      -6.838  14.676  21.054  0.00  0.00    +0.000 A 
ATOM     30  C   UNL     1      -6.656  15.754  20.035  0.00  0.00    +0.000 A 
ATOM     31  O   UNL     1      -7.475  15.888  19.139  0.00  0.00    +0.000 OA
ATOM     32  N   UNL     1      -5.543  16.516  20.202  0.00  0.00    +0.000 N 
ATOM     33  C   UNL     1      -4.656  16.362  21.229  0.00  0.00    +0.000 A 
ATOM     34  O   UNL     1      -3.672  17.098  21.291  0.00  0.00    +0.000 OA
ATOM     35  H   UNL     1      -5.360  17.255  19.543  0.00  0.00    +0.000 HD
ENDBRANCH  26  27
ENDBRANCH  23  26
ENDBRANCH   3  20
TORSDOF 6
ENDMDL
MODEL 6
REMARK VINA RESULT:      -8.5      2.538      4.465
REMARK  Name = 
REMARK  7 active torsions:
REMARK  status: ('A' for Active; 'I' for Inactive)
REMARK    1  A    between atoms: C_1  and  O_2
REMARK    2  A    between atoms: O_2  and  C_3
REMARK    3  A    between atoms: C_6  and  C_7
REMARK    4  A    between atoms: C_10  and  C_11
REMARK    5  A    between atoms: C_13  and  C_14
REMARK    6  A    between atoms: C_17  and  C_18
REMARK    7  A    between atoms: C_18  and  N_19
REMARK                            x       y       z     vdW  Elec       q    Type
REMARK                         _______ _______ _______ _____ _____    ______ ____
ROOT
ATOM      1  C   UNL     1       0.347   9.966  20.856  0.00  0.00    +0.000 A 
ATOM      2  N   UNL     1      -0.679  10.717  20.523  0.00  0.00    +0.000 NA
ATOM      3  C   UNL     1      -0.954  11.387  21.699  0.00  0.00    +0.000 A 
ATOM      4  N   UNL     1      -0.131  11.069  22.711  0.00  0.00    +0.000 NA
ATOM      5  O   UNL     1       0.727  10.129  22.157  0.00  0.00    +0.000 OA
ENDROOT
BRANCH   1   9
ATOM      6  C   UNL     1       2.690   7.228  18.494  0.00  0.00    +0.000 A 
ATOM      7  C   UNL     1       2.199   8.434  17.960  0.00  0.00    +0.000 A 
ATOM      8  C   UNL     1       1.436   9.321  18.731  0.00  0.00    +0.000 A 
ATOM      9  C   UNL     1       1.124   9.027  20.062  0.00  0.00    +0.000 A 
ATOM     10  C   UNL     1       1.586   7.818  20.597  0.00  0.00    +0.000 A 
ATOM     11  C   UNL     1       2.359   6.941  19.829  0.00  0.00    +0.000 A 
BRANCH   6  15
ATOM     12  C   UNL     1       5.111   4.551  16.121  0.00  0.00    +0.000 A 
ATOM     13  C   UNL     1       4.110   4.054  16.951  0.00  0.00    +0.000 A 
ATOM     14  C   UNL     1       3.324   4.923  17.712  0.00  0.00    +0.000 A 
ATOM     15  C   UNL     1       3.535   6.312  17.694  0.00  0.00    +0.000 A 
ATOM     16  C   UNL     1       4.575   6.787  16.875  0.00  0.00    +0.000 A 
ATOM     17  C   UNL     1       5.351   5.920  16.091  0.00  0.00    +0.000 A 
BRANCH  12  19
ATOM     18  C   UNL     1       6.378   4.063  14.193  0.00  0.00    +0.000 C 
ATOM     19  O   UNL     1       5.811   3.611  15.419  0.00  0.00    +0.000 OA
ENDBRANCH  12  19
ENDBRANCH   6  15
ENDBRANCH   1   9
BRANCH   3  20
ATOM     20  C   UNL     1      -2.037  12.352  21.814  0.00  0.00    +0.000 A 
ATOM     21  C   UNL     1      -2.190  13.374  20.866  0.00  0.00    +0.000 A 
ATOM     22  C   UNL     1      -3.222  14.311  20.988  0.00  0.00    +0.000 A 
ATOM     23  C   UNL     1      -4.118  14.250  22.064  0.00  0.00    +0.000 A 
ATOM     24  C   UNL     1      -3.983  13.216  22.999  0.00  0.00    +0.000 A 
ATOM     25  C   UNL     1      -2.953  12.279  22.878  0.00  0.00    +0.000 A 
BRANCH  23  26
ATOM     26  C   UNL     1      -5.215  15.278  22.214  0.00  0.00    +0.000 C 
BRANCH  26  27
ATOM     27  N   UNL     1      -5.975  15.474  20.983  0.00  0.00    +0.000 N 
ATOM     28  N   UNL     1      -5.599  16.548  20.193  0.00  0.00    +0.000 NA
ATOM     29  C   UNL     1      -6.248  16.730  19.090  0.00  0.00    +0.000 A 
ATOM     30  C   UNL     1      -7.361  15.840  18.641  0.00  0.00    +0.000 A 
ATOM     31  O   UNL     1      -7.916  16.052  17.575  0.00  0.00    +0.000 OA
ATOM     32  N   UNL     1      -7.671  14.835  19.503  0.00  0.00    +0.000 N 
ATOM     33  C   UNL     1      -7.017  14.604  20.678  0.00  0.00    +0.000 A 
ATOM     34  O   UNL     1      -7.376  13.671  21.395  0.00  0.00    +0.000 OA
ATOM     35  H   UNL     1      -8.418  14.204  19.259  0.00  0.00    +0.000 HD
ENDBRANCH  26  27
ENDBRANCH  23  26
ENDBRANCH   3  20
TORSDOF 6
ENDMDL
MODEL 7
REMARK VINA RESULT:      -8.4      3.119     13.004
REMARK  Name = 
REMARK  7 active torsions:
REMARK  status: ('A' for Active; 'I' for Inactive)
REMARK    1  A    between atoms: C_1  and  O_2
REMARK    2  A    between atoms: O_2  and  C_3
REMARK    3  A    between atoms: C_6  and  C_7
REMARK    4  A    between atoms: C_10  and  C_11
REMARK    5  A    between atoms: C_13  and  C_14
REMARK    6  A    between atoms: C_17  and  C_18
REMARK    7  A    between atoms: C_18  and  N_19
REMARK                            x       y       z     vdW  Elec       q    Type
REMARK                         _______ _______ _______ _____ _____    ______ ____
ROOT
ATOM      1  C   UNL     1       0.009  10.191  21.598  0.00  0.00    +0.000 A 
ATOM      2  N   UNL     1       0.061   9.271  20.661  0.00  0.00    +0.000 NA
ATOM      3  C   UNL     1       1.123   8.489  21.067  0.00  0.00    +0.000 A 
ATOM      4  N   UNL     1       1.699   8.903  22.208  0.00  0.00    +0.000 NA
ATOM      5  O   UNL     1       0.966  10.028  22.558  0.00  0.00    +0.000 OA
ENDROOT
BRANCH   1   9
ATOM      6  C   UNL     1      -2.728  13.486  22.066  0.00  0.00    +0.000 A 
ATOM      7  C   UNL     1      -2.357  13.007  20.796  0.00  0.00    +0.000 A 
ATOM      8  C   UNL     1      -1.465  11.936  20.649  0.00  0.00    +0.000 A 
ATOM      9  C   UNL     1      -0.900  11.315  21.766  0.00  0.00    +0.000 A 
ATOM     10  C   UNL     1      -1.242  11.799  23.034  0.00  0.00    +0.000 A 
ATOM     11  C   UNL     1      -2.144  12.859  23.179  0.00  0.00    +0.000 A 
BRANCH   6  15
ATOM     12  C   UNL     1      -5.555  16.711  22.583  0.00  0.00    +0.000 A 
ATOM     13  C   UNL     1      -5.776  15.472  23.179  0.00  0.00    +0.000 A 
ATOM     14  C   UNL     1      -4.856  14.433  23.015  0.00  0.00    +0.000 A 
ATOM     15  C   UNL     1      -3.705  14.588  22.225  0.00  0.00    +0.000 A 
ATOM     16  C   UNL     1      -3.522  15.837  21.605  0.00  0.00    +0.000 A 
ATOM     17  C   UNL     1      -4.430  16.890  21.786  0.00  0.00    +0.000 A 
BRANCH  12  19
ATOM     18  C   UNL     1      -6.329  18.438  23.989  0.00  0.00    +0.000 C 
ATOM     19  O   UNL     1      -6.516  17.653  22.816  0.00  0.00    +0.000 OA
ENDBRANCH  12  19
ENDBRANCH   6  15
ENDBRANCH   1   9
BRANCH   3  20
ATOM     20  C   UNL     1       1.565   7.320  20.320  0.00  0.00    +0.000 A 
ATOM     21  C   UNL     1       1.385   6.030  20.838  0.00  0.00    +0.000 A 
ATOM     22  C   UNL     1       1.825   4.909  20.126  0.00  0.00    +0.000 A 
ATOM     23  C   UNL     1       2.462   5.055  18.886  0.00  0.00    +0.000 A 
ATOM     24  C   UNL     1       2.621   6.341  18.355  0.00  0.00    +0.000 A 
ATOM     25  C   UNL     1       2.182   7.462  19.065  0.00  0.00    +0.000 A 
BRANCH  23  26
ATOM     26  C   UNL     1       2.965   3.848  18.129  0.00  0.00    +0.000 C 
BRANCH  26  27
ATOM     27  N   UNL     1       4.312   4.035  17.599  0.00  0.00    +0.000 N 
ATOM     28  N   UNL     1       4.408   4.275  16.238  0.00  0.00    +0.000 NA
ATOM     29  C   UNL     1       5.591   4.460  15.750  0.00  0.00    +0.000 A 
ATOM     30  C   UNL     1       6.831   4.434  16.584  0.00  0.00    +0.000 A 
ATOM     31  O   UNL     1       7.916   4.643  16.064  0.00  0.00    +0.000 OA
ATOM     32  N   UNL     1       6.629   4.161  17.900  0.00  0.00    +0.000 N 
ATOM     33  C   UNL     1       5.401   3.956  18.460  0.00  0.00    +0.000 A 
ATOM     34  O   UNL     1       5.321   3.708  19.663  0.00  0.00    +0.000 OA
ATOM     35  H   UNL     1       7.428   4.123  18.512  0.00  0.00    +0.000 HD
ENDBRANCH  26  27
ENDBRANCH  23  26
ENDBRANCH   3  20
TORSDOF 6
ENDMDL
MODEL 8
REMARK VINA RESULT:      -8.4      3.244     13.217
REMARK  Name = 
REMARK  7 active torsions:
REMARK  status: ('A' for Active; 'I' for Inactive)
REMARK    1  A    between atoms: C_1  and  O_2
REMARK    2  A    between atoms: O_2  and  C_3
REMARK    3  A    between atoms: C_6  and  C_7
REMARK    4  A    between atoms: C_10  and  C_11
REMARK    5  A    between atoms: C_13  and  C_14
REMARK    6  A    between atoms: C_17  and  C_18
REMARK    7  A    between atoms: C_18  and  N_19
REMARK                            x       y       z     vdW  Elec       q    Type
REMARK                         _______ _______ _______ _____ _____    ______ ____
ROOT
ATOM      1  C   UNL     1       0.027  10.378  19.751  0.00  0.00    +0.000 A 
ATOM      2  N   UNL     1       0.975   9.526  20.070  0.00  0.00    +0.000 NA
ATOM      3  C   UNL     1       1.247   8.914  18.863  0.00  0.00    +0.000 A 
ATOM      4  N   UNL     1       0.505   9.371  17.842  0.00  0.00    +0.000 NA
ATOM      5  O   UNL     1      -0.302  10.337  18.427  0.00  0.00    +0.000 OA
ENDROOT
BRANCH   1   9
ATOM      6  C   UNL     1      -2.150  13.203  22.168  0.00  0.00    +0.000 A 
ATOM      7  C   UNL     1      -2.362  13.098  20.781  0.00  0.00    +0.000 A 
ATOM      8  C   UNL     1      -1.651  12.179  19.998  0.00  0.00    +0.000 A 
ATOM      9  C   UNL     1      -0.690  11.341  20.573  0.00  0.00    +0.000 A 
ATOM     10  C   UNL     1      -0.453  11.454  21.948  0.00  0.00    +0.000 A 
ATOM     11  C   UNL     1      -1.175  12.363  22.729  0.00  0.00    +0.000 A 
BRANCH   6  15
ATOM     12  C   UNL     1      -4.408  15.987  24.580  0.00  0.00    +0.000 A 
ATOM     13  C   UNL     1      -3.105  15.642  24.928  0.00  0.00    +0.000 A 
ATOM     14  C   UNL     1      -2.375  14.746  24.142  0.00  0.00    +0.000 A 
ATOM     15  C   UNL     1      -2.934  14.142  23.004  0.00  0.00    +0.000 A 
ATOM     16  C   UNL     1      -4.263  14.481  22.692  0.00  0.00    +0.000 A 
ATOM     17  C   UNL     1      -4.991  15.397  23.464  0.00  0.00    +0.000 A 
BRANCH  12  19
ATOM     18  C   UNL     1      -4.654  18.239  25.234  0.00  0.00    +0.000 C 
ATOM     19  O   UNL     1      -5.022  16.875  25.416  0.00  0.00    +0.000 OA
ENDBRANCH  12  19
ENDBRANCH   6  15
ENDBRANCH   1   9
BRANCH   3  20
ATOM     20  C   UNL     1       2.255   7.872  18.724  0.00  0.00    +0.000 A 
ATOM     21  C   UNL     1       3.279   7.989  17.773  0.00  0.00    +0.000 A 
ATOM     22  C   UNL     1       4.236   6.980  17.630  0.00  0.00    +0.000 A 
ATOM     23  C   UNL     1       4.185   5.828  18.427  0.00  0.00    +0.000 A 
ATOM     24  C   UNL     1       3.178   5.720  19.394  0.00  0.00    +0.000 A 
ATOM     25  C   UNL     1       2.221   6.727  19.539  0.00  0.00    +0.000 A 
BRANCH  23  26
ATOM     26  C   UNL     1       5.201   4.723  18.253  0.00  0.00    +0.000 C 
BRANCH  26  27
ATOM     27  N   UNL     1       5.748   4.669  16.901  0.00  0.00    +0.000 N 
ATOM     28  N   UNL     1       4.938   4.100  15.932  0.00  0.00    +0.000 NA
ATOM     29  C   UNL     1       5.397   4.056  14.724  0.00  0.00    +0.000 A 
ATOM     30  C   UNL     1       6.738   4.593  14.340  0.00  0.00    +0.000 A 
ATOM     31  O   UNL     1       7.101   4.545  13.176  0.00  0.00    +0.000 OA
ATOM     32  N   UNL     1       7.465   5.103  15.370  0.00  0.00    +0.000 N 
ATOM     33  C   UNL     1       7.025   5.168  16.661  0.00  0.00    +0.000 A 
ATOM     34  O   UNL     1       7.760   5.642  17.526  0.00  0.00    +0.000 OA
ATOM     35  H   UNL     1       8.381   5.474  15.176  0.00  0.00    +0.000 HD
ENDBRANCH  26  27
ENDBRANCH  23  26
ENDBRANCH   3  20
TORSDOF 6
ENDMDL
MODEL 9
REMARK VINA RESULT:      -8.4      3.320     13.215
REMARK  Name = 
REMARK  7 active torsions:
REMARK  status: ('A' for Active; 'I' for Inactive)
REMARK    1  A    between atoms: C_1  and  O_2
REMARK    2  A    between atoms: O_2  and  C_3
REMARK    3  A    between atoms: C_6  and  C_7
REMARK    4  A    between atoms: C_10  and  C_11
REMARK    5  A    between atoms: C_13  and  C_14
REMARK    6  A    between atoms: C_17  and  C_18
REMARK    7  A    between atoms: C_18  and  N_19
REMARK                            x       y       z     vdW  Elec       q    Type
REMARK                         _______ _______ _______ _____ _____    ______ ____
ROOT
ATOM      1  C   UNL     1      -0.040  10.630  19.829  0.00  0.00    +0.000 A 
ATOM      2  N   UNL     1       0.856   9.721  20.142  0.00  0.00    +0.000 NA
ATOM      3  C   UNL     1       1.150   9.156  18.917  0.00  0.00    +0.000 A 
ATOM      4  N   UNL     1       0.472   9.696  17.891  0.00  0.00    +0.000 NA
ATOM      5  O   UNL     1      -0.316  10.668  18.492  0.00  0.00    +0.000 OA
ENDROOT
BRANCH   1   9
ATOM      6  C   UNL     1      -2.087  13.456  22.356  0.00  0.00    +0.000 A 
ATOM      7  C   UNL     1      -1.681  12.196  22.832  0.00  0.00    +0.000 A 
ATOM      8  C   UNL     1      -1.017  11.279  22.007  0.00  0.00    +0.000 A 
ATOM      9  C   UNL     1      -0.748  11.584  20.669  0.00  0.00    +0.000 A 
ATOM     10  C   UNL     1      -1.169  12.825  20.177  0.00  0.00    +0.000 A 
ATOM     11  C   UNL     1      -1.820  13.744  21.008  0.00  0.00    +0.000 A 
BRANCH   6  15
ATOM     12  C   UNL     1      -3.998  16.381  24.897  0.00  0.00    +0.000 A 
ATOM     13  C   UNL     1      -2.622  16.179  24.959  0.00  0.00    +0.000 A 
ATOM     14  C   UNL     1      -2.006  15.237  24.131  0.00  0.00    +0.000 A 
ATOM     15  C   UNL     1      -2.748  14.444  23.240  0.00  0.00    +0.000 A 
ATOM     16  C   UNL     1      -4.141  14.642  23.221  0.00  0.00    +0.000 A 
ATOM     17  C   UNL     1      -4.760  15.603  24.033  0.00  0.00    +0.000 A 
BRANCH  12  19
ATOM     18  C   UNL     1      -5.398  18.259  25.163  0.00  0.00    +0.000 C 
ATOM     19  O   UNL     1      -4.490  17.330  25.747  0.00  0.00    +0.000 OA
ENDBRANCH  12  19
ENDBRANCH   6  15
ENDBRANCH   1   9
BRANCH   3  20
ATOM     20  C   UNL     1       2.116   8.077  18.765  0.00  0.00    +0.000 A 
ATOM     21  C   UNL     1       2.203   7.054  19.720  0.00  0.00    +0.000 A 
ATOM     22  C   UNL     1       3.142   6.027  19.580  0.00  0.00    +0.000 A 
ATOM     23  C   UNL     1       4.020   6.006  18.487  0.00  0.00    +0.000 A 
ATOM     24  C   UNL     1       3.918   7.012  17.519  0.00  0.00    +0.000 A 
ATOM     25  C   UNL     1       2.980   8.039  17.657  0.00  0.00    +0.000 A 
BRANCH  23  26
ATOM     26  C   UNL     1       5.055   4.913  18.350  0.00  0.00    +0.000 C 
BRANCH  26  27
ATOM     27  N   UNL     1       5.748   4.952  17.067  0.00  0.00    +0.000 N 
ATOM     28  N   UNL     1       5.121   4.313  16.010  0.00  0.00    +0.000 NA
ATOM     29  C   UNL     1       5.710   4.348  14.860  0.00  0.00    +0.000 A 
ATOM     30  C   UNL     1       7.011   5.047  14.630  0.00  0.00    +0.000 A 
ATOM     31  O   UNL     1       7.501   5.065  13.513  0.00  0.00    +0.000 OA
ATOM     32  N   UNL     1       7.557   5.616  15.738  0.00  0.00    +0.000 N 
ATOM     33  C   UNL     1       6.975   5.602  16.973  0.00  0.00    +0.000 A 
ATOM     34  O   UNL     1       7.551   6.140  17.917  0.00  0.00    +0.000 OA
ATOM     35  H   UNL     1       8.438   6.096  15.649  0.00  0.00    +0.000 HD
ENDBRANCH  26  27
ENDBRANCH  23  26
ENDBRANCH   3  20
TORSDOF 6
ENDMDL
