MODEL 1
REMARK VINA RESULT:      -6.4      0.000      0.000
REMARK  Name = 
REMARK  6 active torsions:
REMARK  status: ('A' for Active; 'I' for Inactive)
REMARK    1  A    between atoms: C_1  and  O_2
REMARK    2  A    between atoms: O_2  and  C_3
REMARK    3  A    between atoms: C_3  and  C_5
REMARK    4  A    between atoms: C_5  and  C_6
REMARK    5  A    between atoms: C_8  and  S_9
REMARK    6  A    between atoms: S_9  and  C_10
REMARK                            x       y       z     vdW  Elec       q    Type
REMARK                         _______ _______ _______ _____ _____    ______ ____
ROOT
ATOM      1  C   UNL     1       6.470   5.217  16.003  0.00  0.00    +0.000 C 
ATOM      2  C   UNL     1       5.221   5.711  16.119  0.00  0.00    +0.000 C 
ENDROOT
BRANCH   1   3
ATOM      3  C   UNL     1       6.913   4.866  14.626  0.00  0.00    +0.000 C 
ATOM      4  O   UNL     1       7.774   5.479  14.010  0.00  0.00    +0.000 OA
BRANCH   3   6
ATOM      5  C   UNL     1       6.317   3.616  12.725  0.00  0.00    +0.000 C 
ATOM      6  O   UNL     1       6.206   3.824  14.133  0.00  0.00    +0.000 OA
ENDBRANCH   3   6
ENDBRANCH   1   3
BRANCH   1   7
ATOM      7  C   UNL     1       7.338   5.040  17.196  0.00  0.00    +0.000 C 
ATOM      8  O   UNL     1       8.238   4.213  17.281  0.00  0.00    +0.000 OA
ENDBRANCH   1   7
BRANCH   2   9
ATOM      9  S   UNL     1       4.442   6.155  17.607  0.00  0.00    +0.000 S 
BRANCH   9  10
ATOM     10  C   UNL     1       3.447   4.701  17.869  0.00  0.00    +0.000 A 
ATOM     11  C   UNL     1       2.056   4.807  17.977  0.00  0.00    +0.000 A 
ATOM     12  C   UNL     1       1.272   3.661  18.126  0.00  0.00    +0.000 A 
ATOM     13  C   UNL     1       1.873   2.403  18.160  0.00  0.00    +0.000 A 
ATOM     14  C   UNL     1       3.256   2.289  18.045  0.00  0.00    +0.000 A 
ATOM     15  C   UNL     1       4.043   3.435  17.897  0.00  0.00    +0.000 A 
ENDBRANCH   9  10
ENDBRANCH   2   9
TORSDOF 5
ENDMDL
MODEL 2
REMARK VINA RESULT:      -6.3      1.635      2.159
REMARK  Name = 
REMARK  6 active torsions:
REMARK  status: ('A' for Active; 'I' for Inactive)
REMARK    1  A    between atoms: C_1  and  O_2
REMARK    2  A    between atoms: O_2  and  C_3
REMARK    3  A    between atoms: C_3  and  C_5
REMARK    4  A    between atoms: C_5  and  C_6
REMARK    5  A    between atoms: C_8  and  S_9
REMARK    6  A    between atoms: S_9  and  C_10
REMARK                            x       y       z     vdW  Elec       q    Type
REMARK                         _______ _______ _______ _____ _____    ______ ____
ROOT
ATOM      1  C   UNL     1       5.858   5.297  17.572  0.00  0.00    +0.000 C 
ATOM      2  C   UNL     1       4.599   5.577  17.179  0.00  0.00    +0.000 C 
ENDROOT
BRANCH   1   3
ATOM      3  C   UNL     1       6.656   4.436  16.657  0.00  0.00    +0.000 C 
ATOM      4  O   UNL     1       7.875   4.343  16.699  0.00  0.00    +0.000 OA
BRANCH   3   6
ATOM      5  C   UNL     1       6.279   3.944  14.388  0.00  0.00    +0.000 C 
ATOM      6  O   UNL     1       5.866   3.819  15.749  0.00  0.00    +0.000 OA
ENDBRANCH   3   6
ENDBRANCH   1   3
BRANCH   1   7
ATOM      7  C   UNL     1       6.398   5.828  18.850  0.00  0.00    +0.000 C 
ATOM      8  O   UNL     1       6.707   5.136  19.813  0.00  0.00    +0.000 OA
ENDBRANCH   1   7
BRANCH   2   9
ATOM      9  S   UNL     1       3.444   6.514  18.075  0.00  0.00    +0.000 S 
BRANCH   9  10
ATOM     10  C   UNL     1       2.421   5.201  18.710  0.00  0.00    +0.000 A 
ATOM     11  C   UNL     1       2.025   4.150  17.877  0.00  0.00    +0.000 A 
ATOM     12  C   UNL     1       1.271   3.091  18.389  0.00  0.00    +0.000 A 
ATOM     13  C   UNL     1       0.915   3.075  19.737  0.00  0.00    +0.000 A 
ATOM     14  C   UNL     1       1.312   4.115  20.574  0.00  0.00    +0.000 A 
ATOM     15  C   UNL     1       2.066   5.175  20.064  0.00  0.00    +0.000 A 
ENDBRANCH   9  10
ENDBRANCH   2   9
TORSDOF 5
ENDMDL
MODEL 3
REMARK VINA RESULT:      -6.2      1.204      1.607
REMARK  Name = 
REMARK  6 active torsions:
REMARK  status: ('A' for Active; 'I' for Inactive)
REMARK    1  A    between atoms: C_1  and  O_2
REMARK    2  A    between atoms: O_2  and  C_3
REMARK    3  A    between atoms: C_3  and  C_5
REMARK    4  A    between atoms: C_5  and  C_6
REMARK    5  A    between atoms: C_8  and  S_9
REMARK    6  A    between atoms: S_9  and  C_10
REMARK                            x       y       z     vdW  Elec       q    Type
REMARK                         _______ _______ _______ _____ _____    ______ ____
ROOT
ATOM      1  C   UNL     1       6.290   5.678  16.251  0.00  0.00    +0.000 C 
ATOM      2  C   UNL     1       4.967   5.475  16.413  0.00  0.00    +0.000 C 
ENDROOT
BRANCH   1   3
ATOM      3  C   UNL     1       6.920   4.998  15.086  0.00  0.00    +0.000 C 
ATOM      4  O   UNL     1       7.931   5.400  14.528  0.00  0.00    +0.000 OA
BRANCH   3   6
ATOM      5  C   UNL     1       6.097   3.721  13.290  0.00  0.00    +0.000 C 
ATOM      6  O   UNL     1       6.204   3.917  14.701  0.00  0.00    +0.000 OA
ENDBRANCH   3   6
ENDBRANCH   1   3
BRANCH   1   7
ATOM      7  C   UNL     1       7.055   6.533  17.193  0.00  0.00    +0.000 C 
ATOM      8  O   UNL     1       7.478   7.652  16.926  0.00  0.00    +0.000 OA
ENDBRANCH   1   7
BRANCH   2   9
ATOM      9  S   UNL     1       3.997   6.108  17.708  0.00  0.00    +0.000 S 
BRANCH   9  10
ATOM     10  C   UNL     1       2.981   4.684  18.045  0.00  0.00    +0.000 A 
ATOM     11  C   UNL     1       3.192   3.487  17.353  0.00  0.00    +0.000 A 
ATOM     12  C   UNL     1       2.434   2.354  17.658  0.00  0.00    +0.000 A 
ATOM     13  C   UNL     1       1.467   2.410  18.661  0.00  0.00    +0.000 A 
ATOM     14  C   UNL     1       1.257   3.597  19.359  0.00  0.00    +0.000 A 
ATOM     15  C   UNL     1       2.013   4.731  19.055  0.00  0.00    +0.000 A 
ENDBRANCH   9  10
ENDBRANCH   2   9
TORSDOF 5
ENDMDL
MODEL 4
REMARK VINA RESULT:      -6.1      2.102      3.352
REMARK  Name = 
REMARK  6 active torsions:
REMARK  status: ('A' for Active; 'I' for Inactive)
REMARK    1  A    between atoms: C_1  and  O_2
REMARK    2  A    between atoms: O_2  and  C_3
REMARK    3  A    between atoms: C_3  and  C_5
REMARK    4  A    between atoms: C_5  and  C_6
REMARK    5  A    between atoms: C_8  and  S_9
REMARK    6  A    between atoms: S_9  and  C_10
REMARK                            x       y       z     vdW  Elec       q    Type
REMARK                         _______ _______ _______ _____ _____    ______ ____
ROOT
ATOM      1  C   UNL     1       5.572   4.821  16.989  0.00  0.00    +0.000 C 
ATOM      2  C   UNL     1       4.783   3.765  17.274  0.00  0.00    +0.000 C 
ENDROOT
BRANCH   1   3
ATOM      3  C   UNL     1       7.026   4.644  17.251  0.00  0.00    +0.000 C 
ATOM      4  O   UNL     1       7.864   4.501  16.372  0.00  0.00    +0.000 OA
BRANCH   3   6
ATOM      5  C   UNL     1       7.739   5.840  19.147  0.00  0.00    +0.000 C 
ATOM      6  O   UNL     1       7.287   4.611  18.578  0.00  0.00    +0.000 OA
ENDBRANCH   3   6
ENDBRANCH   1   3
BRANCH   1   7
ATOM      7  C   UNL     1       5.000   6.080  16.447  0.00  0.00    +0.000 C 
ATOM      8  O   UNL     1       5.458   6.694  15.491  0.00  0.00    +0.000 OA
ENDBRANCH   1   7
BRANCH   2   9
ATOM      9  S   UNL     1       3.055   3.718  17.109  0.00  0.00    +0.000 S 
BRANCH   9  10
ATOM     10  C   UNL     1       2.592   3.633  18.827  0.00  0.00    +0.000 A 
ATOM     11  C   UNL     1       2.736   4.753  19.653  0.00  0.00    +0.000 A 
ATOM     12  C   UNL     1       2.320   4.703  20.986  0.00  0.00    +0.000 A 
ATOM     13  C   UNL     1       1.752   3.537  21.497  0.00  0.00    +0.000 A 
ATOM     14  C   UNL     1       1.597   2.421  20.677  0.00  0.00    +0.000 A 
ATOM     15  C   UNL     1       2.013   2.469  19.345  0.00  0.00    +0.000 A 
ENDBRANCH   9  10
ENDBRANCH   2   9
TORSDOF 5
ENDMDL
MODEL 5
REMARK VINA RESULT:      -6.1      2.123      3.317
REMARK  Name = 
REMARK  6 active torsions:
REMARK  status: ('A' for Active; 'I' for Inactive)
REMARK    1  A    between atoms: C_1  and  O_2
REMARK    2  A    between atoms: O_2  and  C_3
REMARK    3  A    between atoms: C_3  and  C_5
REMARK    4  A    between atoms: C_5  and  C_6
REMARK    5  A    between atoms: C_8  and  S_9
REMARK    6  A    between atoms: S_9  and  C_10
REMARK                            x       y       z     vdW  Elec       q    Type
REMARK                         _______ _______ _______ _____ _____    ______ ____
ROOT
ATOM      1  C   UNL     1       5.767   5.527  17.265  0.00  0.00    +0.000 C 
ATOM      2  C   UNL     1       4.704   5.038  17.935  0.00  0.00    +0.000 C 
ENDROOT
BRANCH   1   3
ATOM      3  C   UNL     1       7.040   4.767  17.408  0.00  0.00    +0.000 C 
ATOM      4  O   UNL     1       7.678   4.325  16.463  0.00  0.00    +0.000 OA
BRANCH   3   6
ATOM      5  C   UNL     1       7.945   5.719  19.359  0.00  0.00    +0.000 C 
ATOM      6  O   UNL     1       7.363   4.589  18.709  0.00  0.00    +0.000 OA
ENDBRANCH   3   6
ENDBRANCH   1   3
BRANCH   1   7
ATOM      7  C   UNL     1       5.653   6.755  16.438  0.00  0.00    +0.000 C 
ATOM      8  O   UNL     1       5.422   6.762  15.235  0.00  0.00    +0.000 OA
ENDBRANCH   1   7
BRANCH   2   9
ATOM      9  S   UNL     1       3.121   5.751  17.981  0.00  0.00    +0.000 S 
BRANCH   9  10
ATOM     10  C   UNL     1       2.334   4.659  19.149  0.00  0.00    +0.000 A 
ATOM     11  C   UNL     1       1.471   3.653  18.704  0.00  0.00    +0.000 A 
ATOM     12  C   UNL     1       0.900   2.762  19.616  0.00  0.00    +0.000 A 
ATOM     13  C   UNL     1       1.194   2.868  20.974  0.00  0.00    +0.000 A 
ATOM     14  C   UNL     1       2.060   3.863  21.423  0.00  0.00    +0.000 A 
ATOM     15  C   UNL     1       2.631   4.756  20.514  0.00  0.00    +0.000 A 
ENDBRANCH   9  10
ENDBRANCH   2   9
TORSDOF 5
ENDMDL
MODEL 6
REMARK VINA RESULT:      -6.1      0.752      1.121
REMARK  Name = 
REMARK  6 active torsions:
REMARK  status: ('A' for Active; 'I' for Inactive)
REMARK    1  A    between atoms: C_1  and  O_2
REMARK    2  A    between atoms: O_2  and  C_3
REMARK    3  A    between atoms: C_3  and  C_5
REMARK    4  A    between atoms: C_5  and  C_6
REMARK    5  A    between atoms: C_8  and  S_9
REMARK    6  A    between atoms: S_9  and  C_10
REMARK                            x       y       z     vdW  Elec       q    Type
REMARK                         _______ _______ _______ _____ _____    ______ ____
ROOT
ATOM      1  C   UNL     1       6.359   4.981  16.152  0.00  0.00    +0.000 C 
ATOM      2  C   UNL     1       5.079   5.373  16.306  0.00  0.00    +0.000 C 
ENDROOT
BRANCH   1   3
ATOM      3  C   UNL     1       6.755   4.552  14.783  0.00  0.00    +0.000 C 
ATOM      4  O   UNL     1       6.297   3.569  14.217  0.00  0.00    +0.000 OA
BRANCH   3   6
ATOM      5  C   UNL     1       7.947   5.229  12.871  0.00  0.00    +0.000 C 
ATOM      6  O   UNL     1       7.717   5.356  14.274  0.00  0.00    +0.000 OA
ENDBRANCH   3   6
ENDBRANCH   1   3
BRANCH   1   7
ATOM      7  C   UNL     1       7.305   4.983  17.298  0.00  0.00    +0.000 C 
ATOM      8  O   UNL     1       8.191   4.155  17.466  0.00  0.00    +0.000 OA
ENDBRANCH   1   7
BRANCH   2   9
ATOM      9  S   UNL     1       4.346   5.875  17.799  0.00  0.00    +0.000 S 
BRANCH   9  10
ATOM     10  C   UNL     1       3.283   4.476  18.095  0.00  0.00    +0.000 A 
ATOM     11  C   UNL     1       2.080   4.638  18.790  0.00  0.00    +0.000 A 
ATOM     12  C   UNL     1       1.220   3.553  18.972  0.00  0.00    +0.000 A 
ATOM     13  C   UNL     1       1.555   2.302  18.455  0.00  0.00    +0.000 A 
ATOM     14  C   UNL     1       2.748   2.135  17.755  0.00  0.00    +0.000 A 
ATOM     15  C   UNL     1       3.610   3.219  17.573  0.00  0.00    +0.000 A 
ENDBRANCH   9  10
ENDBRANCH   2   9
TORSDOF 5
ENDMDL
MODEL 7
REMARK VINA RESULT:      -6.1      1.455      1.554
REMARK  Name = 
REMARK  6 active torsions:
REMARK  status: ('A' for Active; 'I' for Inactive)
REMARK    1  A    between atoms: C_1  and  O_2
REMARK    2  A    between atoms: O_2  and  C_3
REMARK    3  A    between atoms: C_3  and  C_5
REMARK    4  A    between atoms: C_5  and  C_6
REMARK    5  A    between atoms: C_8  and  S_9
REMARK    6  A    between atoms: S_9  and  C_10
REMARK                            x       y       z     vdW  Elec       q    Type
REMARK                         _______ _______ _______ _____ _____    ______ ____
ROOT
ATOM      1  C   UNL     1       6.499   5.430  16.607  0.00  0.00    +0.000 C 
ATOM      2  C   UNL     1       5.969   4.494  17.419  0.00  0.00    +0.000 C 
ENDROOT
BRANCH   1   3
ATOM      3  C   UNL     1       6.974   4.955  15.279  0.00  0.00    +0.000 C 
ATOM      4  O   UNL     1       7.848   5.512  14.629  0.00  0.00    +0.000 OA
BRANCH   3   6
ATOM      5  C   UNL     1       6.110   3.745  13.456  0.00  0.00    +0.000 C 
ATOM      6  O   UNL     1       6.281   3.869  14.868  0.00  0.00    +0.000 OA
ENDBRANCH   3   6
ENDBRANCH   1   3
BRANCH   1   7
ATOM      7  C   UNL     1       6.594   6.850  17.033  0.00  0.00    +0.000 C 
ATOM      8  O   UNL     1       7.633   7.497  17.062  0.00  0.00    +0.000 OA
ENDBRANCH   1   7
BRANCH   2   9
ATOM      9  S   UNL     1       5.384   4.766  19.032  0.00  0.00    +0.000 S 
BRANCH   9  10
ATOM     10  C   UNL     1       3.739   4.102  18.870  0.00  0.00    +0.000 A 
ATOM     11  C   UNL     1       2.833   4.672  17.971  0.00  0.00    +0.000 A 
ATOM     12  C   UNL     1       1.563   4.116  17.803  0.00  0.00    +0.000 A 
ATOM     13  C   UNL     1       1.195   2.984  18.528  0.00  0.00    +0.000 A 
ATOM     14  C   UNL     1       2.095   2.405  19.419  0.00  0.00    +0.000 A 
ATOM     15  C   UNL     1       3.366   2.960  19.590  0.00  0.00    +0.000 A 
ENDBRANCH   9  10
ENDBRANCH   2   9
TORSDOF 5
ENDMDL
MODEL 8
REMARK VINA RESULT:      -6.0      2.006      2.436
REMARK  Name = 
REMARK  6 active torsions:
REMARK  status: ('A' for Active; 'I' for Inactive)
REMARK    1  A    between atoms: C_1  and  O_2
REMARK    2  A    between atoms: O_2  and  C_3
REMARK    3  A    between atoms: C_3  and  C_5
REMARK    4  A    between atoms: C_5  and  C_6
REMARK    5  A    between atoms: C_8  and  S_9
REMARK    6  A    between atoms: S_9  and  C_10
REMARK                            x       y       z     vdW  Elec       q    Type
REMARK                         _______ _______ _______ _____ _____    ______ ____
ROOT
ATOM      1  C   UNL     1       4.809   5.836  17.501  0.00  0.00    +0.000 C 
ATOM      2  C   UNL     1       3.585   6.362  17.711  0.00  0.00    +0.000 C 
ENDROOT
BRANCH   1   3
ATOM      3  C   UNL     1       5.225   5.686  16.080  0.00  0.00    +0.000 C 
ATOM      4  O   UNL     1       5.515   6.625  15.352  0.00  0.00    +0.000 OA
BRANCH   3   6
ATOM      5  C   UNL     1       6.195   4.001  14.756  0.00  0.00    +0.000 C 
ATOM      6  O   UNL     1       5.189   4.391  15.691  0.00  0.00    +0.000 OA
ENDBRANCH   3   6
ENDBRANCH   1   3
BRANCH   1   7
ATOM      7  C   UNL     1       5.676   5.435  18.639  0.00  0.00    +0.000 C 
ATOM      8  O   UNL     1       5.821   4.282  19.027  0.00  0.00    +0.000 OA
ENDBRANCH   1   7
BRANCH   2   9
ATOM      9  S   UNL     1       2.838   6.602  19.261  0.00  0.00    +0.000 S 
BRANCH   9  10
ATOM     10  C   UNL     1       2.057   5.014  19.465  0.00  0.00    +0.000 A 
ATOM     11  C   UNL     1       1.748   4.230  18.349  0.00  0.00    +0.000 A 
ATOM     12  C   UNL     1       1.188   2.961  18.512  0.00  0.00    +0.000 A 
ATOM     13  C   UNL     1       0.941   2.466  19.792  0.00  0.00    +0.000 A 
ATOM     14  C   UNL     1       1.253   3.238  20.909  0.00  0.00    +0.000 A 
ATOM     15  C   UNL     1       1.812   4.508  20.747  0.00  0.00    +0.000 A 
ENDBRANCH   9  10
ENDBRANCH   2   9
TORSDOF 5
ENDMDL
MODEL 9
REMARK VINA RESULT:      -6.0      1.578      1.733
REMARK  Name = 
REMARK  6 active torsions:
REMARK  status: ('A' for Active; 'I' for Inactive)
REMARK    1  A    between atoms: C_1  and  O_2
REMARK    2  A    between atoms: O_2  and  C_3
REMARK    3  A    between atoms: C_3  and  C_5
REMARK    4  A    between atoms: C_5  and  C_6
REMARK    5  A    between atoms: C_8  and  S_9
REMARK    6  A    between atoms: S_9  and  C_10
REMARK                            x       y       z     vdW  Elec       q    Type
REMARK                         _______ _______ _______ _____ _____    ______ ____
ROOT
ATOM      1  C   UNL     1       5.710   5.549  17.479  0.00  0.00    +0.000 C 
ATOM      2  C   UNL     1       4.499   6.025  17.124  0.00  0.00    +0.000 C 
ENDROOT
BRANCH   1   3
ATOM      3  C   UNL     1       6.645   5.236  16.364  0.00  0.00    +0.000 C 
ATOM      4  O   UNL     1       7.483   6.018  15.938  0.00  0.00    +0.000 OA
BRANCH   3   6
ATOM      5  C   UNL     1       6.219   3.947  14.443  0.00  0.00    +0.000 C 
ATOM      6  O   UNL     1       6.411   4.004  15.857  0.00  0.00    +0.000 OA
ENDBRANCH   3   6
ENDBRANCH   1   3
BRANCH   1   7
ATOM      7  C   UNL     1       6.068   5.355  18.907  0.00  0.00    +0.000 C 
ATOM      8  O   UNL     1       6.029   4.279  19.492  0.00  0.00    +0.000 OA
ENDBRANCH   1   7
BRANCH   2   9
ATOM      9  S   UNL     1       3.208   6.425  18.216  0.00  0.00    +0.000 S 
BRANCH   9  10
ATOM     10  C   UNL     1       2.532   4.799  18.486  0.00  0.00    +0.000 A 
ATOM     11  C   UNL     1       1.705   4.553  19.587  0.00  0.00    +0.000 A 
ATOM     12  C   UNL     1       1.128   3.294  19.768  0.00  0.00    +0.000 A 
ATOM     13  C   UNL     1       1.370   2.276  18.846  0.00  0.00    +0.000 A 
ATOM     14  C   UNL     1       2.186   2.517  17.743  0.00  0.00    +0.000 A 
ATOM     15  C   UNL     1       2.765   3.775  17.561  0.00  0.00    +0.000 A 
ENDBRANCH   9  10
ENDBRANCH   2   9
TORSDOF 5
ENDMDL
