MODEL 1
REMARK VINA RESULT:      -8.3      0.000      0.000
REMARK  Name = 
REMARK  9 active torsions:
REMARK  status: ('A' for Active; 'I' for Inactive)
REMARK    1  A    between atoms: C_1  and  O_2
REMARK    2  A    between atoms: O_2  and  C_3
REMARK    3  A    between atoms: C_6  and  C_7
REMARK    4  A    between atoms: N_9  and  C_10
REMARK    5  A    between atoms: C_10  and  C_11
REMARK    6  A    between atoms: C_10  and  C_15
REMARK    7  A    between atoms: C_11  and  C_12
REMARK    8  A    between atoms: C_12  and  O_14
REMARK    9  A    between atoms: C_23  and  C_24
REMARK                            x       y       z     vdW  Elec       q    Type
REMARK                         _______ _______ _______ _____ _____    ______ ____
ROOT
ATOM      1  C   UNL     1       1.470   8.390  20.443  0.00  0.00    +0.000 C 
ATOM      2  O   UNL     1       1.436   8.807  21.598  0.00  0.00    +0.000 OA
ATOM      3  N   UNL     1       1.016   9.117  19.369  0.00  0.00    +0.000 N 
ATOM      4  H   UNL     1       1.155   8.792  18.416  0.00  0.00    +0.000 HD
ENDROOT
BRANCH   1   8
ATOM      5  C   UNL     1       2.794   4.457  19.679  0.00  0.00    +0.000 A 
ATOM      6  N   UNL     1       1.757   4.674  20.524  0.00  0.00    +0.000 NA
ATOM      7  C   UNL     1       1.389   5.956  20.737  0.00  0.00    +0.000 A 
ATOM      8  C   UNL     1       2.032   7.046  20.177  0.00  0.00    +0.000 A 
ATOM      9  C   UNL     1       3.124   6.798  19.340  0.00  0.00    +0.000 A 
ATOM     10  C   UNL     1       3.535   5.478  19.050  0.00  0.00    +0.000 A 
BRANCH  10  11
ATOM     11  C   UNL     1       4.648   5.230  18.095  0.00  0.00    +0.000 A 
ATOM     12  C   UNL     1       4.474   5.301  16.700  0.00  0.00    +0.000 A 
ATOM     13  C   UNL     1       5.546   5.111  15.825  0.00  0.00    +0.000 A 
ATOM     14  F   UNL     1       5.342   5.217  14.505  0.00  0.00    +0.000 F 
ATOM     15  C   UNL     1       6.815   4.819  16.294  0.00  0.00    +0.000 A 
ATOM     16  C   UNL     1       7.000   4.718  17.661  0.00  0.00    +0.000 A 
ATOM     17  F   UNL     1       8.216   4.426  18.142  0.00  0.00    +0.000 F 
ATOM     18  C   UNL     1       5.946   4.925  18.553  0.00  0.00    +0.000 A 
ENDBRANCH  10  11
BRANCH   5  20
ATOM     19  C   UNL     1       3.763   2.445  20.417  0.00  0.00    +0.000 C 
ATOM     20  O   UNL     1       3.097   3.145  19.370  0.00  0.00    +0.000 OA
ENDBRANCH   5  20
ENDBRANCH   1   8
BRANCH   3  21
ATOM     21  C   UNL     1       0.397  10.423  19.516  0.00  0.00    +0.000 C 
BRANCH  21  22
ATOM     22  C   UNL     1      -0.917  10.597  18.763  0.00  0.00    +0.000 A 
ATOM     23  C   UNL     1      -1.084   9.800  17.604  0.00  0.00    +0.000 A 
ATOM     24  C   UNL     1      -2.251   9.845  16.839  0.00  0.00    +0.000 A 
ATOM     25  C   UNL     1      -3.289  10.686  17.214  0.00  0.00    +0.000 A 
ATOM     26  C   UNL     1      -3.148  11.490  18.341  0.00  0.00    +0.000 A 
ATOM     27  C   UNL     1      -1.974  11.458  19.108  0.00  0.00    +0.000 A 
ATOM     28 CL   UNL     1      -1.938  12.552  20.444  0.00  0.00    +0.000 Cl
ENDBRANCH  21  22
BRANCH  21  29
ATOM     29  C   UNL     1       1.389  11.584  19.318  0.00  0.00    +0.000 C 
BRANCH  29  30
ATOM     30  C   UNL     1       2.177  11.522  18.039  0.00  0.00    +0.000 C 
ATOM     31  O   UNL     1       2.567  10.501  17.499  0.00  0.00    +0.000 OA
BRANCH  30  32
ATOM     32  O   UNL     1       2.509  12.750  17.563  0.00  0.00    +0.000 OA
ATOM     33  H   UNL     1       2.255  13.495  18.140  0.00  0.00    +0.000 HD
ENDBRANCH  30  32
ENDBRANCH  29  30
ENDBRANCH  21  29
ENDBRANCH   3  21
TORSDOF 8
ENDMDL
MODEL 2
REMARK VINA RESULT:      -8.2      0.591      1.677
REMARK  Name = 
REMARK  9 active torsions:
REMARK  status: ('A' for Active; 'I' for Inactive)
REMARK    1  A    between atoms: C_1  and  O_2
REMARK    2  A    between atoms: O_2  and  C_3
REMARK    3  A    between atoms: C_6  and  C_7
REMARK    4  A    between atoms: N_9  and  C_10
REMARK    5  A    between atoms: C_10  and  C_11
REMARK    6  A    between atoms: C_10  and  C_15
REMARK    7  A    between atoms: C_11  and  C_12
REMARK    8  A    between atoms: C_12  and  O_14
REMARK    9  A    between atoms: C_23  and  C_24
REMARK                            x       y       z     vdW  Elec       q    Type
REMARK                         _______ _______ _______ _____ _____    ______ ____
ROOT
ATOM      1  C   UNL     1       1.454   8.174  20.618  0.00  0.00    +0.000 C 
ATOM      2  O   UNL     1       1.373   8.483  21.804  0.00  0.00    +0.000 OA
ATOM      3  N   UNL     1       1.029   8.992  19.599  0.00  0.00    +0.000 N 
ATOM      4  H   UNL     1       1.206   8.758  18.625  0.00  0.00    +0.000 HD
ENDROOT
BRANCH   1   8
ATOM      5  C   UNL     1       2.854   4.339  19.552  0.00  0.00    +0.000 A 
ATOM      6  N   UNL     1       1.797   4.469  20.391  0.00  0.00    +0.000 NA
ATOM      7  C   UNL     1       1.405   5.723  20.704  0.00  0.00    +0.000 A 
ATOM      8  C   UNL     1       2.042   6.866  20.251  0.00  0.00    +0.000 A 
ATOM      9  C   UNL     1       3.154   6.705  19.419  0.00  0.00    +0.000 A 
ATOM     10  C   UNL     1       3.590   5.420  19.027  0.00  0.00    +0.000 A 
BRANCH  10  11
ATOM     11  C   UNL     1       4.727   5.269  18.077  0.00  0.00    +0.000 A 
ATOM     12  C   UNL     1       6.017   4.901  18.501  0.00  0.00    +0.000 A 
ATOM     13  C   UNL     1       7.056   4.719  17.584  0.00  0.00    +0.000 A 
ATOM     14  F   UNL     1       8.263   4.340  18.027  0.00  0.00    +0.000 F 
ATOM     15  C   UNL     1       6.863   4.919  16.229  0.00  0.00    +0.000 A 
ATOM     16  C   UNL     1       5.607   5.306  15.797  0.00  0.00    +0.000 A 
ATOM     17  F   UNL     1       5.396   5.516  14.490  0.00  0.00    +0.000 F 
ATOM     18  C   UNL     1       4.551   5.474  16.694  0.00  0.00    +0.000 A 
ENDBRANCH  10  11
BRANCH   5  20
ATOM     19  C   UNL     1       2.132   2.390  18.450  0.00  0.00    +0.000 C 
ATOM     20  O   UNL     1       3.183   3.062  19.139  0.00  0.00    +0.000 OA
ENDBRANCH   5  20
ENDBRANCH   1   8
BRANCH   3  21
ATOM     21  C   UNL     1       0.389  10.273  19.841  0.00  0.00    +0.000 C 
BRANCH  21  22
ATOM     22  C   UNL     1      -0.832  10.554  18.971  0.00  0.00    +0.000 A 
ATOM     23  C   UNL     1      -0.931   9.805  17.773  0.00  0.00    +0.000 A 
ATOM     24  C   UNL     1      -2.012   9.949  16.901  0.00  0.00    +0.000 A 
ATOM     25  C   UNL     1      -3.028  10.842  17.204  0.00  0.00    +0.000 A 
ATOM     26  C   UNL     1      -2.952  11.601  18.368  0.00  0.00    +0.000 A 
ATOM     27  C   UNL     1      -1.863  11.470  19.243  0.00  0.00    +0.000 A 
ATOM     28 CL   UNL     1      -1.893  12.518  20.617  0.00  0.00    +0.000 Cl
ENDBRANCH  21  22
BRANCH  21  29
ATOM     29  C   UNL     1       1.389  11.442  19.911  0.00  0.00    +0.000 C 
BRANCH  29  30
ATOM     30  C   UNL     1       1.752  12.034  18.577  0.00  0.00    +0.000 C 
ATOM     31  O   UNL     1       1.483  13.166  18.211  0.00  0.00    +0.000 OA
BRANCH  30  32
ATOM     32  O   UNL     1       2.348  11.141  17.747  0.00  0.00    +0.000 OA
ATOM     33  H   UNL     1       1.741  10.679  17.138  0.00  0.00    +0.000 HD
ENDBRANCH  30  32
ENDBRANCH  29  30
ENDBRANCH  21  29
ENDBRANCH   3  21
TORSDOF 8
ENDMDL
MODEL 3
REMARK VINA RESULT:      -8.2      0.972      1.165
REMARK  Name = 
REMARK  9 active torsions:
REMARK  status: ('A' for Active; 'I' for Inactive)
REMARK    1  A    between atoms: C_1  and  O_2
REMARK    2  A    between atoms: O_2  and  C_3
REMARK    3  A    between atoms: C_6  and  C_7
REMARK    4  A    between atoms: N_9  and  C_10
REMARK    5  A    between atoms: C_10  and  C_11
REMARK    6  A    between atoms: C_10  and  C_15
REMARK    7  A    between atoms: C_11  and  C_12
REMARK    8  A    between atoms: C_12  and  O_14
REMARK    9  A    between atoms: C_23  and  C_24
REMARK                            x       y       z     vdW  Elec       q    Type
REMARK                         _______ _______ _______ _____ _____    ______ ____
ROOT
ATOM      1  C   UNL     1       1.445   8.520  20.359  0.00  0.00    +0.000 C 
ATOM      2  O   UNL     1       1.290   8.952  21.498  0.00  0.00    +0.000 OA
ATOM      3  N   UNL     1       1.117   9.238  19.234  0.00  0.00    +0.000 N 
ATOM      4  H   UNL     1       1.355   8.900  18.305  0.00  0.00    +0.000 HD
ENDROOT
BRANCH   1   8
ATOM      5  C   UNL     1       2.804   4.561  19.833  0.00  0.00    +0.000 A 
ATOM      6  N   UNL     1       1.787   4.823  20.690  0.00  0.00    +0.000 NA
ATOM      7  C   UNL     1       1.407   6.112  20.823  0.00  0.00    +0.000 A 
ATOM      8  C   UNL     1       2.019   7.169  20.172  0.00  0.00    +0.000 A 
ATOM      9  C   UNL     1       3.091   6.877  19.323  0.00  0.00    +0.000 A 
ATOM     10  C   UNL     1       3.513   5.545  19.114  0.00  0.00    +0.000 A 
BRANCH  10  11
ATOM     11  C   UNL     1       4.604   5.244  18.148  0.00  0.00    +0.000 A 
ATOM     12  C   UNL     1       4.399   5.250  16.755  0.00  0.00    +0.000 A 
ATOM     13  C   UNL     1       5.450   5.012  15.867  0.00  0.00    +0.000 A 
ATOM     14  F   UNL     1       5.218   5.056  14.548  0.00  0.00    +0.000 F 
ATOM     15  C   UNL     1       6.728   4.735  16.321  0.00  0.00    +0.000 A 
ATOM     16  C   UNL     1       6.942   4.699  17.688  0.00  0.00    +0.000 A 
ATOM     17  F   UNL     1       8.168   4.423  18.155  0.00  0.00    +0.000 F 
ATOM     18  C   UNL     1       5.909   4.954  18.591  0.00  0.00    +0.000 A 
ENDBRANCH  10  11
BRANCH   5  20
ATOM     19  C   UNL     1       2.050   2.477  19.043  0.00  0.00    +0.000 C 
ATOM     20  O   UNL     1       3.117   3.234  19.607  0.00  0.00    +0.000 OA
ENDBRANCH   5  20
ENDBRANCH   1   8
BRANCH   3  21
ATOM     21  C   UNL     1       0.499  10.551  19.297  0.00  0.00    +0.000 C 
BRANCH  21  22
ATOM     22  C   UNL     1      -0.866  10.650  18.625  0.00  0.00    +0.000 A 
ATOM     23  C   UNL     1      -1.068   9.819  17.496  0.00  0.00    +0.000 A 
ATOM     24  C   UNL     1      -2.281   9.795  16.805  0.00  0.00    +0.000 A 
ATOM     25  C   UNL     1      -3.330  10.598  17.227  0.00  0.00    +0.000 A 
ATOM     26  C   UNL     1      -3.157  11.434  18.326  0.00  0.00    +0.000 A 
ATOM     27  C   UNL     1      -1.937  11.471  19.018  0.00  0.00    +0.000 A 
ATOM     28 CL   UNL     1      -1.868  12.596  20.328  0.00  0.00    +0.000 Cl
ENDBRANCH  21  22
BRANCH  21  29
ATOM     29  C   UNL     1       1.465  11.689  18.919  0.00  0.00    +0.000 C 
BRANCH  29  30
ATOM     30  C   UNL     1       1.832  12.602  20.056  0.00  0.00    +0.000 C 
ATOM     31  O   UNL     1       2.471  13.636  19.953  0.00  0.00    +0.000 OA
BRANCH  30  32
ATOM     32  O   UNL     1       1.457  12.115  21.267  0.00  0.00    +0.000 OA
ATOM     33  H   UNL     1       1.030  11.238  21.241  0.00  0.00    +0.000 HD
ENDBRANCH  30  32
ENDBRANCH  29  30
ENDBRANCH  21  29
ENDBRANCH   3  21
TORSDOF 8
ENDMDL
MODEL 4
REMARK VINA RESULT:      -8.0      0.844      1.004
REMARK  Name = 
REMARK  9 active torsions:
REMARK  status: ('A' for Active; 'I' for Inactive)
REMARK    1  A    between atoms: C_1  and  O_2
REMARK    2  A    between atoms: O_2  and  C_3
REMARK    3  A    between atoms: C_6  and  C_7
REMARK    4  A    between atoms: N_9  and  C_10
REMARK    5  A    between atoms: C_10  and  C_11
REMARK    6  A    between atoms: C_10  and  C_15
REMARK    7  A    between atoms: C_11  and  C_12
REMARK    8  A    between atoms: C_12  and  O_14
REMARK    9  A    between atoms: C_23  and  C_24
REMARK                            x       y       z     vdW  Elec       q    Type
REMARK                         _______ _______ _______ _____ _____    ______ ____
ROOT
ATOM      1  C   UNL     1       1.316   8.204  20.543  0.00  0.00    +0.000 C 
ATOM      2  O   UNL     1       0.908   8.330  21.694  0.00  0.00    +0.000 OA
ATOM      3  N   UNL     1       1.165   9.176  19.582  0.00  0.00    +0.000 N 
ATOM      4  H   UNL     1       1.607   9.090  18.671  0.00  0.00    +0.000 HD
ENDROOT
BRANCH   1   8
ATOM      5  C   UNL     1       3.044   4.510  19.459  0.00  0.00    +0.000 A 
ATOM      6  N   UNL     1       2.081   4.558  20.411  0.00  0.00    +0.000 NA
ATOM      7  C   UNL     1       1.577   5.772  20.722  0.00  0.00    +0.000 A 
ATOM      8  C   UNL     1       2.014   6.957  20.157  0.00  0.00    +0.000 A 
ATOM      9  C   UNL     1       3.036   6.886  19.205  0.00  0.00    +0.000 A 
ATOM     10  C   UNL     1       3.579   5.643  18.811  0.00  0.00    +0.000 A 
BRANCH  10  11
ATOM     11  C   UNL     1       4.611   5.578  17.740  0.00  0.00    +0.000 A 
ATOM     12  C   UNL     1       4.427   4.830  16.562  0.00  0.00    +0.000 A 
ATOM     13  C   UNL     1       5.389   4.824  15.550  0.00  0.00    +0.000 A 
ATOM     14  F   UNL     1       5.162   4.122  14.432  0.00  0.00    +0.000 F 
ATOM     15  C   UNL     1       6.572   5.530  15.678  0.00  0.00    +0.000 A 
ATOM     16  C   UNL     1       6.782   6.250  16.840  0.00  0.00    +0.000 A 
ATOM     17  F   UNL     1       7.924   6.936  16.993  0.00  0.00    +0.000 F 
ATOM     18  C   UNL     1       5.824   6.286  17.855  0.00  0.00    +0.000 A 
ENDBRANCH  10  11
BRANCH   5  20
ATOM     19  C   UNL     1       4.067   2.492  20.102  0.00  0.00    +0.000 C 
ATOM     20  O   UNL     1       3.478   3.262  19.057  0.00  0.00    +0.000 OA
ENDBRANCH   5  20
ENDBRANCH   1   8
BRANCH   3  21
ATOM     21  C   UNL     1       0.452  10.416  19.832  0.00  0.00    +0.000 C 
BRANCH  21  22
ATOM     22  C   UNL     1      -0.789  10.626  18.971  0.00  0.00    +0.000 A 
ATOM     23  C   UNL     1      -0.869   9.847  17.791  0.00  0.00    +0.000 A 
ATOM     24  C   UNL     1      -1.965   9.925  16.928  0.00  0.00    +0.000 A 
ATOM     25  C   UNL     1      -3.014  10.781  17.224  0.00  0.00    +0.000 A 
ATOM     26  C   UNL     1      -2.958  11.569  18.370  0.00  0.00    +0.000 A 
ATOM     27  C   UNL     1      -1.855  11.504  19.235  0.00  0.00    +0.000 A 
ATOM     28 CL   UNL     1      -1.915  12.580  20.585  0.00  0.00    +0.000 Cl
ENDBRANCH  21  22
BRANCH  21  29
ATOM     29  C   UNL     1       1.381  11.642  19.898  0.00  0.00    +0.000 C 
BRANCH  29  30
ATOM     30  C   UNL     1       1.735  12.231  18.561  0.00  0.00    +0.000 C 
ATOM     31  O   UNL     1       1.441  13.354  18.184  0.00  0.00    +0.000 OA
BRANCH  30  32
ATOM     32  O   UNL     1       2.353  11.345  17.739  0.00  0.00    +0.000 OA
ATOM     33  H   UNL     1       1.922  10.472  17.680  0.00  0.00    +0.000 HD
ENDBRANCH  30  32
ENDBRANCH  29  30
ENDBRANCH  21  29
ENDBRANCH   3  21
TORSDOF 8
ENDMDL
MODEL 5
REMARK VINA RESULT:      -8.0      2.110      2.948
REMARK  Name = 
REMARK  9 active torsions:
REMARK  status: ('A' for Active; 'I' for Inactive)
REMARK    1  A    between atoms: C_1  and  O_2
REMARK    2  A    between atoms: O_2  and  C_3
REMARK    3  A    between atoms: C_6  and  C_7
REMARK    4  A    between atoms: N_9  and  C_10
REMARK    5  A    between atoms: C_10  and  C_11
REMARK    6  A    between atoms: C_10  and  C_15
REMARK    7  A    between atoms: C_11  and  C_12
REMARK    8  A    between atoms: C_12  and  O_14
REMARK    9  A    between atoms: C_23  and  C_24
REMARK                            x       y       z     vdW  Elec       q    Type
REMARK                         _______ _______ _______ _____ _____    ______ ____
ROOT
ATOM      1  C   UNL     1       1.646   9.037  18.307  0.00  0.00    +0.000 C 
ATOM      2  O   UNL     1       2.128   9.796  17.471  0.00  0.00    +0.000 OA
ATOM      3  N   UNL     1       0.441   9.270  18.925  0.00  0.00    +0.000 N 
ATOM      4  H   UNL     1       0.015   8.573  19.531  0.00  0.00    +0.000 HD
ENDROOT
BRANCH   1   8
ATOM      5  C   UNL     1       3.476   5.405  19.432  0.00  0.00    +0.000 A 
ATOM      6  N   UNL     1       2.501   5.945  20.205  0.00  0.00    +0.000 NA
ATOM      7  C   UNL     1       1.964   7.115  19.797  0.00  0.00    +0.000 A 
ATOM      8  C   UNL     1       2.378   7.803  18.670  0.00  0.00    +0.000 A 
ATOM      9  C   UNL     1       3.412   7.245  17.911  0.00  0.00    +0.000 A 
ATOM     10  C   UNL     1       3.990   6.006  18.266  0.00  0.00    +0.000 A 
BRANCH  10  11
ATOM     11  C   UNL     1       5.035   5.389  17.404  0.00  0.00    +0.000 A 
ATOM     12  C   UNL     1       4.827   5.134  16.035  0.00  0.00    +0.000 A 
ATOM     13  C   UNL     1       5.840   4.599  15.236  0.00  0.00    +0.000 A 
ATOM     14  F   UNL     1       5.610   4.399  13.931  0.00  0.00    +0.000 F 
ATOM     15  C   UNL     1       7.076   4.272  15.764  0.00  0.00    +0.000 A 
ATOM     16  C   UNL     1       7.290   4.491  17.114  0.00  0.00    +0.000 A 
ATOM     17  F   UNL     1       8.476   4.175  17.653  0.00  0.00    +0.000 F 
ATOM     18  C   UNL     1       6.298   5.044  17.925  0.00  0.00    +0.000 A 
ENDBRANCH  10  11
BRANCH   5  20
ATOM     19  C   UNL     1       2.988   3.111  19.615  0.00  0.00    +0.000 C 
ATOM     20  O   UNL     1       3.944   4.154  19.784  0.00  0.00    +0.000 OA
ENDBRANCH   5  20
ENDBRANCH   1   8
BRANCH   3  21
ATOM     21  C   UNL     1      -0.340  10.472  18.687  0.00  0.00    +0.000 C 
BRANCH  21  22
ATOM     22  C   UNL     1      -0.373  11.455  19.852  0.00  0.00    +0.000 A 
ATOM     23  C   UNL     1      -0.704  10.914  21.118  0.00  0.00    +0.000 A 
ATOM     24  C   UNL     1      -0.744  11.702  22.270  0.00  0.00    +0.000 A 
ATOM     25  C   UNL     1      -0.449  13.054  22.190  0.00  0.00    +0.000 A 
ATOM     26  C   UNL     1      -0.132  13.617  20.957  0.00  0.00    +0.000 A 
ATOM     27  C   UNL     1      -0.101  12.834  19.794  0.00  0.00    +0.000 A 
ATOM     28 CL   UNL     1       0.260  13.692  18.338  0.00  0.00    +0.000 Cl
ENDBRANCH  21  22
BRANCH  21  29
ATOM     29  C   UNL     1      -1.722  10.180  18.076  0.00  0.00    +0.000 C 
BRANCH  29  30
ATOM     30  C   UNL     1      -2.483  11.400  17.636  0.00  0.00    +0.000 C 
ATOM     31  O   UNL     1      -3.454  11.870  18.206  0.00  0.00    +0.000 OA
BRANCH  30  32
ATOM     32  O   UNL     1      -2.037  11.904  16.457  0.00  0.00    +0.000 OA
ATOM     33  H   UNL     1      -2.735  12.079  15.797  0.00  0.00    +0.000 HD
ENDBRANCH  30  32
ENDBRANCH  29  30
ENDBRANCH  21  29
ENDBRANCH   3  21
TORSDOF 8
ENDMDL
MODEL 6
REMARK VINA RESULT:      -7.9      3.155      4.543
REMARK  Name = 
REMARK  9 active torsions:
REMARK  status: ('A' for Active; 'I' for Inactive)
REMARK    1  A    between atoms: C_1  and  O_2
REMARK    2  A    between atoms: O_2  and  C_3
REMARK    3  A    between atoms: C_6  and  C_7
REMARK    4  A    between atoms: N_9  and  C_10
REMARK    5  A    between atoms: C_10  and  C_11
REMARK    6  A    between atoms: C_10  and  C_15
REMARK    7  A    between atoms: C_11  and  C_12
REMARK    8  A    between atoms: C_12  and  O_14
REMARK    9  A    between atoms: C_23  and  C_24
REMARK                            x       y       z     vdW  Elec       q    Type
REMARK                         _______ _______ _______ _____ _____    ______ ____
ROOT
ATOM      1  C   UNL     1       1.764   9.738  18.228  0.00  0.00    +0.000 C 
ATOM      2  O   UNL     1       2.303  10.719  17.722  0.00  0.00    +0.000 OA
ATOM      3  N   UNL     1       0.603   9.814  18.959  0.00  0.00    +0.000 N 
ATOM      4  H   UNL     1       0.122   8.975  19.274  0.00  0.00    +0.000 HD
ENDROOT
BRANCH   1   8
ATOM      5  C   UNL     1       3.776   6.064  17.719  0.00  0.00    +0.000 A 
ATOM      6  N   UNL     1       4.239   7.184  17.112  0.00  0.00    +0.000 NA
ATOM      7  C   UNL     1       3.544   8.326  17.303  0.00  0.00    +0.000 A 
ATOM      8  C   UNL     1       2.377   8.403  18.044  0.00  0.00    +0.000 A 
ATOM      9  C   UNL     1       1.898   7.227  18.629  0.00  0.00    +0.000 A 
ATOM     10  C   UNL     1       2.599   6.008  18.494  0.00  0.00    +0.000 A 
BRANCH  10  11
ATOM     11  C   UNL     1       2.118   4.782  19.188  0.00  0.00    +0.000 A 
ATOM     12  C   UNL     1       1.388   3.780  18.523  0.00  0.00    +0.000 A 
ATOM     13  C   UNL     1       0.988   2.615  19.184  0.00  0.00    +0.000 A 
ATOM     14  F   UNL     1       0.321   1.672  18.507  0.00  0.00    +0.000 F 
ATOM     15  C   UNL     1       1.272   2.416  20.524  0.00  0.00    +0.000 A 
ATOM     16  C   UNL     1       1.966   3.403  21.200  0.00  0.00    +0.000 A 
ATOM     17  F   UNL     1       2.244   3.239  22.501  0.00  0.00    +0.000 F 
ATOM     18  C   UNL     1       2.391   4.564  20.553  0.00  0.00    +0.000 A 
ENDBRANCH  10  11
BRANCH   5  20
ATOM     19  C   UNL     1       5.917   5.177  17.319  0.00  0.00    +0.000 C 
ATOM     20  O   UNL     1       4.548   4.922  17.620  0.00  0.00    +0.000 OA
ENDBRANCH   5  20
ENDBRANCH   1   8
BRANCH   3  21
ATOM     21  C   UNL     1      -0.057  11.075  19.248  0.00  0.00    +0.000 C 
BRANCH  21  22
ATOM     22  C   UNL     1      -0.619  11.194  20.661  0.00  0.00    +0.000 A 
ATOM     23  C   UNL     1      -1.604  12.192  20.860  0.00  0.00    +0.000 A 
ATOM     24  C   UNL     1      -2.216  12.388  22.099  0.00  0.00    +0.000 A 
ATOM     25  C   UNL     1      -1.866  11.587  23.175  0.00  0.00    +0.000 A 
ATOM     26  C   UNL     1      -0.892  10.605  23.013  0.00  0.00    +0.000 A 
ATOM     27  C   UNL     1      -0.265  10.411  21.773  0.00  0.00    +0.000 A 
ATOM     28 CL   UNL     1       0.955   9.188  21.750  0.00  0.00    +0.000 Cl
ENDBRANCH  21  22
BRANCH  21  29
ATOM     29  C   UNL     1      -1.042  11.506  18.146  0.00  0.00    +0.000 C 
BRANCH  29  30
ATOM     30  C   UNL     1      -1.940  10.408  17.646  0.00  0.00    +0.000 C 
ATOM     31  O   UNL     1      -3.046  10.146  18.088  0.00  0.00    +0.000 OA
BRANCH  30  32
ATOM     32  O   UNL     1      -1.359   9.646  16.685  0.00  0.00    +0.000 OA
ATOM     33  H   UNL     1      -1.823   8.810  16.488  0.00  0.00    +0.000 HD
ENDBRANCH  30  32
ENDBRANCH  29  30
ENDBRANCH  21  29
ENDBRANCH   3  21
TORSDOF 8
ENDMDL
MODEL 7
REMARK VINA RESULT:      -7.9      1.355      1.927
REMARK  Name = 
REMARK  9 active torsions:
REMARK  status: ('A' for Active; 'I' for Inactive)
REMARK    1  A    between atoms: C_1  and  O_2
REMARK    2  A    between atoms: O_2  and  C_3
REMARK    3  A    between atoms: C_6  and  C_7
REMARK    4  A    between atoms: N_9  and  C_10
REMARK    5  A    between atoms: C_10  and  C_11
REMARK    6  A    between atoms: C_10  and  C_15
REMARK    7  A    between atoms: C_11  and  C_12
REMARK    8  A    between atoms: C_12  and  O_14
REMARK    9  A    between atoms: C_23  and  C_24
REMARK                            x       y       z     vdW  Elec       q    Type
REMARK                         _______ _______ _______ _____ _____    ______ ____
ROOT
ATOM      1  C   UNL     1       1.341   8.420  20.367  0.00  0.00    +0.000 C 
ATOM      2  O   UNL     1       1.205   8.722  21.549  0.00  0.00    +0.000 OA
ATOM      3  N   UNL     1       0.904   9.214  19.334  0.00  0.00    +0.000 N 
ATOM      4  H   UNL     1       1.126   8.991  18.367  0.00  0.00    +0.000 HD
ENDROOT
BRANCH   1   8
ATOM      5  C   UNL     1       2.997   4.663  19.392  0.00  0.00    +0.000 A 
ATOM      6  N   UNL     1       2.014   4.754  20.321  0.00  0.00    +0.000 NA
ATOM      7  C   UNL     1       1.534   5.986  20.598  0.00  0.00    +0.000 A 
ATOM      8  C   UNL     1       2.015   7.148  20.021  0.00  0.00    +0.000 A 
ATOM      9  C   UNL     1       3.056   7.032  19.094  0.00  0.00    +0.000 A 
ATOM     10  C   UNL     1       3.576   5.769  18.736  0.00  0.00    +0.000 A 
BRANCH  10  11
ATOM     11  C   UNL     1       4.629   5.657  17.691  0.00  0.00    +0.000 A 
ATOM     12  C   UNL     1       5.835   6.379  17.758  0.00  0.00    +0.000 A 
ATOM     13  C   UNL     1       6.829   6.220  16.789  0.00  0.00    +0.000 A 
ATOM     14  F   UNL     1       7.975   6.904  16.907  0.00  0.00    +0.000 F 
ATOM     15  C   UNL     1       6.655   5.369  15.712  0.00  0.00    +0.000 A 
ATOM     16  C   UNL     1       5.464   4.672  15.615  0.00  0.00    +0.000 A 
ATOM     17  F   UNL     1       5.266   3.848  14.576  0.00  0.00    +0.000 F 
ATOM     18  C   UNL     1       4.467   4.800  16.584  0.00  0.00    +0.000 A 
ENDBRANCH  10  11
BRANCH   5  20
ATOM     19  C   UNL     1       4.144   2.712  20.033  0.00  0.00    +0.000 C 
ATOM     20  O   UNL     1       3.407   3.396  19.023  0.00  0.00    +0.000 OA
ENDBRANCH   5  20
ENDBRANCH   1   8
BRANCH   3  21
ATOM     21  C   UNL     1       0.184  10.456  19.555  0.00  0.00    +0.000 C 
BRANCH  21  22
ATOM     22  C   UNL     1      -1.075  10.625  18.711  0.00  0.00    +0.000 A 
ATOM     23  C   UNL     1      -1.140   9.855  17.524  0.00  0.00    +0.000 A 
ATOM     24  C   UNL     1      -2.249   9.898  16.676  0.00  0.00    +0.000 A 
ATOM     25  C   UNL     1      -3.328  10.709  16.994  0.00  0.00    +0.000 A 
ATOM     26  C   UNL     1      -3.288  11.486  18.148  0.00  0.00    +0.000 A 
ATOM     27  C   UNL     1      -2.172  11.457  18.998  0.00  0.00    +0.000 A 
ATOM     28 CL   UNL     1      -2.257  12.515  20.361  0.00  0.00    +0.000 Cl
ENDBRANCH  21  22
BRANCH  21  29
ATOM     29  C   UNL     1       1.103  11.691  19.559  0.00  0.00    +0.000 C 
BRANCH  29  30
ATOM     30  C   UNL     1       1.310  12.312  20.913  0.00  0.00    +0.000 C 
ATOM     31  O   UNL     1       2.046  13.255  21.152  0.00  0.00    +0.000 OA
BRANCH  30  32
ATOM     32  O   UNL     1       0.655  11.653  21.903  0.00  0.00    +0.000 OA
ATOM     33  H   UNL     1       0.579  10.689  21.772  0.00  0.00    +0.000 HD
ENDBRANCH  30  32
ENDBRANCH  29  30
ENDBRANCH  21  29
ENDBRANCH   3  21
TORSDOF 8
ENDMDL
MODEL 8
REMARK VINA RESULT:      -7.9      1.160      1.581
REMARK  Name = 
REMARK  9 active torsions:
REMARK  status: ('A' for Active; 'I' for Inactive)
REMARK    1  A    between atoms: C_1  and  O_2
REMARK    2  A    between atoms: O_2  and  C_3
REMARK    3  A    between atoms: C_6  and  C_7
REMARK    4  A    between atoms: N_9  and  C_10
REMARK    5  A    between atoms: C_10  and  C_11
REMARK    6  A    between atoms: C_10  and  C_15
REMARK    7  A    between atoms: C_11  and  C_12
REMARK    8  A    between atoms: C_12  and  O_14
REMARK    9  A    between atoms: C_23  and  C_24
REMARK                            x       y       z     vdW  Elec       q    Type
REMARK                         _______ _______ _______ _____ _____    ______ ____
ROOT
ATOM      1  C   UNL     1       1.705   9.135  18.526  0.00  0.00    +0.000 C 
ATOM      2  O   UNL     1       2.042   9.761  17.525  0.00  0.00    +0.000 OA
ATOM      3  N   UNL     1       0.752   9.587  19.407  0.00  0.00    +0.000 N 
ATOM      4  H   UNL     1       0.416   9.000  20.167  0.00  0.00    +0.000 HD
ENDROOT
BRANCH   1   8
ATOM      5  C   UNL     1       3.242   5.303  19.398  0.00  0.00    +0.000 A 
ATOM      6  N   UNL     1       2.272   5.842  20.178  0.00  0.00    +0.000 NA
ATOM      7  C   UNL     1       1.831   7.077  19.854  0.00  0.00    +0.000 A 
ATOM      8  C   UNL     1       2.339   7.827  18.807  0.00  0.00    +0.000 A 
ATOM      9  C   UNL     1       3.366   7.266  18.042  0.00  0.00    +0.000 A 
ATOM     10  C   UNL     1       3.845   5.964  18.309  0.00  0.00    +0.000 A 
BRANCH  10  11
ATOM     11  C   UNL     1       4.884   5.352  17.437  0.00  0.00    +0.000 A 
ATOM     12  C   UNL     1       4.652   5.065  16.079  0.00  0.00    +0.000 A 
ATOM     13  C   UNL     1       5.659   4.534  15.268  0.00  0.00    +0.000 A 
ATOM     14  F   UNL     1       5.405   4.304  13.973  0.00  0.00    +0.000 F 
ATOM     15  C   UNL     1       6.913   4.244  15.776  0.00  0.00    +0.000 A 
ATOM     16  C   UNL     1       7.151   4.495  17.115  0.00  0.00    +0.000 A 
ATOM     17  F   UNL     1       8.355   4.214  17.634  0.00  0.00    +0.000 F 
ATOM     18  C   UNL     1       6.165   5.044  17.937  0.00  0.00    +0.000 A 
ENDBRANCH  10  11
BRANCH   5  20
ATOM     19  C   UNL     1       2.662   3.273  20.435  0.00  0.00    +0.000 C 
ATOM     20  O   UNL     1       3.611   3.997  19.657  0.00  0.00    +0.000 OA
ENDBRANCH   5  20
ENDBRANCH   1   8
BRANCH   3  21
ATOM     21  C   UNL     1       0.102  10.878  19.261  0.00  0.00    +0.000 C 
BRANCH  21  22
ATOM     22  C   UNL     1      -1.230  10.843  18.519  0.00  0.00    +0.000 A 
ATOM     23  C   UNL     1      -1.319   9.933  17.438  0.00  0.00    +0.000 A 
ATOM     24  C   UNL     1      -2.491   9.786  16.693  0.00  0.00    +0.000 A 
ATOM     25  C   UNL     1      -3.609  10.541  17.011  0.00  0.00    +0.000 A 
ATOM     26  C   UNL     1      -3.547  11.453  18.060  0.00  0.00    +0.000 A 
ATOM     27  C   UNL     1      -2.370  11.614  18.806  0.00  0.00    +0.000 A 
ATOM     28 CL   UNL     1      -2.441  12.820  20.041  0.00  0.00    +0.000 Cl
ENDBRANCH  21  22
BRANCH  21  29
ATOM     29  C   UNL     1       1.060  11.982  18.776  0.00  0.00    +0.000 C 
BRANCH  29  30
ATOM     30  C   UNL     1       1.701  12.781  19.876  0.00  0.00    +0.000 C 
ATOM     31  O   UNL     1       2.348  13.804  19.720  0.00  0.00    +0.000 OA
BRANCH  30  32
ATOM     32  O   UNL     1       1.572  12.200  21.096  0.00  0.00    +0.000 OA
ATOM     33  H   UNL     1       1.650  12.813  21.851  0.00  0.00    +0.000 HD
ENDBRANCH  30  32
ENDBRANCH  29  30
ENDBRANCH  21  29
ENDBRANCH   3  21
TORSDOF 8
ENDMDL
MODEL 9
REMARK VINA RESULT:      -7.9      3.057      4.404
REMARK  Name = 
REMARK  9 active torsions:
REMARK  status: ('A' for Active; 'I' for Inactive)
REMARK    1  A    between atoms: C_1  and  O_2
REMARK    2  A    between atoms: O_2  and  C_3
REMARK    3  A    between atoms: C_6  and  C_7
REMARK    4  A    between atoms: N_9  and  C_10
REMARK    5  A    between atoms: C_10  and  C_11
REMARK    6  A    between atoms: C_10  and  C_15
REMARK    7  A    between atoms: C_11  and  C_12
REMARK    8  A    between atoms: C_12  and  O_14
REMARK    9  A    between atoms: C_23  and  C_24
REMARK                            x       y       z     vdW  Elec       q    Type
REMARK                         _______ _______ _______ _____ _____    ______ ____
ROOT
ATOM      1  C   UNL     1       1.913   9.743  18.147  0.00  0.00    +0.000 C 
ATOM      2  O   UNL     1       2.475  10.705  17.632  0.00  0.00    +0.000 OA
ATOM      3  N   UNL     1       0.753   9.854  18.876  0.00  0.00    +0.000 N 
ATOM      4  H   UNL     1       0.251   9.030  19.199  0.00  0.00    +0.000 HD
ENDROOT
BRANCH   1   8
ATOM      5  C   UNL     1       3.836   6.016  17.681  0.00  0.00    +0.000 A 
ATOM      6  N   UNL     1       4.329   7.119  17.065  0.00  0.00    +0.000 NA
ATOM      7  C   UNL     1       3.661   8.279  17.244  0.00  0.00    +0.000 A 
ATOM      8  C   UNL     1       2.493   8.391  17.978  0.00  0.00    +0.000 A 
ATOM      9  C   UNL     1       1.982   7.232  18.571  0.00  0.00    +0.000 A 
ATOM     10  C   UNL     1       2.655   5.996  18.451  0.00  0.00    +0.000 A 
BRANCH  10  11
ATOM     11  C   UNL     1       2.141   4.789  19.153  0.00  0.00    +0.000 A 
ATOM     12  C   UNL     1       1.386   3.800  18.495  0.00  0.00    +0.000 A 
ATOM     13  C   UNL     1       0.956   2.652  19.165  0.00  0.00    +0.000 A 
ATOM     14  F   UNL     1       0.265   1.720  18.493  0.00  0.00    +0.000 F 
ATOM     15  C   UNL     1       1.230   2.456  20.507  0.00  0.00    +0.000 A 
ATOM     16  C   UNL     1       1.948   3.430  21.176  0.00  0.00    +0.000 A 
ATOM     17  F   UNL     1       2.220   3.270  22.479  0.00  0.00    +0.000 F 
ATOM     18  C   UNL     1       2.405   4.575  20.520  0.00  0.00    +0.000 A 
ENDBRANCH  10  11
BRANCH   5  20
ATOM     19  C   UNL     1       5.795   4.893  18.338  0.00  0.00    +0.000 C 
ATOM     20  O   UNL     1       4.580   4.855  17.595  0.00  0.00    +0.000 OA
ENDBRANCH   5  20
ENDBRANCH   1   8
BRANCH   3  21
ATOM     21  C   UNL     1       0.123  11.134  19.151  0.00  0.00    +0.000 C 
BRANCH  21  22
ATOM     22  C   UNL     1      -0.407  11.294  20.572  0.00  0.00    +0.000 A 
ATOM     23  C   UNL     1      -0.342  10.145  21.396  0.00  0.00    +0.000 A 
ATOM     24  C   UNL     1      -0.771  10.165  22.725  0.00  0.00    +0.000 A 
ATOM     25  C   UNL     1      -1.271  11.338  23.270  0.00  0.00    +0.000 A 
ATOM     26  C   UNL     1      -1.358  12.481  22.480  0.00  0.00    +0.000 A 
ATOM     27  C   UNL     1      -0.940  12.465  21.141  0.00  0.00    +0.000 A 
ATOM     28 CL   UNL     1      -1.159  13.948  20.284  0.00  0.00    +0.000 Cl
ENDBRANCH  21  22
BRANCH  21  29
ATOM     29  C   UNL     1      -0.877  11.559  18.060  0.00  0.00    +0.000 C 
BRANCH  29  30
ATOM     30  C   UNL     1      -1.778  10.458  17.574  0.00  0.00    +0.000 C 
ATOM     31  O   UNL     1      -2.265   9.584  18.272  0.00  0.00    +0.000 OA
BRANCH  30  32
ATOM     32  O   UNL     1      -1.938  10.463  16.226  0.00  0.00    +0.000 OA
ATOM     33  H   UNL     1      -2.528  11.163  15.886  0.00  0.00    +0.000 HD
ENDBRANCH  30  32
ENDBRANCH  29  30
ENDBRANCH  21  29
ENDBRANCH   3  21
TORSDOF 8
ENDMDL
