MODEL 1
REMARK VINA RESULT:      -7.9      0.000      0.000
REMARK  Name = 
REMARK  6 active torsions:
REMARK  status: ('A' for Active; 'I' for Inactive)
REMARK    1  A    between atoms: C_1  and  N_2
REMARK    2  A    between atoms: N_2  and  C_3
REMARK    3  A    between atoms: C_3  and  C_4
REMARK    4  A    between atoms: C_10  and  C_12
REMARK    5  A    between atoms: C_12  and  N_13
REMARK    6  A    between atoms: C_14  and  C_16
REMARK                            x       y       z     vdW  Elec       q    Type
REMARK                         _______ _______ _______ _____ _____    ______ ____
ROOT
ATOM      1  N   UNL     1       3.261   5.777  18.296  0.00  0.00    +0.000 N 
ATOM      2  C   UNL     1       2.547   5.702  19.465  0.00  0.00    +0.000 C 
ATOM      3  O   UNL     1       2.396   4.659  20.092  0.00  0.00    +0.000 OA
ATOM      4  H   UNL     1       3.273   6.636  17.764  0.00  0.00    +0.000 HD
ENDROOT
BRANCH   2   5
ATOM      5  C   UNL     1       2.012   6.959  19.939  0.00  0.00    +0.000 A 
ATOM      6  C   UNL     1       1.448   7.328  21.149  0.00  0.00    +0.000 A 
ATOM      7  C   UNL     1       0.994   8.669  21.039  0.00  0.00    +0.000 A 
ATOM      8  C   UNL     1       0.313   9.536  21.912  0.00  0.00    +0.000 A 
ATOM      9  C   UNL     1      -0.031  10.812  21.460  0.00  0.00    +0.000 A 
ATOM     10 CL   UNL     1      -0.895  11.870  22.509  0.00  0.00    +0.000 Cl
ATOM     11  C   UNL     1       0.302  11.235  20.174  0.00  0.00    +0.000 A 
ATOM     12  C   UNL     1       0.997  10.395  19.299  0.00  0.00    +0.000 A 
ATOM     13  C   UNL     1       1.324   9.114  19.761  0.00  0.00    +0.000 A 
ATOM     14  N   UNL     1       1.978   8.080  19.136  0.00  0.00    +0.000 N 
ATOM     15  H   UNL     1       2.347   8.101  18.193  0.00  0.00    +0.000 HD
ENDBRANCH   2   5
BRANCH   1  16
ATOM     16  C   UNL     1       3.848   4.607  17.673  0.00  0.00    +0.000 C 
BRANCH  16  19
ATOM     17  C   UNL     1       7.694   4.595  17.728  0.00  0.00    +0.000 C 
ATOM     18  N   UNL     1       6.324   4.812  17.288  0.00  0.00    +0.000 N 
ATOM     19  C   UNL     1       5.299   4.397  18.139  0.00  0.00    +0.000 C 
ATOM     20  O   UNL     1       5.535   3.825  19.205  0.00  0.00    +0.000 OA
BRANCH  18  21
ATOM     21  C   UNL     1       6.116   5.688  16.126  0.00  0.00    +0.000 C 
BRANCH  21  22
ATOM     22  C   UNL     1       6.360   5.073  14.759  0.00  0.00    +0.000 A 
ATOM     23  C   UNL     1       5.515   4.114  14.202  0.00  0.00    +0.000 A 
ATOM     24  C   UNL     1       5.841   3.551  12.970  0.00  0.00    +0.000 A 
ATOM     25  C   UNL     1       6.997   3.956  12.318  0.00  0.00    +0.000 A 
ATOM     26  C   UNL     1       7.780   4.921  12.929  0.00  0.00    +0.000 A 
ATOM     27  N   UNL     1       7.487   5.487  14.122  0.00  0.00    +0.000 NA
ENDBRANCH  21  22
ENDBRANCH  18  21
ENDBRANCH  16  19
ENDBRANCH   1  16
TORSDOF 5
ENDMDL
MODEL 2
REMARK VINA RESULT:      -7.7      2.279      3.649
REMARK  Name = 
REMARK  6 active torsions:
REMARK  status: ('A' for Active; 'I' for Inactive)
REMARK    1  A    between atoms: C_1  and  N_2
REMARK    2  A    between atoms: N_2  and  C_3
REMARK    3  A    between atoms: C_3  and  C_4
REMARK    4  A    between atoms: C_10  and  C_12
REMARK    5  A    between atoms: C_12  and  N_13
REMARK    6  A    between atoms: C_14  and  C_16
REMARK                            x       y       z     vdW  Elec       q    Type
REMARK                         _______ _______ _______ _____ _____    ______ ____
ROOT
ATOM      1  N   UNL     1       2.410   7.612  18.685  0.00  0.00    +0.000 N 
ATOM      2  C   UNL     1       1.873   8.827  18.340  0.00  0.00    +0.000 C 
ATOM      3  O   UNL     1       2.062   9.357  17.250  0.00  0.00    +0.000 OA
ATOM      4  H   UNL     1       2.310   7.264  19.628  0.00  0.00    +0.000 HD
ENDROOT
BRANCH   2   5
ATOM      5  C   UNL     1       1.025   9.430  19.342  0.00  0.00    +0.000 A 
ATOM      6  C   UNL     1       0.254  10.581  19.334  0.00  0.00    +0.000 A 
ATOM      7  C   UNL     1      -0.300  10.757  20.629  0.00  0.00    +0.000 A 
ATOM      8  C   UNL     1      -1.106  11.752  21.212  0.00  0.00    +0.000 A 
ATOM      9  C   UNL     1      -1.444  11.638  22.562  0.00  0.00    +0.000 A 
ATOM     10 CL   UNL     1      -2.402  12.868  23.294  0.00  0.00    +0.000 Cl
ATOM     11  C   UNL     1      -1.010  10.556  23.325  0.00  0.00    +0.000 A 
ATOM     12  C   UNL     1      -0.226   9.545  22.759  0.00  0.00    +0.000 A 
ATOM     13  C   UNL     1       0.117   9.679  21.407  0.00  0.00    +0.000 A 
ATOM     14  N   UNL     1       0.875   8.872  20.595  0.00  0.00    +0.000 N 
ATOM     15  H   UNL     1       1.317   8.004  20.874  0.00  0.00    +0.000 HD
ENDBRANCH   2   5
BRANCH   1  16
ATOM     16  C   UNL     1       3.299   6.881  17.802  0.00  0.00    +0.000 C 
BRANCH  16  19
ATOM     17  C   UNL     1       3.904   3.095  17.504  0.00  0.00    +0.000 C 
ATOM     18  N   UNL     1       4.016   4.529  17.282  0.00  0.00    +0.000 N 
ATOM     19  C   UNL     1       3.200   5.365  18.044  0.00  0.00    +0.000 C 
ATOM     20  O   UNL     1       2.378   4.914  18.845  0.00  0.00    +0.000 OA
BRANCH  18  21
ATOM     21  C   UNL     1       5.157   5.005  16.487  0.00  0.00    +0.000 C 
BRANCH  21  22
ATOM     22  C   UNL     1       6.267   5.711  17.246  0.00  0.00    +0.000 A 
ATOM     23  C   UNL     1       6.856   5.176  18.391  0.00  0.00    +0.000 A 
ATOM     24  C   UNL     1       7.824   5.913  19.068  0.00  0.00    +0.000 A 
ATOM     25  C   UNL     1       8.189   7.164  18.590  0.00  0.00    +0.000 A 
ATOM     26  C   UNL     1       7.568   7.623  17.441  0.00  0.00    +0.000 A 
ATOM     27  N   UNL     1       6.627   6.928  16.762  0.00  0.00    +0.000 NA
ENDBRANCH  21  22
ENDBRANCH  18  21
ENDBRANCH  16  19
ENDBRANCH   1  16
TORSDOF 5
ENDMDL
MODEL 3
REMARK VINA RESULT:      -7.7      1.121      1.600
REMARK  Name = 
REMARK  6 active torsions:
REMARK  status: ('A' for Active; 'I' for Inactive)
REMARK    1  A    between atoms: C_1  and  N_2
REMARK    2  A    between atoms: N_2  and  C_3
REMARK    3  A    between atoms: C_3  and  C_4
REMARK    4  A    between atoms: C_10  and  C_12
REMARK    5  A    between atoms: C_12  and  N_13
REMARK    6  A    between atoms: C_14  and  C_16
REMARK                            x       y       z     vdW  Elec       q    Type
REMARK                         _______ _______ _______ _____ _____    ______ ____
ROOT
ATOM      1  N   UNL     1       3.003   5.768  18.465  0.00  0.00    +0.000 N 
ATOM      2  C   UNL     1       2.855   7.084  18.105  0.00  0.00    +0.000 C 
ATOM      3  O   UNL     1       3.306   7.548  17.063  0.00  0.00    +0.000 OA
ATOM      4  H   UNL     1       2.701   5.456  19.377  0.00  0.00    +0.000 HD
ENDROOT
BRANCH   2   5
ATOM      5  C   UNL     1       2.085   7.890  19.026  0.00  0.00    +0.000 A 
ATOM      6  C   UNL     1       1.379   9.070  18.858  0.00  0.00    +0.000 A 
ATOM      7  C   UNL     1       0.893   9.483  20.126  0.00  0.00    +0.000 A 
ATOM      8  C   UNL     1       0.169  10.605  20.568  0.00  0.00    +0.000 A 
ATOM      9  C   UNL     1      -0.116  10.729  21.929  0.00  0.00    +0.000 A 
ATOM     10 CL   UNL     1      -0.972  12.115  22.486  0.00  0.00    +0.000 Cl
ATOM     11  C   UNL     1       0.290   9.756  22.842  0.00  0.00    +0.000 A 
ATOM     12  C   UNL     1       0.992   8.622  22.419  0.00  0.00    +0.000 A 
ATOM     13  C   UNL     1       1.282   8.519  21.053  0.00  0.00    +0.000 A 
ATOM     14  N   UNL     1       1.959   7.548  20.356  0.00  0.00    +0.000 N 
ATOM     15  H   UNL     1       2.364   6.709  20.756  0.00  0.00    +0.000 HD
ENDBRANCH   2   5
BRANCH   1  16
ATOM     16  C   UNL     1       3.762   4.828  17.664  0.00  0.00    +0.000 C 
BRANCH  16  19
ATOM     17  C   UNL     1       7.587   4.742  18.056  0.00  0.00    +0.000 C 
ATOM     18  N   UNL     1       6.266   4.982  17.496  0.00  0.00    +0.000 N 
ATOM     19  C   UNL     1       5.162   4.595  18.257  0.00  0.00    +0.000 C 
ATOM     20  O   UNL     1       5.293   4.029  19.344  0.00  0.00    +0.000 OA
BRANCH  18  21
ATOM     21  C   UNL     1       6.177   5.851  16.313  0.00  0.00    +0.000 C 
BRANCH  21  22
ATOM     22  C   UNL     1       6.366   5.180  14.963  0.00  0.00    +0.000 A 
ATOM     23  C   UNL     1       5.440   4.285  14.430  0.00  0.00    +0.000 A 
ATOM     24  C   UNL     1       5.714   3.663  13.214  0.00  0.00    +0.000 A 
ATOM     25  C   UNL     1       6.900   3.949  12.553  0.00  0.00    +0.000 A 
ATOM     26  C   UNL     1       7.765   4.857  13.139  0.00  0.00    +0.000 A 
ATOM     27  N   UNL     1       7.524   5.478  14.317  0.00  0.00    +0.000 NA
ENDBRANCH  21  22
ENDBRANCH  18  21
ENDBRANCH  16  19
ENDBRANCH   1  16
TORSDOF 5
ENDMDL
MODEL 4
REMARK VINA RESULT:      -7.6      2.338      3.598
REMARK  Name = 
REMARK  6 active torsions:
REMARK  status: ('A' for Active; 'I' for Inactive)
REMARK    1  A    between atoms: C_1  and  N_2
REMARK    2  A    between atoms: N_2  and  C_3
REMARK    3  A    between atoms: C_3  and  C_4
REMARK    4  A    between atoms: C_10  and  C_12
REMARK    5  A    between atoms: C_12  and  N_13
REMARK    6  A    between atoms: C_14  and  C_16
REMARK                            x       y       z     vdW  Elec       q    Type
REMARK                         _______ _______ _______ _____ _____    ______ ____
ROOT
ATOM      1  N   UNL     1       2.002   6.652  20.840  0.00  0.00    +0.000 N 
ATOM      2  C   UNL     1       1.850   7.789  20.086  0.00  0.00    +0.000 C 
ATOM      3  O   UNL     1       2.347   7.927  18.973  0.00  0.00    +0.000 OA
ATOM      4  H   UNL     1       1.659   6.625  21.790  0.00  0.00    +0.000 HD
ENDROOT
BRANCH   2   5
ATOM      5  C   UNL     1       1.018   8.812  20.679  0.00  0.00    +0.000 A 
ATOM      6  C   UNL     1       0.569   9.004  21.975  0.00  0.00    +0.000 A 
ATOM      7  C   UNL     1      -0.310  10.119  21.982  0.00  0.00    +0.000 A 
ATOM      8  C   UNL     1      -1.086  10.736  22.980  0.00  0.00    +0.000 A 
ATOM      9  C   UNL     1      -1.897  11.817  22.629  0.00  0.00    +0.000 A 
ATOM     10 CL   UNL     1      -2.877  12.558  23.836  0.00  0.00    +0.000 Cl
ATOM     11  C   UNL     1      -1.934  12.296  21.321  0.00  0.00    +0.000 A 
ATOM     12  C   UNL     1      -1.154  11.710  20.319  0.00  0.00    +0.000 A 
ATOM     13  C   UNL     1      -0.356  10.618  20.682  0.00  0.00    +0.000 A 
ATOM     14  N   UNL     1       0.489   9.841  19.928  0.00  0.00    +0.000 N 
ATOM     15  H   UNL     1       0.673   9.959  18.939  0.00  0.00    +0.000 HD
ENDBRANCH   2   5
BRANCH   1  16
ATOM     16  C   UNL     1       2.820   5.538  20.401  0.00  0.00    +0.000 C 
BRANCH  16  19
ATOM     17  C   UNL     1       1.760   2.041  19.204  0.00  0.00    +0.000 C 
ATOM     18  N   UNL     1       2.587   3.194  19.523  0.00  0.00    +0.000 N 
ATOM     19  C   UNL     1       1.955   4.308  20.077  0.00  0.00    +0.000 C 
ATOM     20  O   UNL     1       0.734   4.340  20.249  0.00  0.00    +0.000 OA
BRANCH  18  21
ATOM     21  C   UNL     1       4.045   3.010  19.502  0.00  0.00    +0.000 C 
BRANCH  21  22
ATOM     22  C   UNL     1       4.796   3.669  18.356  0.00  0.00    +0.000 A 
ATOM     23  C   UNL     1       4.307   3.695  17.051  0.00  0.00    +0.000 A 
ATOM     24  C   UNL     1       5.084   4.264  16.044  0.00  0.00    +0.000 A 
ATOM     25  C   UNL     1       6.326   4.796  16.357  0.00  0.00    +0.000 A 
ATOM     26  C   UNL     1       6.738   4.743  17.678  0.00  0.00    +0.000 A 
ATOM     27  N   UNL     1       6.005   4.201  18.677  0.00  0.00    +0.000 NA
ENDBRANCH  21  22
ENDBRANCH  18  21
ENDBRANCH  16  19
ENDBRANCH   1  16
TORSDOF 5
ENDMDL
MODEL 5
REMARK VINA RESULT:      -7.6      1.399      1.462
REMARK  Name = 
REMARK  6 active torsions:
REMARK  status: ('A' for Active; 'I' for Inactive)
REMARK    1  A    between atoms: C_1  and  N_2
REMARK    2  A    between atoms: N_2  and  C_3
REMARK    3  A    between atoms: C_3  and  C_4
REMARK    4  A    between atoms: C_10  and  C_12
REMARK    5  A    between atoms: C_12  and  N_13
REMARK    6  A    between atoms: C_14  and  C_16
REMARK                            x       y       z     vdW  Elec       q    Type
REMARK                         _______ _______ _______ _____ _____    ______ ____
ROOT
ATOM      1  N   UNL     1       4.016   7.398  17.479  0.00  0.00    +0.000 N 
ATOM      2  C   UNL     1       2.931   6.830  18.098  0.00  0.00    +0.000 C 
ATOM      3  O   UNL     1       2.605   5.659  17.937  0.00  0.00    +0.000 OA
ATOM      4  H   UNL     1       4.185   8.391  17.564  0.00  0.00    +0.000 HD
ENDROOT
BRANCH   2   5
ATOM      5  C   UNL     1       2.211   7.703  18.998  0.00  0.00    +0.000 A 
ATOM      6  C   UNL     1       1.832   7.558  20.323  0.00  0.00    +0.000 A 
ATOM      7  C   UNL     1       1.049   8.685  20.688  0.00  0.00    +0.000 A 
ATOM      8  C   UNL     1       0.367   9.052  21.862  0.00  0.00    +0.000 A 
ATOM      9  C   UNL     1      -0.365  10.241  21.871  0.00  0.00    +0.000 A 
ATOM     10 CL   UNL     1      -1.230  10.684  23.293  0.00  0.00    +0.000 Cl
ATOM     11  C   UNL     1      -0.415  11.066  20.748  0.00  0.00    +0.000 A 
ATOM     12  C   UNL     1       0.273  10.729  19.578  0.00  0.00    +0.000 A 
ATOM     13  C   UNL     1       0.993   9.527  19.579  0.00  0.00    +0.000 A 
ATOM     14  N   UNL     1       1.739   8.933  18.591  0.00  0.00    +0.000 N 
ATOM     15  H   UNL     1       1.892   9.308  17.662  0.00  0.00    +0.000 HD
ENDBRANCH   2   5
BRANCH   1  16
ATOM     16  C   UNL     1       4.835   6.668  16.531  0.00  0.00    +0.000 C 
BRANCH  16  19
ATOM     17  C   UNL     1       7.823   4.490  17.588  0.00  0.00    +0.000 C 
ATOM     18  N   UNL     1       6.575   4.907  16.967  0.00  0.00    +0.000 N 
ATOM     19  C   UNL     1       6.163   6.224  17.169  0.00  0.00    +0.000 C 
ATOM     20  O   UNL     1       6.801   7.000  17.884  0.00  0.00    +0.000 OA
BRANCH  18  21
ATOM     21  C   UNL     1       5.987   4.013  15.959  0.00  0.00    +0.000 C 
BRANCH  21  22
ATOM     22  C   UNL     1       6.444   4.215  14.524  0.00  0.00    +0.000 A 
ATOM     23  C   UNL     1       5.935   3.472  13.459  0.00  0.00    +0.000 A 
ATOM     24  C   UNL     1       6.451   3.672  12.181  0.00  0.00    +0.000 A 
ATOM     25  C   UNL     1       7.458   4.607  11.988  0.00  0.00    +0.000 A 
ATOM     26  C   UNL     1       7.904   5.313  13.092  0.00  0.00    +0.000 A 
ATOM     27  N   UNL     1       7.420   5.143  14.343  0.00  0.00    +0.000 NA
ENDBRANCH  21  22
ENDBRANCH  18  21
ENDBRANCH  16  19
ENDBRANCH   1  16
TORSDOF 5
ENDMDL
MODEL 6
REMARK VINA RESULT:      -7.6      4.324      8.981
REMARK  Name = 
REMARK  6 active torsions:
REMARK  status: ('A' for Active; 'I' for Inactive)
REMARK    1  A    between atoms: C_1  and  N_2
REMARK    2  A    between atoms: N_2  and  C_3
REMARK    3  A    between atoms: C_3  and  C_4
REMARK    4  A    between atoms: C_10  and  C_12
REMARK    5  A    between atoms: C_12  and  N_13
REMARK    6  A    between atoms: C_14  and  C_16
REMARK                            x       y       z     vdW  Elec       q    Type
REMARK                         _______ _______ _______ _____ _____    ______ ____
ROOT
ATOM      1  N   UNL     1       1.417   9.091  19.351  0.00  0.00    +0.000 N 
ATOM      2  C   UNL     1       1.807   7.852  19.795  0.00  0.00    +0.000 C 
ATOM      3  O   UNL     1       1.403   7.358  20.842  0.00  0.00    +0.000 OA
ATOM      4  H   UNL     1       1.853   9.497  18.535  0.00  0.00    +0.000 HD
ENDROOT
BRANCH   2   5
ATOM      5  C   UNL     1       2.704   7.140  18.914  0.00  0.00    +0.000 A 
ATOM      6  C   UNL     1       3.501   7.563  17.863  0.00  0.00    +0.000 A 
ATOM      7  C   UNL     1       4.104   6.421  17.272  0.00  0.00    +0.000 A 
ATOM      8  C   UNL     1       4.952   6.237  16.165  0.00  0.00    +0.000 A 
ATOM      9  C   UNL     1       5.335   4.939  15.820  0.00  0.00    +0.000 A 
ATOM     10 CL   UNL     1       6.347   4.698  14.448  0.00  0.00    +0.000 Cl
ATOM     11  C   UNL     1       4.903   3.839  16.560  0.00  0.00    +0.000 A 
ATOM     12  C   UNL     1       4.076   4.004  17.676  0.00  0.00    +0.000 A 
ATOM     13  C   UNL     1       3.690   5.310  18.002  0.00  0.00    +0.000 A 
ATOM     14  N   UNL     1       2.885   5.776  19.013  0.00  0.00    +0.000 N 
ATOM     15  H   UNL     1       2.433   5.204  19.717  0.00  0.00    +0.000 HD
ENDBRANCH   2   5
BRANCH   1  16
ATOM     16  C   UNL     1       0.535   9.946  20.123  0.00  0.00    +0.000 C 
BRANCH  16  19
ATOM     17  C   UNL     1      -0.483  13.313  18.568  0.00  0.00    +0.000 C 
ATOM     18  N   UNL     1      -0.554  11.942  19.051  0.00  0.00    +0.000 N 
ATOM     19  C   UNL     1       0.596  11.400  19.626  0.00  0.00    +0.000 C 
ATOM     20  O   UNL     1       1.651  12.036  19.685  0.00  0.00    +0.000 OA
BRANCH  18  21
ATOM     21  C   UNL     1      -1.885  11.326  19.153  0.00  0.00    +0.000 C 
BRANCH  21  22
ATOM     22  C   UNL     1      -2.566  10.961  17.844  0.00  0.00    +0.000 A 
ATOM     23  C   UNL     1      -2.015  10.061  16.933  0.00  0.00    +0.000 A 
ATOM     24  C   UNL     1      -2.669   9.826  15.727  0.00  0.00    +0.000 A 
ATOM     25  C   UNL     1      -3.858  10.488  15.454  0.00  0.00    +0.000 A 
ATOM     26  C   UNL     1      -4.349  11.358  16.412  0.00  0.00    +0.000 A 
ATOM     27  N   UNL     1      -3.737  11.603  17.593  0.00  0.00    +0.000 NA
ENDBRANCH  21  22
ENDBRANCH  18  21
ENDBRANCH  16  19
ENDBRANCH   1  16
TORSDOF 5
ENDMDL
MODEL 7
REMARK VINA RESULT:      -7.5      0.791      1.297
REMARK  Name = 
REMARK  6 active torsions:
REMARK  status: ('A' for Active; 'I' for Inactive)
REMARK    1  A    between atoms: C_1  and  N_2
REMARK    2  A    between atoms: N_2  and  C_3
REMARK    3  A    between atoms: C_3  and  C_4
REMARK    4  A    between atoms: C_10  and  C_12
REMARK    5  A    between atoms: C_12  and  N_13
REMARK    6  A    between atoms: C_14  and  C_16
REMARK                            x       y       z     vdW  Elec       q    Type
REMARK                         _______ _______ _______ _____ _____    ______ ____
ROOT
ATOM      1  N   UNL     1       3.225   5.694  18.493  0.00  0.00    +0.000 N 
ATOM      2  C   UNL     1       2.515   5.702  19.668  0.00  0.00    +0.000 C 
ATOM      3  O   UNL     1       2.426   4.725  20.403  0.00  0.00    +0.000 OA
ATOM      4  H   UNL     1       3.186   6.491  17.872  0.00  0.00    +0.000 HD
ENDROOT
BRANCH   2   5
ATOM      5  C   UNL     1       1.907   6.968  20.008  0.00  0.00    +0.000 A 
ATOM      6  C   UNL     1       1.770   8.151  19.300  0.00  0.00    +0.000 A 
ATOM      7  C   UNL     1       1.179   9.117  20.156  0.00  0.00    +0.000 A 
ATOM      8  C   UNL     1       0.852  10.477  20.003  0.00  0.00    +0.000 A 
ATOM      9  C   UNL     1       0.306  11.164  21.089  0.00  0.00    +0.000 A 
ATOM     10 CL   UNL     1      -0.067  12.837  20.923  0.00  0.00    +0.000 Cl
ATOM     11  C   UNL     1       0.069  10.521  22.304  0.00  0.00    +0.000 A 
ATOM     12  C   UNL     1       0.367   9.165  22.469  0.00  0.00    +0.000 A 
ATOM     13  C   UNL     1       0.927   8.492  21.375  0.00  0.00    +0.000 A 
ATOM     14  N   UNL     1       1.333   7.187  21.244  0.00  0.00    +0.000 N 
ATOM     15  H   UNL     1       1.275   6.476  21.964  0.00  0.00    +0.000 HD
ENDBRANCH   2   5
BRANCH   1  16
ATOM     16  C   UNL     1       3.880   4.501  17.994  0.00  0.00    +0.000 C 
BRANCH  16  19
ATOM     17  C   UNL     1       7.709   4.863  18.037  0.00  0.00    +0.000 C 
ATOM     18  N   UNL     1       6.323   4.943  17.600  0.00  0.00    +0.000 N 
ATOM     19  C   UNL     1       5.346   4.437  18.457  0.00  0.00    +0.000 C 
ATOM     20  O   UNL     1       5.640   3.897  19.526  0.00  0.00    +0.000 OA
BRANCH  18  21
ATOM     21  C   UNL     1       6.028   5.788  16.433  0.00  0.00    +0.000 C 
BRANCH  21  22
ATOM     22  C   UNL     1       6.256   5.162  15.067  0.00  0.00    +0.000 A 
ATOM     23  C   UNL     1       5.356   4.271  14.486  0.00  0.00    +0.000 A 
ATOM     24  C   UNL     1       5.667   3.692  13.258  0.00  0.00    +0.000 A 
ATOM     25  C   UNL     1       6.863   4.014  12.634  0.00  0.00    +0.000 A 
ATOM     26  C   UNL     1       7.701   4.916  13.267  0.00  0.00    +0.000 A 
ATOM     27  N   UNL     1       7.424   5.496  14.458  0.00  0.00    +0.000 NA
ENDBRANCH  21  22
ENDBRANCH  18  21
ENDBRANCH  16  19
ENDBRANCH   1  16
TORSDOF 5
ENDMDL
MODEL 8
REMARK VINA RESULT:      -7.5      2.504      3.401
REMARK  Name = 
REMARK  6 active torsions:
REMARK  status: ('A' for Active; 'I' for Inactive)
REMARK    1  A    between atoms: C_1  and  N_2
REMARK    2  A    between atoms: N_2  and  C_3
REMARK    3  A    between atoms: C_3  and  C_4
REMARK    4  A    between atoms: C_10  and  C_12
REMARK    5  A    between atoms: C_12  and  N_13
REMARK    6  A    between atoms: C_14  and  C_16
REMARK                            x       y       z     vdW  Elec       q    Type
REMARK                         _______ _______ _______ _____ _____    ______ ____
ROOT
ATOM      1  N   UNL     1       2.001   5.867  20.951  0.00  0.00    +0.000 N 
ATOM      2  C   UNL     1       2.234   6.952  20.143  0.00  0.00    +0.000 C 
ATOM      3  O   UNL     1       2.991   6.919  19.179  0.00  0.00    +0.000 OA
ATOM      4  H   UNL     1       1.448   5.970  21.790  0.00  0.00    +0.000 HD
ENDROOT
BRANCH   2   5
ATOM      5  C   UNL     1       1.485   8.141  20.482  0.00  0.00    +0.000 A 
ATOM      6  C   UNL     1       0.984   8.609  21.685  0.00  0.00    +0.000 A 
ATOM      7  C   UNL     1       0.232   9.785  21.428  0.00  0.00    +0.000 A 
ATOM      8  C   UNL     1      -0.530  10.645  22.240  0.00  0.00    +0.000 A 
ATOM      9  C   UNL     1      -1.198  11.717  21.644  0.00  0.00    +0.000 A 
ATOM     10 CL   UNL     1      -2.159  12.757  22.623  0.00  0.00    +0.000 Cl
ATOM     11  C   UNL     1      -1.107  11.950  20.272  0.00  0.00    +0.000 A 
ATOM     12  C   UNL     1      -0.337  11.119  19.452  0.00  0.00    +0.000 A 
ATOM     13  C   UNL     1       0.316  10.040  20.062  0.00  0.00    +0.000 A 
ATOM     14  N   UNL     1       1.114   9.061  19.523  0.00  0.00    +0.000 N 
ATOM     15  H   UNL     1       1.366   8.978  18.545  0.00  0.00    +0.000 HD
ENDBRANCH   2   5
BRANCH   1  16
ATOM     16  C   UNL     1       2.685   4.602  20.762  0.00  0.00    +0.000 C 
BRANCH  16  19
ATOM     17  C   UNL     1       2.523   2.656  17.449  0.00  0.00    +0.000 C 
ATOM     18  N   UNL     1       3.052   3.351  18.612  0.00  0.00    +0.000 N 
ATOM     19  C   UNL     1       2.135   3.850  19.538  0.00  0.00    +0.000 C 
ATOM     20  O   UNL     1       0.918   3.751  19.361  0.00  0.00    +0.000 OA
BRANCH  18  21
ATOM     21  C   UNL     1       4.494   3.239  18.872  0.00  0.00    +0.000 C 
BRANCH  21  22
ATOM     22  C   UNL     1       5.359   4.402  18.413  0.00  0.00    +0.000 A 
ATOM     23  C   UNL     1       5.172   5.043  17.189  0.00  0.00    +0.000 A 
ATOM     24  C   UNL     1       6.046   6.060  16.812  0.00  0.00    +0.000 A 
ATOM     25  C   UNL     1       7.083   6.419  17.661  0.00  0.00    +0.000 A 
ATOM     26  C   UNL     1       7.197   5.745  18.864  0.00  0.00    +0.000 A 
ATOM     27  N   UNL     1       6.362   4.756  19.258  0.00  0.00    +0.000 NA
ENDBRANCH  21  22
ENDBRANCH  18  21
ENDBRANCH  16  19
ENDBRANCH   1  16
TORSDOF 5
ENDMDL
MODEL 9
REMARK VINA RESULT:      -7.5      2.508      3.639
REMARK  Name = 
REMARK  6 active torsions:
REMARK  status: ('A' for Active; 'I' for Inactive)
REMARK    1  A    between atoms: C_1  and  N_2
REMARK    2  A    between atoms: N_2  and  C_3
REMARK    3  A    between atoms: C_3  and  C_4
REMARK    4  A    between atoms: C_10  and  C_12
REMARK    5  A    between atoms: C_12  and  N_13
REMARK    6  A    between atoms: C_14  and  C_16
REMARK                            x       y       z     vdW  Elec       q    Type
REMARK                         _______ _______ _______ _____ _____    ______ ____
ROOT
ATOM      1  N   UNL     1       1.956   6.022  20.673  0.00  0.00    +0.000 N 
ATOM      2  C   UNL     1       2.375   6.910  19.714  0.00  0.00    +0.000 C 
ATOM      3  O   UNL     1       3.230   6.639  18.879  0.00  0.00    +0.000 OA
ATOM      4  H   UNL     1       1.323   6.324  21.401  0.00  0.00    +0.000 HD
ENDROOT
BRANCH   2   5
ATOM      5  C   UNL     1       1.701   8.189  19.726  0.00  0.00    +0.000 A 
ATOM      6  C   UNL     1       1.508   9.144  18.742  0.00  0.00    +0.000 A 
ATOM      7  C   UNL     1       0.863  10.265  19.327  0.00  0.00    +0.000 A 
ATOM      8  C   UNL     1       0.469  11.523  18.836  0.00  0.00    +0.000 A 
ATOM      9  C   UNL     1      -0.117  12.435  19.716  0.00  0.00    +0.000 A 
ATOM     10 CL   UNL     1      -0.574  13.990  19.132  0.00  0.00    +0.000 Cl
ATOM     11  C   UNL     1      -0.327  12.112  21.056  0.00  0.00    +0.000 A 
ATOM     12  C   UNL     1       0.039  10.859  21.558  0.00  0.00    +0.000 A 
ATOM     13  C   UNL     1       0.638   9.959  20.668  0.00  0.00    +0.000 A 
ATOM     14  N   UNL     1       1.111   8.686  20.870  0.00  0.00    +0.000 N 
ATOM     15  H   UNL     1       1.085   8.180  21.748  0.00  0.00    +0.000 HD
ENDBRANCH   2   5
BRANCH   1  16
ATOM     16  C   UNL     1       2.541   4.702  20.812  0.00  0.00    +0.000 C 
BRANCH  16  19
ATOM     17  C   UNL     1       2.473   2.230  17.868  0.00  0.00    +0.000 C 
ATOM     18  N   UNL     1       2.968   3.118  18.909  0.00  0.00    +0.000 N 
ATOM     19  C   UNL     1       2.026   3.748  19.721  0.00  0.00    +0.000 C 
ATOM     20  O   UNL     1       0.815   3.601  19.542  0.00  0.00    +0.000 OA
BRANCH  18  21
ATOM     21  C   UNL     1       4.407   3.075  19.209  0.00  0.00    +0.000 C 
BRANCH  21  22
ATOM     22  C   UNL     1       5.277   4.105  18.508  0.00  0.00    +0.000 A 
ATOM     23  C   UNL     1       5.230   4.321  17.131  0.00  0.00    +0.000 A 
ATOM     24  C   UNL     1       6.105   5.239  16.555  0.00  0.00    +0.000 A 
ATOM     25  C   UNL     1       7.004   5.924  17.360  0.00  0.00    +0.000 A 
ATOM     26  C   UNL     1       6.984   5.665  18.720  0.00  0.00    +0.000 A 
ATOM     27  N   UNL     1       6.144   4.782  19.307  0.00  0.00    +0.000 NA
ENDBRANCH  21  22
ENDBRANCH  18  21
ENDBRANCH  16  19
ENDBRANCH   1  16
TORSDOF 5
ENDMDL
