MODEL 1
REMARK VINA RESULT:      -8.1      0.000      0.000
REMARK  Name = 
REMARK  11 active torsions:
REMARK  status: ('A' for Active; 'I' for Inactive)
REMARK    1  A    between atoms: C_1  and  C_2
REMARK    2  A    between atoms: C_2  and  C_4
REMARK    3  A    between atoms: C_9  and  C_10
REMARK    4  A    between atoms: C_12  and  C_13
REMARK    5  A    between atoms: C_18  and  C_19
REMARK    6  A    between atoms: C_19  and  N_20
REMARK    7  A    between atoms: C_21  and  C_23
REMARK    8  A    between atoms: C_23  and  C_24
REMARK    9  A    between atoms: C_23  and  N_25
REMARK   10  A    between atoms: C_27  and  C_28
REMARK   11  A    between atoms: C_30  and  C_31
REMARK                            x       y       z     vdW  Elec       q    Type
REMARK                         _______ _______ _______ _____ _____    ______ ____
ROOT
ATOM      1  C   UNL     1      -2.310  11.116  17.746  0.00  0.00    +0.000 A 
ATOM      2  C   UNL     1      -2.084  10.550  16.465  0.00  0.00    +0.000 A 
ATOM      3  C   UNL     1      -3.085  10.439  15.481  0.00  0.00    +0.000 A 
ATOM      4  C   UNL     1      -2.783   9.835  14.143  0.00  0.00    +0.000 C 
ATOM      5  C   UNL     1      -4.369  10.893  15.766  0.00  0.00    +0.000 A 
ATOM      6  C   UNL     1      -4.623  11.412  17.024  0.00  0.00    +0.000 A 
ATOM      7  C   UNL     1      -3.636  11.503  18.001  0.00  0.00    +0.000 A 
ATOM      8  O   UNL     1      -4.141  11.985  19.192  0.00  0.00    +0.000 OA
ATOM      9  C   UNL     1      -5.539  12.344  18.933  0.00  0.00    +0.000 C 
ATOM     10  C   UNL     1      -5.923  11.908  17.519  0.00  0.00    +0.000 C 
ENDROOT
BRANCH   1  16
ATOM     11  C   UNL     1       0.463  10.250  20.245  0.00  0.00    +0.000 A 
ATOM     12  C   UNL     1       1.123  11.479  20.373  0.00  0.00    +0.000 A 
ATOM     13  C   UNL     1       0.650  12.587  19.683  0.00  0.00    +0.000 A 
ATOM     14  C   UNL     1      -0.478  12.466  18.869  0.00  0.00    +0.000 A 
ATOM     15  F   UNL     1      -0.890  13.581  18.246  0.00  0.00    +0.000 F 
ATOM     16  C   UNL     1      -1.163  11.243  18.689  0.00  0.00    +0.000 A 
ATOM     17  C   UNL     1      -0.666  10.142  19.407  0.00  0.00    +0.000 A 
BRANCH  11  19
ATOM     18  C   UNL     1       1.003   9.128  22.502  0.00  0.00    +0.000 C 
ATOM     19  C   UNL     1       1.002   9.078  20.997  0.00  0.00    +0.000 C 
ATOM     20  O   UNL     1       1.432   8.101  20.388  0.00  0.00    +0.000 OA
ENDBRANCH  11  19
ENDBRANCH   1  16
BRANCH   9  21
ATOM     21  C   UNL     1      -6.479  11.732  19.996  0.00  0.00    +0.000 C 
BRANCH  21  22
ATOM     22  N   UNL     1      -6.096  12.030  21.382  0.00  0.00    +0.000 N 
ATOM     23  C   UNL     1      -6.479  13.188  22.028  0.00  0.00    +0.000 C 
ATOM     24  O   UNL     1      -7.214  14.021  21.485  0.00  0.00    +0.000 OA
ATOM     25  H   UNL     1      -5.369  11.471  21.827  0.00  0.00    +0.000 HD
BRANCH  23  26
ATOM     26  C   UNL     1      -5.984  13.410  23.458  0.00  0.00    +0.000 C 
ATOM     27  C   UNL     1      -6.572  12.429  24.470  0.00  0.00    +0.000 C 
BRANCH  26  28
ATOM     28  N   UNL     1      -4.525  13.448  23.512  0.00  0.00    +0.000 N 
ATOM     29  N   UNL     1      -3.826  12.349  23.136  0.00  0.00    +0.000 NA
ATOM     30  C   UNL     1      -2.548  12.685  23.347  0.00  0.00    +0.000 A 
ATOM     31  C   UNL     1      -1.448  11.744  23.033  0.00  0.00    +0.000 C 
ATOM     32  C   UNL     1      -2.430  13.989  23.870  0.00  0.00    +0.000 A 
ATOM     33  C   UNL     1      -3.718  14.467  23.965  0.00  0.00    +0.000 A 
ATOM     34  C   UNL     1      -4.203  15.790  24.437  0.00  0.00    +0.000 C 
ENDBRANCH  26  28
ENDBRANCH  23  26
ENDBRANCH  21  22
ENDBRANCH   9  21
TORSDOF 6
ENDMDL
MODEL 2
REMARK VINA RESULT:      -7.8      5.769      8.688
REMARK  Name = 
REMARK  11 active torsions:
REMARK  status: ('A' for Active; 'I' for Inactive)
REMARK    1  A    between atoms: C_1  and  C_2
REMARK    2  A    between atoms: C_2  and  C_4
REMARK    3  A    between atoms: C_9  and  C_10
REMARK    4  A    between atoms: C_12  and  C_13
REMARK    5  A    between atoms: C_18  and  C_19
REMARK    6  A    between atoms: C_19  and  N_20
REMARK    7  A    between atoms: C_21  and  C_23
REMARK    8  A    between atoms: C_23  and  C_24
REMARK    9  A    between atoms: C_23  and  N_25
REMARK   10  A    between atoms: C_27  and  C_28
REMARK   11  A    between atoms: C_30  and  C_31
REMARK                            x       y       z     vdW  Elec       q    Type
REMARK                         _______ _______ _______ _____ _____    ______ ____
ROOT
ATOM      1  C   UNL     1       3.921   5.450  18.757  0.00  0.00    +0.000 A 
ATOM      2  C   UNL     1       3.561   4.530  19.775  0.00  0.00    +0.000 A 
ATOM      3  C   UNL     1       2.419   4.682  20.585  0.00  0.00    +0.000 A 
ATOM      4  C   UNL     1       2.088   3.671  21.642  0.00  0.00    +0.000 C 
ATOM      5  C   UNL     1       1.598   5.789  20.399  0.00  0.00    +0.000 A 
ATOM      6  C   UNL     1       1.952   6.721  19.439  0.00  0.00    +0.000 A 
ATOM      7  C   UNL     1       3.091   6.578  18.652  0.00  0.00    +0.000 A 
ATOM      8  O   UNL     1       3.275   7.664  17.819  0.00  0.00    +0.000 OA
ATOM      9  C   UNL     1       2.100   8.524  17.997  0.00  0.00    +0.000 C 
ATOM     10  C   UNL     1       1.229   7.969  19.124  0.00  0.00    +0.000 C 
ENDROOT
BRANCH   1  16
ATOM     11  C   UNL     1       6.149   4.709  15.728  0.00  0.00    +0.000 A 
ATOM     12  C   UNL     1       7.427   4.752  16.299  0.00  0.00    +0.000 A 
ATOM     13  C   UNL     1       7.563   4.982  17.662  0.00  0.00    +0.000 A 
ATOM     14  C   UNL     1       6.425   5.169  18.449  0.00  0.00    +0.000 A 
ATOM     15  F   UNL     1       6.629   5.370  19.760  0.00  0.00    +0.000 F 
ATOM     16  C   UNL     1       5.116   5.159  17.914  0.00  0.00    +0.000 A 
ATOM     17  C   UNL     1       5.011   4.914  16.535  0.00  0.00    +0.000 A 
BRANCH  11  19
ATOM     18  C   UNL     1       7.229   4.778  13.389  0.00  0.00    +0.000 C 
ATOM     19  C   UNL     1       6.041   4.464  14.260  0.00  0.00    +0.000 C 
ATOM     20  O   UNL     1       5.000   4.015  13.785  0.00  0.00    +0.000 OA
ENDBRANCH  11  19
ENDBRANCH   1  16
BRANCH   9  21
ATOM     21  C   UNL     1       2.515   9.988  18.262  0.00  0.00    +0.000 C 
BRANCH  21  22
ATOM     22  N   UNL     1       1.409  10.952  18.181  0.00  0.00    +0.000 N 
ATOM     23  C   UNL     1       0.754  11.431  19.297  0.00  0.00    +0.000 C 
ATOM     24  O   UNL     1       1.100  11.109  20.440  0.00  0.00    +0.000 OA
ATOM     25  H   UNL     1       0.974  11.133  17.277  0.00  0.00    +0.000 HD
BRANCH  23  26
ATOM     26  C   UNL     1      -0.412  12.399  19.087  0.00  0.00    +0.000 C 
ATOM     27  C   UNL     1      -0.030  13.658  18.312  0.00  0.00    +0.000 C 
BRANCH  26  28
ATOM     28  N   UNL     1      -1.562  11.718  18.499  0.00  0.00    +0.000 N 
ATOM     29  N   UNL     1      -1.381  10.962  17.389  0.00  0.00    +0.000 NA
ATOM     30  C   UNL     1      -2.609  10.530  17.081  0.00  0.00    +0.000 A 
ATOM     31  C   UNL     1      -2.838   9.637  15.921  0.00  0.00    +0.000 C 
ATOM     32  C   UNL     1      -3.576  11.022  17.981  0.00  0.00    +0.000 A 
ATOM     33  C   UNL     1      -2.880  11.783  18.893  0.00  0.00    +0.000 A 
ATOM     34  C   UNL     1      -3.378  12.533  20.074  0.00  0.00    +0.000 C 
ENDBRANCH  26  28
ENDBRANCH  23  26
ENDBRANCH  21  22
ENDBRANCH   9  21
TORSDOF 6
ENDMDL
MODEL 3
REMARK VINA RESULT:      -7.6      5.759      8.396
REMARK  Name = 
REMARK  11 active torsions:
REMARK  status: ('A' for Active; 'I' for Inactive)
REMARK    1  A    between atoms: C_1  and  C_2
REMARK    2  A    between atoms: C_2  and  C_4
REMARK    3  A    between atoms: C_9  and  C_10
REMARK    4  A    between atoms: C_12  and  C_13
REMARK    5  A    between atoms: C_18  and  C_19
REMARK    6  A    between atoms: C_19  and  N_20
REMARK    7  A    between atoms: C_21  and  C_23
REMARK    8  A    between atoms: C_23  and  C_24
REMARK    9  A    between atoms: C_23  and  N_25
REMARK   10  A    between atoms: C_27  and  C_28
REMARK   11  A    between atoms: C_30  and  C_31
REMARK                            x       y       z     vdW  Elec       q    Type
REMARK                         _______ _______ _______ _____ _____    ______ ____
ROOT
ATOM      1  C   UNL     1       3.991   5.534  18.741  0.00  0.00    +0.000 A 
ATOM      2  C   UNL     1       3.660   4.657  19.805  0.00  0.00    +0.000 A 
ATOM      3  C   UNL     1       2.512   4.812  20.605  0.00  0.00    +0.000 A 
ATOM      4  C   UNL     1       2.212   3.847  21.713  0.00  0.00    +0.000 C 
ATOM      5  C   UNL     1       1.655   5.881  20.362  0.00  0.00    +0.000 A 
ATOM      6  C   UNL     1       1.981   6.773  19.356  0.00  0.00    +0.000 A 
ATOM      7  C   UNL     1       3.125   6.628  18.578  0.00  0.00    +0.000 A 
ATOM      8  O   UNL     1       3.276   7.675  17.690  0.00  0.00    +0.000 OA
ATOM      9  C   UNL     1       2.073   8.504  17.823  0.00  0.00    +0.000 C 
ATOM     10  C   UNL     1       1.218   7.980  18.976  0.00  0.00    +0.000 C 
ENDROOT
BRANCH   1  16
ATOM     11  C   UNL     1       6.255   4.764  15.746  0.00  0.00    +0.000 A 
ATOM     12  C   UNL     1       7.527   4.824  16.329  0.00  0.00    +0.000 A 
ATOM     13  C   UNL     1       7.648   5.075  17.689  0.00  0.00    +0.000 A 
ATOM     14  C   UNL     1       6.500   5.265  18.462  0.00  0.00    +0.000 A 
ATOM     15  F   UNL     1       6.690   5.487  19.772  0.00  0.00    +0.000 F 
ATOM     16  C   UNL     1       5.197   5.239  17.915  0.00  0.00    +0.000 A 
ATOM     17  C   UNL     1       5.107   4.974  16.538  0.00  0.00    +0.000 A 
BRANCH  11  19
ATOM     18  C   UNL     1       7.332   4.874  13.406  0.00  0.00    +0.000 C 
ATOM     19  C   UNL     1       6.164   4.498  14.280  0.00  0.00    +0.000 C 
ATOM     20  O   UNL     1       5.153   3.982  13.810  0.00  0.00    +0.000 OA
ENDBRANCH  11  19
ENDBRANCH   1  16
BRANCH   9  21
ATOM     21  C   UNL     1       2.439   9.993  18.013  0.00  0.00    +0.000 C 
BRANCH  21  22
ATOM     22  N   UNL     1       1.305  10.850  18.382  0.00  0.00    +0.000 N 
ATOM     23  C   UNL     1       1.468  12.114  18.913  0.00  0.00    +0.000 C 
ATOM     24  O   UNL     1       2.588  12.615  19.061  0.00  0.00    +0.000 OA
ATOM     25  H   UNL     1       0.372  10.443  18.436  0.00  0.00    +0.000 HD
BRANCH  23  26
ATOM     26  C   UNL     1       0.213  12.898  19.301  0.00  0.00    +0.000 C 
ATOM     27  C   UNL     1      -0.924  12.771  18.289  0.00  0.00    +0.000 C 
BRANCH  26  28
ATOM     28  N   UNL     1      -0.216  12.569  20.657  0.00  0.00    +0.000 N 
ATOM     29  N   UNL     1      -0.134  11.284  21.078  0.00  0.00    +0.000 NA
ATOM     30  C   UNL     1      -0.641  11.311  22.316  0.00  0.00    +0.000 A 
ATOM     31  C   UNL     1      -0.709  10.082  23.142  0.00  0.00    +0.000 C 
ATOM     32  C   UNL     1      -1.062  12.606  22.680  0.00  0.00    +0.000 A 
ATOM     33  C   UNL     1      -0.774  13.406  21.597  0.00  0.00    +0.000 A 
ATOM     34  C   UNL     1      -0.986  14.865  21.417  0.00  0.00    +0.000 C 
ENDBRANCH  26  28
ENDBRANCH  23  26
ENDBRANCH  21  22
ENDBRANCH   9  21
TORSDOF 6
ENDMDL
MODEL 4
REMARK VINA RESULT:      -7.3      9.444     12.078
REMARK  Name = 
REMARK  11 active torsions:
REMARK  status: ('A' for Active; 'I' for Inactive)
REMARK    1  A    between atoms: C_1  and  C_2
REMARK    2  A    between atoms: C_2  and  C_4
REMARK    3  A    between atoms: C_9  and  C_10
REMARK    4  A    between atoms: C_12  and  C_13
REMARK    5  A    between atoms: C_18  and  C_19
REMARK    6  A    between atoms: C_19  and  N_20
REMARK    7  A    between atoms: C_21  and  C_23
REMARK    8  A    between atoms: C_23  and  C_24
REMARK    9  A    between atoms: C_23  and  N_25
REMARK   10  A    between atoms: C_27  and  C_28
REMARK   11  A    between atoms: C_30  and  C_31
REMARK                            x       y       z     vdW  Elec       q    Type
REMARK                         _______ _______ _______ _____ _____    ______ ____
ROOT
ATOM      1  C   UNL     1       4.838   5.315  17.289  0.00  0.00    +0.000 A 
ATOM      2  C   UNL     1       4.628   4.545  16.117  0.00  0.00    +0.000 A 
ATOM      3  C   UNL     1       5.550   4.487  15.054  0.00  0.00    +0.000 A 
ATOM      4  C   UNL     1       5.274   3.649  13.842  0.00  0.00    +0.000 C 
ATOM      5  C   UNL     1       6.726   5.226  15.137  0.00  0.00    +0.000 A 
ATOM      6  C   UNL     1       6.933   6.017  16.253  0.00  0.00    +0.000 A 
ATOM      7  C   UNL     1       6.011   6.086  17.294  0.00  0.00    +0.000 A 
ATOM      8  O   UNL     1       6.400   6.992  18.260  0.00  0.00    +0.000 OA
ATOM      9  C   UNL     1       7.735   7.462  17.873  0.00  0.00    +0.000 C 
ATOM     10  C   UNL     1       8.096   6.893  16.501  0.00  0.00    +0.000 C 
ENDROOT
BRANCH   1  16
ATOM     11  C   UNL     1       2.788   4.098  20.290  0.00  0.00    +0.000 A 
ATOM     12  C   UNL     1       1.984   5.215  20.555  0.00  0.00    +0.000 A 
ATOM     13  C   UNL     1       2.079   6.338  19.745  0.00  0.00    +0.000 A 
ATOM     14  C   UNL     1       2.976   6.344  18.674  0.00  0.00    +0.000 A 
ATOM     15  F   UNL     1       3.004   7.456  17.923  0.00  0.00    +0.000 F 
ATOM     16  C   UNL     1       3.825   5.252  18.382  0.00  0.00    +0.000 A 
ATOM     17  C   UNL     1       3.698   4.127  19.213  0.00  0.00    +0.000 A 
BRANCH  11  19
ATOM     18  C   UNL     1       1.309   2.583  21.760  0.00  0.00    +0.000 C 
ATOM     19  C   UNL     1       2.662   2.910  21.185  0.00  0.00    +0.000 C 
ATOM     20  O   UNL     1       3.648   2.223  21.438  0.00  0.00    +0.000 OA
ENDBRANCH  11  19
ENDBRANCH   1  16
BRANCH   9  21
ATOM     21  C   UNL     1       7.811   9.004  17.891  0.00  0.00    +0.000 C 
BRANCH  21  22
ATOM     22  N   UNL     1       8.901   9.544  18.715  0.00  0.00    +0.000 N 
ATOM     23  C   UNL     1       9.294  10.866  18.659  0.00  0.00    +0.000 C 
ATOM     24  O   UNL     1       8.711  11.685  17.940  0.00  0.00    +0.000 OA
ATOM     25  H   UNL     1       9.521   8.898  19.203  0.00  0.00    +0.000 HD
BRANCH  23  26
ATOM     26  C   UNL     1      10.471  11.304  19.532  0.00  0.00    +0.000 C 
ATOM     27  C   UNL     1      11.791  11.414  18.771  0.00  0.00    +0.000 C 
BRANCH  26  28
ATOM     28  N   UNL     1      10.156  12.525  20.269  0.00  0.00    +0.000 N 
ATOM     29  N   UNL     1      10.723  13.692  19.876  0.00  0.00    +0.000 NA
ATOM     30  C   UNL     1      10.282  14.587  20.768  0.00  0.00    +0.000 A 
ATOM     31  C   UNL     1      10.664  16.016  20.671  0.00  0.00    +0.000 C 
ATOM     32  C   UNL     1       9.448  13.992  21.737  0.00  0.00    +0.000 A 
ATOM     33  C   UNL     1       9.375  12.660  21.394  0.00  0.00    +0.000 A 
ATOM     34  C   UNL     1       8.628  11.556  22.048  0.00  0.00    +0.000 C 
ENDBRANCH  26  28
ENDBRANCH  23  26
ENDBRANCH  21  22
ENDBRANCH   9  21
TORSDOF 6
ENDMDL
MODEL 5
REMARK VINA RESULT:      -7.2      6.722      9.347
REMARK  Name = 
REMARK  11 active torsions:
REMARK  status: ('A' for Active; 'I' for Inactive)
REMARK    1  A    between atoms: C_1  and  C_2
REMARK    2  A    between atoms: C_2  and  C_4
REMARK    3  A    between atoms: C_9  and  C_10
REMARK    4  A    between atoms: C_12  and  C_13
REMARK    5  A    between atoms: C_18  and  C_19
REMARK    6  A    between atoms: C_19  and  N_20
REMARK    7  A    between atoms: C_21  and  C_23
REMARK    8  A    between atoms: C_23  and  C_24
REMARK    9  A    between atoms: C_23  and  N_25
REMARK   10  A    between atoms: C_27  and  C_28
REMARK   11  A    between atoms: C_30  and  C_31
REMARK                            x       y       z     vdW  Elec       q    Type
REMARK                         _______ _______ _______ _____ _____    ______ ____
ROOT
ATOM      1  C   UNL     1       4.871   4.561  17.241  0.00  0.00    +0.000 A 
ATOM      2  C   UNL     1       5.030   3.481  18.146  0.00  0.00    +0.000 A 
ATOM      3  C   UNL     1       4.228   3.307  19.290  0.00  0.00    +0.000 A 
ATOM      4  C   UNL     1       4.441   2.140  20.207  0.00  0.00    +0.000 C 
ATOM      5  C   UNL     1       3.232   4.238  19.569  0.00  0.00    +0.000 A 
ATOM      6  C   UNL     1       3.086   5.323  18.721  0.00  0.00    +0.000 A 
ATOM      7  C   UNL     1       3.892   5.502  17.601  0.00  0.00    +0.000 A 
ATOM      8  O   UNL     1       3.608   6.688  16.953  0.00  0.00    +0.000 OA
ATOM      9  C   UNL     1       2.448   7.266  17.640  0.00  0.00    +0.000 C 
ATOM     10  C   UNL     1       2.115   6.425  18.872  0.00  0.00    +0.000 C 
ENDROOT
BRANCH   1  16
ATOM     11  C   UNL     1       6.183   4.024  13.681  0.00  0.00    +0.000 A 
ATOM     12  C   UNL     1       7.316   4.848  13.669  0.00  0.00    +0.000 A 
ATOM     13  C   UNL     1       7.673   5.542  14.818  0.00  0.00    +0.000 A 
ATOM     14  C   UNL     1       6.898   5.412  15.972  0.00  0.00    +0.000 A 
ATOM     15  F   UNL     1       7.309   6.098  17.050  0.00  0.00    +0.000 F 
ATOM     16  C   UNL     1       5.733   4.614  16.026  0.00  0.00    +0.000 A 
ATOM     17  C   UNL     1       5.404   3.917  14.851  0.00  0.00    +0.000 A 
BRANCH  11  19
ATOM     18  C   UNL     1       4.449   3.489  11.850  0.00  0.00    +0.000 C 
ATOM     19  C   UNL     1       5.827   3.297  12.427  0.00  0.00    +0.000 C 
ATOM     20  O   UNL     1       6.650   2.562  11.887  0.00  0.00    +0.000 OA
ENDBRANCH  11  19
ENDBRANCH   1  16
BRANCH   9  21
ATOM     21  C   UNL     1       2.697   8.746  18.007  0.00  0.00    +0.000 C 
BRANCH  21  22
ATOM     22  N   UNL     1       1.539   9.623  17.792  0.00  0.00    +0.000 N 
ATOM     23  C   UNL     1       0.880  10.255  18.828  0.00  0.00    +0.000 C 
ATOM     24  O   UNL     1       1.265  10.154  19.998  0.00  0.00    +0.000 OA
ATOM     25  H   UNL     1       1.078   9.622  16.883  0.00  0.00    +0.000 HD
BRANCH  23  26
ATOM     26  C   UNL     1      -0.341  11.111  18.486  0.00  0.00    +0.000 C 
ATOM     27  C   UNL     1      -1.519  10.306  17.942  0.00  0.00    +0.000 C 
BRANCH  26  28
ATOM     28  N   UNL     1      -0.725  11.955  19.614  0.00  0.00    +0.000 N 
ATOM     29  N   UNL     1      -1.430  11.408  20.633  0.00  0.00    +0.000 NA
ATOM     30  C   UNL     1      -1.662  12.435  21.460  0.00  0.00    +0.000 A 
ATOM     31  C   UNL     1      -2.400  12.242  22.731  0.00  0.00    +0.000 C 
ATOM     32  C   UNL     1      -1.121  13.638  20.963  0.00  0.00    +0.000 A 
ATOM     33  C   UNL     1      -0.515  13.307  19.772  0.00  0.00    +0.000 A 
ATOM     34  C   UNL     1       0.227  14.169  18.818  0.00  0.00    +0.000 C 
ENDBRANCH  26  28
ENDBRANCH  23  26
ENDBRANCH  21  22
ENDBRANCH   9  21
TORSDOF 6
ENDMDL
MODEL 6
REMARK VINA RESULT:      -7.1      5.018      9.160
REMARK  Name = 
REMARK  11 active torsions:
REMARK  status: ('A' for Active; 'I' for Inactive)
REMARK    1  A    between atoms: C_1  and  C_2
REMARK    2  A    between atoms: C_2  and  C_4
REMARK    3  A    between atoms: C_9  and  C_10
REMARK    4  A    between atoms: C_12  and  C_13
REMARK    5  A    between atoms: C_18  and  C_19
REMARK    6  A    between atoms: C_19  and  N_20
REMARK    7  A    between atoms: C_21  and  C_23
REMARK    8  A    between atoms: C_23  and  C_24
REMARK    9  A    between atoms: C_23  and  N_25
REMARK   10  A    between atoms: C_27  and  C_28
REMARK   11  A    between atoms: C_30  and  C_31
REMARK                            x       y       z     vdW  Elec       q    Type
REMARK                         _______ _______ _______ _____ _____    ______ ____
ROOT
ATOM      1  C   UNL     1       0.457  12.280  21.233  0.00  0.00    +0.000 A 
ATOM      2  C   UNL     1      -0.579  13.046  21.826  0.00  0.00    +0.000 A 
ATOM      3  C   UNL     1      -1.488  12.522  22.765  0.00  0.00    +0.000 A 
ATOM      4  C   UNL     1      -2.558  13.384  23.362  0.00  0.00    +0.000 C 
ATOM      5  C   UNL     1      -1.387  11.183  23.133  0.00  0.00    +0.000 A 
ATOM      6  C   UNL     1      -0.409  10.406  22.535  0.00  0.00    +0.000 A 
ATOM      7  C   UNL     1       0.476  10.923  21.594  0.00  0.00    +0.000 A 
ATOM      8  O   UNL     1       1.310   9.945  21.088  0.00  0.00    +0.000 OA
ATOM      9  C   UNL     1       1.020   8.723  21.845  0.00  0.00    +0.000 C 
ATOM     10  C   UNL     1      -0.173   8.967  22.769  0.00  0.00    +0.000 C 
ENDROOT
BRANCH   1  16
ATOM     11  C   UNL     1       3.434  14.276  19.877  0.00  0.00    +0.000 A 
ATOM     12  C   UNL     1       3.284  14.104  18.495  0.00  0.00    +0.000 A 
ATOM     13  C   UNL     1       2.205  13.380  18.006  0.00  0.00    +0.000 A 
ATOM     14  C   UNL     1       1.282  12.829  18.896  0.00  0.00    +0.000 A 
ATOM     15  F   UNL     1       0.255  12.155  18.354  0.00  0.00    +0.000 F 
ATOM     16  C   UNL     1       1.404  12.952  20.299  0.00  0.00    +0.000 A 
ATOM     17  C   UNL     1       2.500  13.699  20.763  0.00  0.00    +0.000 A 
BRANCH  11  19
ATOM     18  C   UNL     1       5.247  14.653  21.671  0.00  0.00    +0.000 C 
ATOM     19  C   UNL     1       4.608  15.056  20.367  0.00  0.00    +0.000 C 
ATOM     20  O   UNL     1       5.035  16.003  19.712  0.00  0.00    +0.000 OA
ENDBRANCH  11  19
ENDBRANCH   1  16
BRANCH   9  21
ATOM     21  C   UNL     1       0.776   7.525  20.900  0.00  0.00    +0.000 C 
BRANCH  21  22
ATOM     22  N   UNL     1       1.952   6.669  20.697  0.00  0.00    +0.000 N 
ATOM     23  C   UNL     1       1.859   5.301  20.536  0.00  0.00    +0.000 C 
ATOM     24  O   UNL     1       0.766   4.725  20.505  0.00  0.00    +0.000 OA
ATOM     25  H   UNL     1       2.881   7.052  20.871  0.00  0.00    +0.000 HD
BRANCH  23  26
ATOM     26  C   UNL     1       3.157   4.507  20.375  0.00  0.00    +0.000 C 
ATOM     27  C   UNL     1       2.977   3.000  20.548  0.00  0.00    +0.000 C 
BRANCH  26  28
ATOM     28  N   UNL     1       3.829   4.842  19.123  0.00  0.00    +0.000 N 
ATOM     29  N   UNL     1       4.932   5.629  19.161  0.00  0.00    +0.000 NA
ATOM     30  C   UNL     1       5.268   5.786  17.875  0.00  0.00    +0.000 A 
ATOM     31  C   UNL     1       6.458   6.579  17.486  0.00  0.00    +0.000 C 
ATOM     32  C   UNL     1       4.374   5.115  17.017  0.00  0.00    +0.000 A 
ATOM     33  C   UNL     1       3.455   4.507  17.842  0.00  0.00    +0.000 A 
ATOM     34  C   UNL     1       2.290   3.653  17.493  0.00  0.00    +0.000 C 
ENDBRANCH  26  28
ENDBRANCH  23  26
ENDBRANCH  21  22
ENDBRANCH   9  21
TORSDOF 6
ENDMDL
MODEL 7
REMARK VINA RESULT:      -7.0      2.781      4.665
REMARK  Name = 
REMARK  11 active torsions:
REMARK  status: ('A' for Active; 'I' for Inactive)
REMARK    1  A    between atoms: C_1  and  C_2
REMARK    2  A    between atoms: C_2  and  C_4
REMARK    3  A    between atoms: C_9  and  C_10
REMARK    4  A    between atoms: C_12  and  C_13
REMARK    5  A    between atoms: C_18  and  C_19
REMARK    6  A    between atoms: C_19  and  N_20
REMARK    7  A    between atoms: C_21  and  C_23
REMARK    8  A    between atoms: C_23  and  C_24
REMARK    9  A    between atoms: C_23  and  N_25
REMARK   10  A    between atoms: C_27  and  C_28
REMARK   11  A    between atoms: C_30  and  C_31
REMARK                            x       y       z     vdW  Elec       q    Type
REMARK                         _______ _______ _______ _____ _____    ______ ____
ROOT
ATOM      1  C   UNL     1      -0.077  12.574  19.664  0.00  0.00    +0.000 A 
ATOM      2  C   UNL     1       0.584  11.805  20.656  0.00  0.00    +0.000 A 
ATOM      3  C   UNL     1       0.406  10.416  20.803  0.00  0.00    +0.000 A 
ATOM      4  C   UNL     1       1.137   9.657  21.869  0.00  0.00    +0.000 C 
ATOM      5  C   UNL     1      -0.467   9.750  19.949  0.00  0.00    +0.000 A 
ATOM      6  C   UNL     1      -1.154  10.487  18.999  0.00  0.00    +0.000 A 
ATOM      7  C   UNL     1      -0.990  11.862  18.868  0.00  0.00    +0.000 A 
ATOM      8  O   UNL     1      -1.830  12.387  17.906  0.00  0.00    +0.000 OA
ATOM      9  C   UNL     1      -2.508  11.245  17.284  0.00  0.00    +0.000 C 
ATOM     10  C   UNL     1      -2.142   9.965  18.034  0.00  0.00    +0.000 C 
ENDROOT
BRANCH   1  16
ATOM     11  C   UNL     1       1.754  15.863  18.945  0.00  0.00    +0.000 A 
ATOM     12  C   UNL     1       0.755  16.808  19.216  0.00  0.00    +0.000 A 
ATOM     13  C   UNL     1      -0.488  16.384  19.664  0.00  0.00    +0.000 A 
ATOM     14  C   UNL     1      -0.732  15.020  19.839  0.00  0.00    +0.000 A 
ATOM     15  F   UNL     1      -1.950  14.682  20.290  0.00  0.00    +0.000 F 
ATOM     16  C   UNL     1       0.234  14.028  19.555  0.00  0.00    +0.000 A 
ATOM     17  C   UNL     1       1.486  14.489  19.114  0.00  0.00    +0.000 A 
BRANCH  11  19
ATOM     18  C   UNL     1       3.715  15.663  17.284  0.00  0.00    +0.000 C 
ATOM     19  C   UNL     1       3.077  16.355  18.460  0.00  0.00    +0.000 C 
ATOM     20  O   UNL     1       3.622  17.305  19.017  0.00  0.00    +0.000 OA
ENDBRANCH  11  19
ENDBRANCH   1  16
BRANCH   9  21
ATOM     21  C   UNL     1      -4.037  11.462  17.234  0.00  0.00    +0.000 C 
BRANCH  21  22
ATOM     22  N   UNL     1      -4.558  12.321  18.306  0.00  0.00    +0.000 N 
ATOM     23  C   UNL     1      -5.604  11.941  19.123  0.00  0.00    +0.000 C 
ATOM     24  O   UNL     1      -6.130  10.826  19.026  0.00  0.00    +0.000 OA
ATOM     25  H   UNL     1      -4.282  13.302  18.335  0.00  0.00    +0.000 HD
BRANCH  23  26
ATOM     26  C   UNL     1      -6.091  12.937  20.178  0.00  0.00    +0.000 C 
ATOM     27  C   UNL     1      -7.433  12.559  20.802  0.00  0.00    +0.000 C 
BRANCH  26  28
ATOM     28  N   UNL     1      -5.063  13.182  21.185  0.00  0.00    +0.000 N 
ATOM     29  N   UNL     1      -4.180  12.196  21.476  0.00  0.00    +0.000 NA
ATOM     30  C   UNL     1      -3.423  12.710  22.452  0.00  0.00    +0.000 A 
ATOM     31  C   UNL     1      -2.304  11.937  23.040  0.00  0.00    +0.000 C 
ATOM     32  C   UNL     1      -3.831  14.015  22.796  0.00  0.00    +0.000 A 
ATOM     33  C   UNL     1      -4.888  14.304  21.963  0.00  0.00    +0.000 A 
ATOM     34  C   UNL     1      -5.704  15.542  21.867  0.00  0.00    +0.000 C 
ENDBRANCH  26  28
ENDBRANCH  23  26
ENDBRANCH  21  22
ENDBRANCH   9  21
TORSDOF 6
ENDMDL
MODEL 8
REMARK VINA RESULT:      -7.0      6.265      9.455
REMARK  Name = 
REMARK  11 active torsions:
REMARK  status: ('A' for Active; 'I' for Inactive)
REMARK    1  A    between atoms: C_1  and  C_2
REMARK    2  A    between atoms: C_2  and  C_4
REMARK    3  A    between atoms: C_9  and  C_10
REMARK    4  A    between atoms: C_12  and  C_13
REMARK    5  A    between atoms: C_18  and  C_19
REMARK    6  A    between atoms: C_19  and  N_20
REMARK    7  A    between atoms: C_21  and  C_23
REMARK    8  A    between atoms: C_23  and  C_24
REMARK    9  A    between atoms: C_23  and  N_25
REMARK   10  A    between atoms: C_27  and  C_28
REMARK   11  A    between atoms: C_30  and  C_31
REMARK                            x       y       z     vdW  Elec       q    Type
REMARK                         _______ _______ _______ _____ _____    ______ ____
ROOT
ATOM      1  C   UNL     1       4.864   4.158  19.149  0.00  0.00    +0.000 A 
ATOM      2  C   UNL     1       5.198   2.892  19.694  0.00  0.00    +0.000 A 
ATOM      3  C   UNL     1       4.349   2.174  20.558  0.00  0.00    +0.000 A 
ATOM      4  C   UNL     1       4.756   0.837  21.099  0.00  0.00    +0.000 C 
ATOM      5  C   UNL     1       3.121   2.724  20.914  0.00  0.00    +0.000 A 
ATOM      6  C   UNL     1       2.792   3.977  20.426  0.00  0.00    +0.000 A 
ATOM      7  C   UNL     1       3.641   4.692  19.587  0.00  0.00    +0.000 A 
ATOM      8  O   UNL     1       3.131   5.941  19.290  0.00  0.00    +0.000 OA
ATOM      9  C   UNL     1       1.793   5.994  19.889  0.00  0.00    +0.000 C 
ATOM     10  C   UNL     1       1.557   4.732  20.720  0.00  0.00    +0.000 C 
ENDROOT
BRANCH   1  16
ATOM     11  C   UNL     1       6.629   5.181  15.905  0.00  0.00    +0.000 A 
ATOM     12  C   UNL     1       7.527   6.153  16.366  0.00  0.00    +0.000 A 
ATOM     13  C   UNL     1       7.586   6.446  17.721  0.00  0.00    +0.000 A 
ATOM     14  C   UNL     1       6.749   5.771  18.612  0.00  0.00    +0.000 A 
ATOM     15  F   UNL     1       6.869   6.093  19.910  0.00  0.00    +0.000 F 
ATOM     16  C   UNL     1       5.809   4.802  18.192  0.00  0.00    +0.000 A 
ATOM     17  C   UNL     1       5.781   4.519  16.817  0.00  0.00    +0.000 A 
BRANCH  11  19
ATOM     18  C   UNL     1       5.481   4.028  13.906  0.00  0.00    +0.000 C 
ATOM     19  C   UNL     1       6.591   4.895  14.441  0.00  0.00    +0.000 C 
ATOM     20  O   UNL     1       7.451   5.364  13.699  0.00  0.00    +0.000 OA
ENDBRANCH  11  19
ENDBRANCH   1  16
BRANCH   9  21
ATOM     21  C   UNL     1       1.609   7.276  20.730  0.00  0.00    +0.000 C 
BRANCH  21  22
ATOM     22  N   UNL     1       1.491   8.506  19.936  0.00  0.00    +0.000 N 
ATOM     23  C   UNL     1       0.594   9.509  20.243  0.00  0.00    +0.000 C 
ATOM     24  O   UNL     1      -0.131   9.446  21.243  0.00  0.00    +0.000 OA
ATOM     25  H   UNL     1       1.937   8.550  19.020  0.00  0.00    +0.000 HD
BRANCH  23  26
ATOM     26  C   UNL     1       0.530  10.725  19.317  0.00  0.00    +0.000 C 
ATOM     27  C   UNL     1       1.689  10.800  18.325  0.00  0.00    +0.000 C 
BRANCH  26  28
ATOM     28  N   UNL     1      -0.769  10.818  18.656  0.00  0.00    +0.000 N 
ATOM     29  N   UNL     1      -0.997  10.068  17.550  0.00  0.00    +0.000 NA
ATOM     30  C   UNL     1      -2.231  10.416  17.167  0.00  0.00    +0.000 A 
ATOM     31  C   UNL     1      -2.870   9.790  15.985  0.00  0.00    +0.000 C 
ATOM     32  C   UNL     1      -2.785  11.396  18.015  0.00  0.00    +0.000 A 
ATOM     33  C   UNL     1      -1.827  11.639  18.974  0.00  0.00    +0.000 A 
ATOM     34  C   UNL     1      -1.864  12.567  20.133  0.00  0.00    +0.000 C 
ENDBRANCH  26  28
ENDBRANCH  23  26
ENDBRANCH  21  22
ENDBRANCH   9  21
TORSDOF 6
ENDMDL
MODEL 9
REMARK VINA RESULT:      -7.0      6.713      9.545
REMARK  Name = 
REMARK  11 active torsions:
REMARK  status: ('A' for Active; 'I' for Inactive)
REMARK    1  A    between atoms: C_1  and  C_2
REMARK    2  A    between atoms: C_2  and  C_4
REMARK    3  A    between atoms: C_9  and  C_10
REMARK    4  A    between atoms: C_12  and  C_13
REMARK    5  A    between atoms: C_18  and  C_19
REMARK    6  A    between atoms: C_19  and  N_20
REMARK    7  A    between atoms: C_21  and  C_23
REMARK    8  A    between atoms: C_23  and  C_24
REMARK    9  A    between atoms: C_23  and  N_25
REMARK   10  A    between atoms: C_27  and  C_28
REMARK   11  A    between atoms: C_30  and  C_31
REMARK                            x       y       z     vdW  Elec       q    Type
REMARK                         _______ _______ _______ _____ _____    ______ ____
ROOT
ATOM      1  C   UNL     1       4.827   4.373  17.334  0.00  0.00    +0.000 A 
ATOM      2  C   UNL     1       5.023   3.247  18.172  0.00  0.00    +0.000 A 
ATOM      3  C   UNL     1       4.235   2.985  19.310  0.00  0.00    +0.000 A 
ATOM      4  C   UNL     1       4.488   1.773  20.156  0.00  0.00    +0.000 C 
ATOM      5  C   UNL     1       3.218   3.870  19.650  0.00  0.00    +0.000 A 
ATOM      6  C   UNL     1       3.035   4.998  18.868  0.00  0.00    +0.000 A 
ATOM      7  C   UNL     1       3.826   5.264  17.755  0.00  0.00    +0.000 A 
ATOM      8  O   UNL     1       3.505   6.477  17.179  0.00  0.00    +0.000 OA
ATOM      9  C   UNL     1       2.336   6.983  17.907  0.00  0.00    +0.000 C 
ATOM     10  C   UNL     1       2.036   6.063  19.090  0.00  0.00    +0.000 C 
ENDROOT
BRANCH   1  16
ATOM     11  C   UNL     1       6.143   4.043  13.750  0.00  0.00    +0.000 A 
ATOM     12  C   UNL     1       7.228   4.930  13.763  0.00  0.00    +0.000 A 
ATOM     13  C   UNL     1       7.552   5.601  14.935  0.00  0.00    +0.000 A 
ATOM     14  C   UNL     1       6.793   5.385  16.088  0.00  0.00    +0.000 A 
ATOM     15  F   UNL     1       7.172   6.053  17.189  0.00  0.00    +0.000 F 
ATOM     16  C   UNL     1       5.676   4.520  16.117  0.00  0.00    +0.000 A 
ATOM     17  C   UNL     1       5.379   3.849  14.919  0.00  0.00    +0.000 A 
BRANCH  11  19
ATOM     18  C   UNL     1       4.412   3.421  11.944  0.00  0.00    +0.000 C 
ATOM     19  C   UNL     1       5.821   3.344  12.471  0.00  0.00    +0.000 C 
ATOM     20  O   UNL     1       6.696   2.724  11.872  0.00  0.00    +0.000 OA
ENDBRANCH  11  19
ENDBRANCH   1  16
BRANCH   9  21
ATOM     21  C   UNL     1       2.549   8.445  18.359  0.00  0.00    +0.000 C 
BRANCH  21  22
ATOM     22  N   UNL     1       1.333   9.109  18.846  0.00  0.00    +0.000 N 
ATOM     23  C   UNL     1       1.000   9.165  20.184  0.00  0.00    +0.000 C 
ATOM     24  O   UNL     1       1.740   8.698  21.057  0.00  0.00    +0.000 OA
ATOM     25  H   UNL     1       0.608   9.369  18.178  0.00  0.00    +0.000 HD
BRANCH  23  26
ATOM     26  C   UNL     1      -0.316   9.845  20.569  0.00  0.00    +0.000 C 
ATOM     27  C   UNL     1      -0.270  10.540  21.928  0.00  0.00    +0.000 C 
BRANCH  26  28
ATOM     28  N   UNL     1      -0.779  10.736  19.510  0.00  0.00    +0.000 N 
ATOM     29  N   UNL     1      -1.629  10.253  18.571  0.00  0.00    +0.000 NA
ATOM     30  C   UNL     1      -1.815  11.281  17.735  0.00  0.00    +0.000 A 
ATOM     31  C   UNL     1      -2.716  11.163  16.565  0.00  0.00    +0.000 C 
ATOM     32  C   UNL     1      -1.073  12.414  18.129  0.00  0.00    +0.000 A 
ATOM     33  C   UNL     1      -0.415  12.043  19.280  0.00  0.00    +0.000 A 
ATOM     34  C   UNL     1       0.499  12.835  20.142  0.00  0.00    +0.000 C 
ENDBRANCH  26  28
ENDBRANCH  23  26
ENDBRANCH  21  22
ENDBRANCH   9  21
TORSDOF 6
ENDMDL
