MODEL 1
REMARK VINA RESULT:      -5.8      0.000      0.000
REMARK  Name = 
REMARK  18 active torsions:
REMARK  status: ('A' for Active; 'I' for Inactive)
REMARK    1  A    between atoms: C_1  and  C_2
REMARK    2  A    between atoms: C_2  and  C_3
REMARK    3  A    between atoms: C_3  and  C_4
REMARK    4  A    between atoms: C_4  and  C_5
REMARK    5  A    between atoms: C_5  and  C_6
REMARK    6  A    between atoms: C_6  and  N_21
REMARK    7  A    between atoms: C_7  and  C_8
REMARK    8  A    between atoms: C_8  and  C_9
REMARK    9  A    between atoms: C_9  and  C_10
REMARK   10  A    between atoms: C_10  and  C_11
REMARK   11  A    between atoms: C_11  and  C_12
REMARK   12  A    between atoms: C_12  and  C_13
REMARK   13  A    between atoms: C_13  and  C_14
REMARK   14  A    between atoms: C_14  and  C_15
REMARK   15  A    between atoms: C_15  and  C_16
REMARK   16  A    between atoms: C_16  and  C_17
REMARK   17  A    between atoms: C_17  and  C_18
REMARK   18  A    between atoms: C_18  and  O_20
REMARK                            x       y       z     vdW  Elec       q    Type
REMARK                         _______ _______ _______ _____ _____    ______ ____
ROOT
ATOM      1  C   UNL     1       3.340   2.762  17.740  0.00  0.00    +0.000 C 
ENDROOT
BRANCH   1   2
ATOM      2  C   UNL     1       3.343   2.806  19.280  0.00  0.00    +0.000 C 
BRANCH   2   3
ATOM      3  C   UNL     1       1.981   2.413  19.850  0.00  0.00    +0.000 C 
BRANCH   3   4
ATOM      4  C   UNL     1       1.277   3.529  20.599  0.00  0.00    +0.000 C 
BRANCH   4   5
ATOM      5  C   UNL     1       2.244   4.708  20.706  0.00  0.00    +0.000 C 
BRANCH   5   6
ATOM      6  C   UNL     1       1.574   6.004  20.287  0.00  0.00    +0.000 C 
BRANCH   6   7
ATOM      7  C   UNL     1       2.559   6.912  19.559  0.00  0.00    +0.000 C 
BRANCH   7   8
ATOM      8  C   UNL     1       1.978   7.318  18.212  0.00  0.00    +0.000 C 
BRANCH   8   9
ATOM      9  C   UNL     1       2.566   8.630  17.709  0.00  0.00    +0.000 C 
BRANCH   9  10
ATOM     10  C   UNL     1       1.614   9.776  17.962  0.00  0.00    +0.000 C 
ATOM     11  O   UNL     1       0.431   9.666  18.238  0.00  0.00    +0.000 OA
BRANCH  10  12
ATOM     12  O   UNL     1       2.220  10.980  17.851  0.00  0.00    +0.000 OA
ATOM     13  H   UNL     1       3.104  10.937  17.441  0.00  0.00    +0.000 HD
ENDBRANCH  10  12
ENDBRANCH   9  10
ENDBRANCH   8   9
ENDBRANCH   7   8
ENDBRANCH   6   7
ENDBRANCH   5   6
ENDBRANCH   4   5
ENDBRANCH   3   4
ENDBRANCH   2   3
ENDBRANCH   1   2
BRANCH   1  14
ATOM     14  C   UNL     1       3.918   4.059  17.167  0.00  0.00    +0.000 C 
BRANCH  14  16
ATOM     15  C   UNL     1       5.497   4.986  15.472  0.00  0.00    +0.000 C 
ATOM     16  C   UNL     1       4.955   3.919  16.099  0.00  0.00    +0.000 C 
BRANCH  15  17
ATOM     17  N   UNL     1       6.578   4.710  14.527  0.00  0.00    +0.000 N 
ATOM     18  O   UNL     1       7.618   5.368  14.646  0.00  0.00    +0.000 OA
ATOM     19  O   UNL     1       6.388   3.834  13.670  0.00  0.00    +0.000 OA
ENDBRANCH  15  17
BRANCH  15  20
ATOM     20  C   UNL     1       5.216   6.455  15.690  0.00  0.00    +0.000 C 
BRANCH  20  21
ATOM     21  C   UNL     1       5.498   6.998  17.098  0.00  0.00    +0.000 C 
BRANCH  21  22
ATOM     22  C   UNL     1       6.897   6.685  17.639  0.00  0.00    +0.000 C 
BRANCH  22  24
ATOM     23  C   UNL     1       8.135   5.299  19.364  0.00  0.00    +0.000 C 
ATOM     24  C   UNL     1       6.785   5.812  18.894  0.00  0.00    +0.000 C 
ENDBRANCH  22  24
ENDBRANCH  21  22
ENDBRANCH  20  21
ENDBRANCH  15  20
ENDBRANCH  14  16
ENDBRANCH   1  14
TORSDOF 17
ENDMDL
MODEL 2
REMARK VINA RESULT:      -5.5      3.048      4.707
REMARK  Name = 
REMARK  18 active torsions:
REMARK  status: ('A' for Active; 'I' for Inactive)
REMARK    1  A    between atoms: C_1  and  C_2
REMARK    2  A    between atoms: C_2  and  C_3
REMARK    3  A    between atoms: C_3  and  C_4
REMARK    4  A    between atoms: C_4  and  C_5
REMARK    5  A    between atoms: C_5  and  C_6
REMARK    6  A    between atoms: C_6  and  N_21
REMARK    7  A    between atoms: C_7  and  C_8
REMARK    8  A    between atoms: C_8  and  C_9
REMARK    9  A    between atoms: C_9  and  C_10
REMARK   10  A    between atoms: C_10  and  C_11
REMARK   11  A    between atoms: C_11  and  C_12
REMARK   12  A    between atoms: C_12  and  C_13
REMARK   13  A    between atoms: C_13  and  C_14
REMARK   14  A    between atoms: C_14  and  C_15
REMARK   15  A    between atoms: C_15  and  C_16
REMARK   16  A    between atoms: C_16  and  C_17
REMARK   17  A    between atoms: C_17  and  C_18
REMARK   18  A    between atoms: C_18  and  O_20
REMARK                            x       y       z     vdW  Elec       q    Type
REMARK                         _______ _______ _______ _____ _____    ______ ____
ROOT
ATOM      1  C   UNL     1       2.283   4.886  17.888  0.00  0.00    +0.000 C 
ENDROOT
BRANCH   1   2
ATOM      2  C   UNL     1       2.840   6.229  18.396  0.00  0.00    +0.000 C 
BRANCH   2   3
ATOM      3  C   UNL     1       1.850   7.368  18.154  0.00  0.00    +0.000 C 
BRANCH   3   4
ATOM      4  C   UNL     1       2.496   8.664  17.700  0.00  0.00    +0.000 C 
BRANCH   4   5
ATOM      5  C   UNL     1       1.732   9.823  18.343  0.00  0.00    +0.000 C 
BRANCH   5   6
ATOM      6  C   UNL     1       0.247   9.729  18.045  0.00  0.00    +0.000 C 
BRANCH   6   7
ATOM      7  C   UNL     1      -0.576  10.210  19.236  0.00  0.00    +0.000 C 
BRANCH   7   8
ATOM      8  C   UNL     1       0.304  10.257  20.478  0.00  0.00    +0.000 C 
BRANCH   8   9
ATOM      9  C   UNL     1      -0.259   9.404  21.607  0.00  0.00    +0.000 C 
BRANCH   9  10
ATOM     10  C   UNL     1      -0.290  10.181  22.902  0.00  0.00    +0.000 C 
ATOM     11  O   UNL     1      -0.482  11.382  23.002  0.00  0.00    +0.000 OA
BRANCH  10  12
ATOM     12  O   UNL     1      -0.080   9.392  23.979  0.00  0.00    +0.000 OA
ATOM     13  H   UNL     1       0.117   9.888  24.795  0.00  0.00    +0.000 HD
ENDBRANCH  10  12
ENDBRANCH   9  10
ENDBRANCH   8   9
ENDBRANCH   7   8
ENDBRANCH   6   7
ENDBRANCH   5   6
ENDBRANCH   4   5
ENDBRANCH   3   4
ENDBRANCH   2   3
ENDBRANCH   1   2
BRANCH   1  14
ATOM     14  C   UNL     1       3.415   4.005  17.354  0.00  0.00    +0.000 C 
BRANCH  14  16
ATOM     15  C   UNL     1       5.853   4.532  17.407  0.00  0.00    +0.000 C 
ATOM     16  C   UNL     1       4.737   4.118  18.044  0.00  0.00    +0.000 C 
BRANCH  15  17
ATOM     17  N   UNL     1       7.052   4.701  18.228  0.00  0.00    +0.000 N 
ATOM     18  O   UNL     1       8.132   4.356  17.733  0.00  0.00    +0.000 OA
ATOM     19  O   UNL     1       6.913   5.180  19.363  0.00  0.00    +0.000 OA
ENDBRANCH  15  17
BRANCH  15  20
ATOM     20  C   UNL     1       6.017   4.957  15.966  0.00  0.00    +0.000 C 
BRANCH  20  21
ATOM     21  C   UNL     1       6.187   3.826  14.941  0.00  0.00    +0.000 C 
BRANCH  21  22
ATOM     22  C   UNL     1       5.445   4.042  13.618  0.00  0.00    +0.000 C 
BRANCH  22  24
ATOM     23  C   UNL     1       7.332   4.491  11.985  0.00  0.00    +0.000 C 
ATOM     24  C   UNL     1       6.286   3.497  12.457  0.00  0.00    +0.000 C 
ENDBRANCH  22  24
ENDBRANCH  21  22
ENDBRANCH  20  21
ENDBRANCH  15  20
ENDBRANCH  14  16
ENDBRANCH   1  14
TORSDOF 17
ENDMDL
MODEL 3
REMARK VINA RESULT:      -5.5      2.136      2.999
REMARK  Name = 
REMARK  18 active torsions:
REMARK  status: ('A' for Active; 'I' for Inactive)
REMARK    1  A    between atoms: C_1  and  C_2
REMARK    2  A    between atoms: C_2  and  C_3
REMARK    3  A    between atoms: C_3  and  C_4
REMARK    4  A    between atoms: C_4  and  C_5
REMARK    5  A    between atoms: C_5  and  C_6
REMARK    6  A    between atoms: C_6  and  N_21
REMARK    7  A    between atoms: C_7  and  C_8
REMARK    8  A    between atoms: C_8  and  C_9
REMARK    9  A    between atoms: C_9  and  C_10
REMARK   10  A    between atoms: C_10  and  C_11
REMARK   11  A    between atoms: C_11  and  C_12
REMARK   12  A    between atoms: C_12  and  C_13
REMARK   13  A    between atoms: C_13  and  C_14
REMARK   14  A    between atoms: C_14  and  C_15
REMARK   15  A    between atoms: C_15  and  C_16
REMARK   16  A    between atoms: C_16  and  C_17
REMARK   17  A    between atoms: C_17  and  C_18
REMARK   18  A    between atoms: C_18  and  O_20
REMARK                            x       y       z     vdW  Elec       q    Type
REMARK                         _______ _______ _______ _____ _____    ______ ____
ROOT
ATOM      1  C   UNL     1       4.228   2.551  17.600  0.00  0.00    +0.000 C 
ENDROOT
BRANCH   1   2
ATOM      2  C   UNL     1       3.087   1.824  18.335  0.00  0.00    +0.000 C 
BRANCH   2   3
ATOM      3  C   UNL     1       2.798   2.469  19.690  0.00  0.00    +0.000 C 
BRANCH   3   4
ATOM      4  C   UNL     1       1.324   2.704  19.962  0.00  0.00    +0.000 C 
BRANCH   4   5
ATOM      5  C   UNL     1       1.026   4.182  19.703  0.00  0.00    +0.000 C 
BRANCH   5   6
ATOM      6  C   UNL     1       1.652   5.061  20.769  0.00  0.00    +0.000 C 
BRANCH   6   7
ATOM      7  C   UNL     1       2.544   6.126  20.139  0.00  0.00    +0.000 C 
BRANCH   7   8
ATOM      8  C   UNL     1       1.980   6.525  18.783  0.00  0.00    +0.000 C 
BRANCH   8   9
ATOM      9  C   UNL     1       2.682   7.750  18.211  0.00  0.00    +0.000 C 
BRANCH   9  10
ATOM     10  C   UNL     1       1.828   8.985  18.378  0.00  0.00    +0.000 C 
ATOM     11  O   UNL     1       1.119   9.230  19.340  0.00  0.00    +0.000 OA
BRANCH  10  12
ATOM     12  O   UNL     1       1.930   9.825  17.323  0.00  0.00    +0.000 OA
ATOM     13  H   UNL     1       2.038  10.760  17.577  0.00  0.00    +0.000 HD
ENDBRANCH  10  12
ENDBRANCH   9  10
ENDBRANCH   8   9
ENDBRANCH   7   8
ENDBRANCH   6   7
ENDBRANCH   5   6
ENDBRANCH   4   5
ENDBRANCH   3   4
ENDBRANCH   2   3
ENDBRANCH   1   2
BRANCH   1  14
ATOM     14  C   UNL     1       4.267   4.028  18.003  0.00  0.00    +0.000 C 
BRANCH  14  16
ATOM     15  C   UNL     1       6.274   5.494  18.224  0.00  0.00    +0.000 C 
ATOM     16  C   UNL     1       5.498   4.500  18.709  0.00  0.00    +0.000 C 
BRANCH  15  17
ATOM     17  N   UNL     1       7.385   5.929  19.071  0.00  0.00    +0.000 N 
ATOM     18  O   UNL     1       8.119   6.821  18.629  0.00  0.00    +0.000 OA
ATOM     19  O   UNL     1       7.519   5.383  20.175  0.00  0.00    +0.000 OA
ENDBRANCH  15  17
BRANCH  15  20
ATOM     20  C   UNL     1       6.093   6.307  16.963  0.00  0.00    +0.000 C 
BRANCH  20  21
ATOM     21  C   UNL     1       6.710   5.722  15.685  0.00  0.00    +0.000 C 
BRANCH  21  22
ATOM     22  C   UNL     1       6.571   4.203  15.541  0.00  0.00    +0.000 C 
BRANCH  22  24
ATOM     23  C   UNL     1       6.918   4.409  13.038  0.00  0.00    +0.000 C 
ATOM     24  C   UNL     1       6.035   3.861  14.146  0.00  0.00    +0.000 C 
ENDBRANCH  22  24
ENDBRANCH  21  22
ENDBRANCH  20  21
ENDBRANCH  15  20
ENDBRANCH  14  16
ENDBRANCH   1  14
TORSDOF 17
ENDMDL
MODEL 4
REMARK VINA RESULT:      -5.5      2.683      3.619
REMARK  Name = 
REMARK  18 active torsions:
REMARK  status: ('A' for Active; 'I' for Inactive)
REMARK    1  A    between atoms: C_1  and  C_2
REMARK    2  A    between atoms: C_2  and  C_3
REMARK    3  A    between atoms: C_3  and  C_4
REMARK    4  A    between atoms: C_4  and  C_5
REMARK    5  A    between atoms: C_5  and  C_6
REMARK    6  A    between atoms: C_6  and  N_21
REMARK    7  A    between atoms: C_7  and  C_8
REMARK    8  A    between atoms: C_8  and  C_9
REMARK    9  A    between atoms: C_9  and  C_10
REMARK   10  A    between atoms: C_10  and  C_11
REMARK   11  A    between atoms: C_11  and  C_12
REMARK   12  A    between atoms: C_12  and  C_13
REMARK   13  A    between atoms: C_13  and  C_14
REMARK   14  A    between atoms: C_14  and  C_15
REMARK   15  A    between atoms: C_15  and  C_16
REMARK   16  A    between atoms: C_16  and  C_17
REMARK   17  A    between atoms: C_17  and  C_18
REMARK   18  A    between atoms: C_18  and  O_20
REMARK                            x       y       z     vdW  Elec       q    Type
REMARK                         _______ _______ _______ _____ _____    ______ ____
ROOT
ATOM      1  C   UNL     1       2.021   4.422  17.810  0.00  0.00    +0.000 C 
ENDROOT
BRANCH   1   2
ATOM      2  C   UNL     1       1.236   3.590  18.841  0.00  0.00    +0.000 C 
BRANCH   2   3
ATOM      3  C   UNL     1       1.783   3.798  20.253  0.00  0.00    +0.000 C 
BRANCH   3   4
ATOM      4  C   UNL     1       2.406   5.163  20.482  0.00  0.00    +0.000 C 
BRANCH   4   5
ATOM      5  C   UNL     1       1.277   6.159  20.748  0.00  0.00    +0.000 C 
BRANCH   5   6
ATOM      6  C   UNL     1       1.720   7.579  20.450  0.00  0.00    +0.000 C 
BRANCH   6   7
ATOM      7  C   UNL     1       1.320   8.520  21.582  0.00  0.00    +0.000 C 
BRANCH   7   8
ATOM      8  C   UNL     1      -0.137   8.927  21.416  0.00  0.00    +0.000 C 
BRANCH   8   9
ATOM      9  C   UNL     1      -0.287  10.167  20.544  0.00  0.00    +0.000 C 
BRANCH   9  10
ATOM     10  C   UNL     1       0.388  11.358  21.185  0.00  0.00    +0.000 C 
ATOM     11  O   UNL     1       1.308  11.996  20.700  0.00  0.00    +0.000 OA
BRANCH  10  12
ATOM     12  O   UNL     1      -0.145  11.662  22.389  0.00  0.00    +0.000 OA
ATOM     13  H   UNL     1      -0.020  12.594  22.649  0.00  0.00    +0.000 HD
ENDBRANCH  10  12
ENDBRANCH   9  10
ENDBRANCH   8   9
ENDBRANCH   7   8
ENDBRANCH   6   7
ENDBRANCH   5   6
ENDBRANCH   4   5
ENDBRANCH   3   4
ENDBRANCH   2   3
ENDBRANCH   1   2
BRANCH   1  14
ATOM     14  C   UNL     1       3.167   3.597  17.218  0.00  0.00    +0.000 C 
BRANCH  14  16
ATOM     15  C   UNL     1       5.369   4.695  17.628  0.00  0.00    +0.000 C 
ATOM     16  C   UNL     1       4.493   3.704  17.900  0.00  0.00    +0.000 C 
BRANCH  15  17
ATOM     17  N   UNL     1       6.581   4.741  18.446  0.00  0.00    +0.000 N 
ATOM     18  O   UNL     1       7.640   4.391  17.911  0.00  0.00    +0.000 OA
ATOM     19  O   UNL     1       6.474   5.130  19.618  0.00  0.00    +0.000 OA
ENDBRANCH  15  17
BRANCH  15  20
ATOM     20  C   UNL     1       5.225   5.845  16.658  0.00  0.00    +0.000 C 
BRANCH  20  21
ATOM     21  C   UNL     1       5.422   5.509  15.173  0.00  0.00    +0.000 C 
BRANCH  21  22
ATOM     22  C   UNL     1       6.031   4.130  14.901  0.00  0.00    +0.000 C 
BRANCH  22  24
ATOM     23  C   UNL     1       5.931   3.401  12.475  0.00  0.00    +0.000 C 
ATOM     24  C   UNL     1       6.732   4.132  13.538  0.00  0.00    +0.000 C 
ENDBRANCH  22  24
ENDBRANCH  21  22
ENDBRANCH  20  21
ENDBRANCH  15  20
ENDBRANCH  14  16
ENDBRANCH   1  14
TORSDOF 17
ENDMDL
MODEL 5
REMARK VINA RESULT:      -5.4      2.228      3.023
REMARK  Name = 
REMARK  18 active torsions:
REMARK  status: ('A' for Active; 'I' for Inactive)
REMARK    1  A    between atoms: C_1  and  C_2
REMARK    2  A    between atoms: C_2  and  C_3
REMARK    3  A    between atoms: C_3  and  C_4
REMARK    4  A    between atoms: C_4  and  C_5
REMARK    5  A    between atoms: C_5  and  C_6
REMARK    6  A    between atoms: C_6  and  N_21
REMARK    7  A    between atoms: C_7  and  C_8
REMARK    8  A    between atoms: C_8  and  C_9
REMARK    9  A    between atoms: C_9  and  C_10
REMARK   10  A    between atoms: C_10  and  C_11
REMARK   11  A    between atoms: C_11  and  C_12
REMARK   12  A    between atoms: C_12  and  C_13
REMARK   13  A    between atoms: C_13  and  C_14
REMARK   14  A    between atoms: C_14  and  C_15
REMARK   15  A    between atoms: C_15  and  C_16
REMARK   16  A    between atoms: C_16  and  C_17
REMARK   17  A    between atoms: C_17  and  C_18
REMARK   18  A    between atoms: C_18  and  O_20
REMARK                            x       y       z     vdW  Elec       q    Type
REMARK                         _______ _______ _______ _____ _____    ______ ____
ROOT
ATOM      1  C   UNL     1       2.033   2.230  18.626  0.00  0.00    +0.000 C 
ENDROOT
BRANCH   1   2
ATOM      2  C   UNL     1       1.699   2.198  20.129  0.00  0.00    +0.000 C 
BRANCH   2   3
ATOM      3  C   UNL     1       0.969   3.468  20.564  0.00  0.00    +0.000 C 
BRANCH   3   4
ATOM      4  C   UNL     1       1.356   4.706  19.775  0.00  0.00    +0.000 C 
BRANCH   4   5
ATOM      5  C   UNL     1       2.150   5.627  20.702  0.00  0.00    +0.000 C 
BRANCH   5   6
ATOM      6  C   UNL     1       2.464   6.946  20.022  0.00  0.00    +0.000 C 
BRANCH   6   7
ATOM      7  C   UNL     1       2.303   6.830  18.510  0.00  0.00    +0.000 C 
BRANCH   7   8
ATOM      8  C   UNL     1       2.606   8.173  17.860  0.00  0.00    +0.000 C 
BRANCH   8   9
ATOM      9  C   UNL     1       1.345   8.999  17.644  0.00  0.00    +0.000 C 
BRANCH   9  10
ATOM     10  C   UNL     1       1.370  10.248  18.493  0.00  0.00    +0.000 C 
ATOM     11  O   UNL     1       1.097  10.302  19.681  0.00  0.00    +0.000 OA
BRANCH  10  12
ATOM     12  O   UNL     1       1.739  11.341  17.787  0.00  0.00    +0.000 OA
ATOM     13  H   UNL     1       2.482  11.179  17.177  0.00  0.00    +0.000 HD
ENDBRANCH  10  12
ENDBRANCH   9  10
ENDBRANCH   8   9
ENDBRANCH   7   8
ENDBRANCH   6   7
ENDBRANCH   5   6
ENDBRANCH   4   5
ENDBRANCH   3   4
ENDBRANCH   2   3
ENDBRANCH   1   2
BRANCH   1  14
ATOM     14  C   UNL     1       3.532   2.010  18.406  0.00  0.00    +0.000 C 
BRANCH  14  16
ATOM     15  C   UNL     1       4.766   4.154  18.082  0.00  0.00    +0.000 C 
ATOM     16  C   UNL     1       4.446   3.100  18.865  0.00  0.00    +0.000 C 
BRANCH  15  17
ATOM     17  N   UNL     1       5.582   5.202  18.695  0.00  0.00    +0.000 N 
ATOM     18  O   UNL     1       5.788   6.223  18.029  0.00  0.00    +0.000 OA
ATOM     19  O   UNL     1       6.011   5.004  19.842  0.00  0.00    +0.000 OA
ENDBRANCH  15  17
BRANCH  15  20
ATOM     20  C   UNL     1       4.305   4.463  16.677  0.00  0.00    +0.000 C 
BRANCH  20  21
ATOM     21  C   UNL     1       5.223   3.988  15.541  0.00  0.00    +0.000 C 
BRANCH  21  22
ATOM     22  C   UNL     1       5.752   5.102  14.633  0.00  0.00    +0.000 C 
BRANCH  22  24
ATOM     23  C   UNL     1       7.670   5.034  12.977  0.00  0.00    +0.000 C 
ATOM     24  C   UNL     1       7.263   4.939  14.437  0.00  0.00    +0.000 C 
ENDBRANCH  22  24
ENDBRANCH  21  22
ENDBRANCH  20  21
ENDBRANCH  15  20
ENDBRANCH  14  16
ENDBRANCH   1  14
TORSDOF 17
ENDMDL
MODEL 6
REMARK VINA RESULT:      -5.4      2.855      5.038
REMARK  Name = 
REMARK  18 active torsions:
REMARK  status: ('A' for Active; 'I' for Inactive)
REMARK    1  A    between atoms: C_1  and  C_2
REMARK    2  A    between atoms: C_2  and  C_3
REMARK    3  A    between atoms: C_3  and  C_4
REMARK    4  A    between atoms: C_4  and  C_5
REMARK    5  A    between atoms: C_5  and  C_6
REMARK    6  A    between atoms: C_6  and  N_21
REMARK    7  A    between atoms: C_7  and  C_8
REMARK    8  A    between atoms: C_8  and  C_9
REMARK    9  A    between atoms: C_9  and  C_10
REMARK   10  A    between atoms: C_10  and  C_11
REMARK   11  A    between atoms: C_11  and  C_12
REMARK   12  A    between atoms: C_12  and  C_13
REMARK   13  A    between atoms: C_13  and  C_14
REMARK   14  A    between atoms: C_14  and  C_15
REMARK   15  A    between atoms: C_15  and  C_16
REMARK   16  A    between atoms: C_16  and  C_17
REMARK   17  A    between atoms: C_17  and  C_18
REMARK   18  A    between atoms: C_18  and  O_20
REMARK                            x       y       z     vdW  Elec       q    Type
REMARK                         _______ _______ _______ _____ _____    ______ ____
ROOT
ATOM      1  C   UNL     1       2.576   7.214  18.607  0.00  0.00    +0.000 C 
ENDROOT
BRANCH   1   2
ATOM      2  C   UNL     1       2.712   5.746  19.052  0.00  0.00    +0.000 C 
BRANCH   2   3
ATOM      3  C   UNL     1       2.629   4.794  17.860  0.00  0.00    +0.000 C 
BRANCH   3   4
ATOM      4  C   UNL     1       1.266   4.154  17.672  0.00  0.00    +0.000 C 
BRANCH   4   5
ATOM      5  C   UNL     1       1.116   3.048  18.718  0.00  0.00    +0.000 C 
BRANCH   5   6
ATOM      6  C   UNL     1       0.549   3.596  20.014  0.00  0.00    +0.000 C 
BRANCH   6   7
ATOM      7  C   UNL     1       1.335   3.074  21.213  0.00  0.00    +0.000 C 
BRANCH   7   8
ATOM      8  C   UNL     1       2.349   2.038  20.746  0.00  0.00    +0.000 C 
BRANCH   8   9
ATOM      9  C   UNL     1       3.782   2.500  20.973  0.00  0.00    +0.000 C 
BRANCH   9  10
ATOM     10  C   UNL     1       4.550   2.526  19.672  0.00  0.00    +0.000 C 
ATOM     11  O   UNL     1       5.343   3.390  19.335  0.00  0.00    +0.000 OA
BRANCH  10  12
ATOM     12  O   UNL     1       4.265   1.462  18.887  0.00  0.00    +0.000 OA
ATOM     13  H   UNL     1       4.950   1.275  18.218  0.00  0.00    +0.000 HD
ENDBRANCH  10  12
ENDBRANCH   9  10
ENDBRANCH   8   9
ENDBRANCH   7   8
ENDBRANCH   6   7
ENDBRANCH   5   6
ENDBRANCH   4   5
ENDBRANCH   3   4
ENDBRANCH   2   3
ENDBRANCH   1   2
BRANCH   1  14
ATOM     14  C   UNL     1       3.502   7.502  17.422  0.00  0.00    +0.000 C 
BRANCH  14  16
ATOM     15  C   UNL     1       5.759   6.634  16.812  0.00  0.00    +0.000 C 
ATOM     16  C   UNL     1       4.968   7.329  17.658  0.00  0.00    +0.000 C 
BRANCH  15  17
ATOM     17  N   UNL     1       7.192   6.636  17.105  0.00  0.00    +0.000 N 
ATOM     18  O   UNL     1       7.750   5.538  17.219  0.00  0.00    +0.000 OA
ATOM     19  O   UNL     1       7.758   7.733  17.216  0.00  0.00    +0.000 OA
ENDBRANCH  15  17
BRANCH  15  20
ATOM     20  C   UNL     1       5.385   5.933  15.526  0.00  0.00    +0.000 C 
BRANCH  20  21
ATOM     21  C   UNL     1       5.298   4.401  15.589  0.00  0.00    +0.000 C 
BRANCH  21  22
ATOM     22  C   UNL     1       5.883   3.674  14.373  0.00  0.00    +0.000 C 
BRANCH  22  24
ATOM     23  C   UNL     1       7.102   4.079  12.188  0.00  0.00    +0.000 C 
ATOM     24  C   UNL     1       6.733   4.646  13.548  0.00  0.00    +0.000 C 
ENDBRANCH  22  24
ENDBRANCH  21  22
ENDBRANCH  20  21
ENDBRANCH  15  20
ENDBRANCH  14  16
ENDBRANCH   1  14
TORSDOF 17
ENDMDL
MODEL 7
REMARK VINA RESULT:      -5.4      4.380      6.924
REMARK  Name = 
REMARK  18 active torsions:
REMARK  status: ('A' for Active; 'I' for Inactive)
REMARK    1  A    between atoms: C_1  and  C_2
REMARK    2  A    between atoms: C_2  and  C_3
REMARK    3  A    between atoms: C_3  and  C_4
REMARK    4  A    between atoms: C_4  and  C_5
REMARK    5  A    between atoms: C_5  and  C_6
REMARK    6  A    between atoms: C_6  and  N_21
REMARK    7  A    between atoms: C_7  and  C_8
REMARK    8  A    between atoms: C_8  and  C_9
REMARK    9  A    between atoms: C_9  and  C_10
REMARK   10  A    between atoms: C_10  and  C_11
REMARK   11  A    between atoms: C_11  and  C_12
REMARK   12  A    between atoms: C_12  and  C_13
REMARK   13  A    between atoms: C_13  and  C_14
REMARK   14  A    between atoms: C_14  and  C_15
REMARK   15  A    between atoms: C_15  and  C_16
REMARK   16  A    between atoms: C_16  and  C_17
REMARK   17  A    between atoms: C_17  and  C_18
REMARK   18  A    between atoms: C_18  and  O_20
REMARK                            x       y       z     vdW  Elec       q    Type
REMARK                         _______ _______ _______ _____ _____    ______ ____
ROOT
ATOM      1  C   UNL     1       5.139   6.352  17.448  0.00  0.00    +0.000 C 
ENDROOT
BRANCH   1   2
ATOM      2  C   UNL     1       6.587   6.561  16.968  0.00  0.00    +0.000 C 
BRANCH   2   3
ATOM      3  C   UNL     1       7.583   6.381  18.113  0.00  0.00    +0.000 C 
BRANCH   3   4
ATOM      4  C   UNL     1       8.266   7.664  18.549  0.00  0.00    +0.000 C 
BRANCH   4   5
ATOM      5  C   UNL     1       7.977   8.733  17.494  0.00  0.00    +0.000 C 
BRANCH   5   6
ATOM      6  C   UNL     1       8.069  10.126  18.089  0.00  0.00    +0.000 C 
BRANCH   6   7
ATOM      7  C   UNL     1       9.339  10.278  18.919  0.00  0.00    +0.000 C 
BRANCH   7   8
ATOM      8  C   UNL     1      10.368  11.081  18.136  0.00  0.00    +0.000 C 
BRANCH   8   9
ATOM      9  C   UNL     1      10.698  12.403  18.816  0.00  0.00    +0.000 C 
BRANCH   9  10
ATOM     10  C   UNL     1       9.866  13.526  18.239  0.00  0.00    +0.000 C 
ATOM     11  O   UNL     1       9.094  14.230  18.869  0.00  0.00    +0.000 OA
BRANCH  10  12
ATOM     12  O   UNL     1      10.068  13.683  16.911  0.00  0.00    +0.000 OA
ATOM     13  H   UNL     1       9.279  13.996  16.431  0.00  0.00    +0.000 HD
ENDBRANCH  10  12
ENDBRANCH   9  10
ENDBRANCH   8   9
ENDBRANCH   7   8
ENDBRANCH   6   7
ENDBRANCH   5   6
ENDBRANCH   4   5
ENDBRANCH   3   4
ENDBRANCH   2   3
ENDBRANCH   1   2
BRANCH   1  14
ATOM     14  C   UNL     1       4.499   5.168  16.717  0.00  0.00    +0.000 C 
BRANCH  14  16
ATOM     15  C   UNL     1       4.294   3.702  18.725  0.00  0.00    +0.000 C 
ATOM     16  C   UNL     1       4.553   3.843  17.407  0.00  0.00    +0.000 C 
BRANCH  15  17
ATOM     17  N   UNL     1       4.276   2.336  19.246  0.00  0.00    +0.000 N 
ATOM     18  O   UNL     1       3.658   1.488  18.592  0.00  0.00    +0.000 OA
ATOM     19  O   UNL     1       4.882   2.112  20.304  0.00  0.00    +0.000 OA
ENDBRANCH  15  17
BRANCH  15  20
ATOM     20  C   UNL     1       3.910   4.761  19.732  0.00  0.00    +0.000 C 
BRANCH  20  21
ATOM     21  C   UNL     1       2.436   4.783  20.164  0.00  0.00    +0.000 C 
BRANCH  21  22
ATOM     22  C   UNL     1       2.135   4.025  21.460  0.00  0.00    +0.000 C 
BRANCH  22  24
ATOM     23  C   UNL     1       0.724   2.809  19.740  0.00  0.00    +0.000 C 
ATOM     24  C   UNL     1       1.286   2.786  21.151  0.00  0.00    +0.000 C 
ENDBRANCH  22  24
ENDBRANCH  21  22
ENDBRANCH  20  21
ENDBRANCH  15  20
ENDBRANCH  14  16
ENDBRANCH   1  14
TORSDOF 17
ENDMDL
MODEL 8
REMARK VINA RESULT:      -5.4      2.912      4.472
REMARK  Name = 
REMARK  18 active torsions:
REMARK  status: ('A' for Active; 'I' for Inactive)
REMARK    1  A    between atoms: C_1  and  C_2
REMARK    2  A    between atoms: C_2  and  C_3
REMARK    3  A    between atoms: C_3  and  C_4
REMARK    4  A    between atoms: C_4  and  C_5
REMARK    5  A    between atoms: C_5  and  C_6
REMARK    6  A    between atoms: C_6  and  N_21
REMARK    7  A    between atoms: C_7  and  C_8
REMARK    8  A    between atoms: C_8  and  C_9
REMARK    9  A    between atoms: C_9  and  C_10
REMARK   10  A    between atoms: C_10  and  C_11
REMARK   11  A    between atoms: C_11  and  C_12
REMARK   12  A    between atoms: C_12  and  C_13
REMARK   13  A    between atoms: C_13  and  C_14
REMARK   14  A    between atoms: C_14  and  C_15
REMARK   15  A    between atoms: C_15  and  C_16
REMARK   16  A    between atoms: C_16  and  C_17
REMARK   17  A    between atoms: C_17  and  C_18
REMARK   18  A    between atoms: C_18  and  O_20
REMARK                            x       y       z     vdW  Elec       q    Type
REMARK                         _______ _______ _______ _____ _____    ______ ____
ROOT
ATOM      1  C   UNL     1       3.244   7.212  17.970  0.00  0.00    +0.000 C 
ENDROOT
BRANCH   1   2
ATOM      2  C   UNL     1       3.212   5.675  18.057  0.00  0.00    +0.000 C 
BRANCH   2   3
ATOM      3  C   UNL     1       4.028   5.168  19.246  0.00  0.00    +0.000 C 
BRANCH   3   4
ATOM      4  C   UNL     1       4.802   3.893  18.968  0.00  0.00    +0.000 C 
BRANCH   4   5
ATOM      5  C   UNL     1       4.749   3.025  20.226  0.00  0.00    +0.000 C 
BRANCH   5   6
ATOM      6  C   UNL     1       3.446   2.252  20.301  0.00  0.00    +0.000 C 
BRANCH   6   7
ATOM      7  C   UNL     1       2.623   2.692  21.508  0.00  0.00    +0.000 C 
BRANCH   7   8
ATOM      8  C   UNL     1       1.147   2.718  21.136  0.00  0.00    +0.000 C 
BRANCH   8   9
ATOM      9  C   UNL     1       0.857   3.715  20.023  0.00  0.00    +0.000 C 
BRANCH   9  10
ATOM     10  C   UNL     1       0.776   3.017  18.685  0.00  0.00    +0.000 C 
ATOM     11  O   UNL     1       1.047   3.521  17.607  0.00  0.00    +0.000 OA
BRANCH  10  12
ATOM     12  O   UNL     1       0.363   1.735  18.800  0.00  0.00    +0.000 OA
ATOM     13  H   UNL     1       0.964   1.092  18.379  0.00  0.00    +0.000 HD
ENDBRANCH  10  12
ENDBRANCH   9  10
ENDBRANCH   8   9
ENDBRANCH   7   8
ENDBRANCH   6   7
ENDBRANCH   5   6
ENDBRANCH   4   5
ENDBRANCH   3   4
ENDBRANCH   2   3
ENDBRANCH   1   2
BRANCH   1  14
ATOM     14  C   UNL     1       4.401   7.673  17.079  0.00  0.00    +0.000 C 
BRANCH  14  16
ATOM     15  C   UNL     1       6.357   6.232  16.514  0.00  0.00    +0.000 C 
ATOM     16  C   UNL     1       5.086   6.620  16.270  0.00  0.00    +0.000 C 
BRANCH  15  17
ATOM     17  N   UNL     1       6.866   5.116  15.716  0.00  0.00    +0.000 N 
ATOM     18  O   UNL     1       6.528   3.976  16.056  0.00  0.00    +0.000 OA
ATOM     19  O   UNL     1       7.597   5.381  14.751  0.00  0.00    +0.000 OA
ENDBRANCH  15  17
BRANCH  15  20
ATOM     20  C   UNL     1       7.306   6.720  17.583  0.00  0.00    +0.000 C 
BRANCH  20  21
ATOM     21  C   UNL     1       7.940   8.100  17.349  0.00  0.00    +0.000 C 
BRANCH  21  22
ATOM     22  C   UNL     1       8.457   8.793  18.614  0.00  0.00    +0.000 C 
BRANCH  22  24
ATOM     23  C   UNL     1       9.887  10.803  19.199  0.00  0.00    +0.000 C 
ATOM     24  C   UNL     1       8.787  10.257  18.305  0.00  0.00    +0.000 C 
ENDBRANCH  22  24
ENDBRANCH  21  22
ENDBRANCH  20  21
ENDBRANCH  15  20
ENDBRANCH  14  16
ENDBRANCH   1  14
TORSDOF 17
ENDMDL
MODEL 9
REMARK VINA RESULT:      -5.3      2.033      3.424
REMARK  Name = 
REMARK  18 active torsions:
REMARK  status: ('A' for Active; 'I' for Inactive)
REMARK    1  A    between atoms: C_1  and  C_2
REMARK    2  A    between atoms: C_2  and  C_3
REMARK    3  A    between atoms: C_3  and  C_4
REMARK    4  A    between atoms: C_4  and  C_5
REMARK    5  A    between atoms: C_5  and  C_6
REMARK    6  A    between atoms: C_6  and  N_21
REMARK    7  A    between atoms: C_7  and  C_8
REMARK    8  A    between atoms: C_8  and  C_9
REMARK    9  A    between atoms: C_9  and  C_10
REMARK   10  A    between atoms: C_10  and  C_11
REMARK   11  A    between atoms: C_11  and  C_12
REMARK   12  A    between atoms: C_12  and  C_13
REMARK   13  A    between atoms: C_13  and  C_14
REMARK   14  A    between atoms: C_14  and  C_15
REMARK   15  A    between atoms: C_15  and  C_16
REMARK   16  A    between atoms: C_16  and  C_17
REMARK   17  A    between atoms: C_17  and  C_18
REMARK   18  A    between atoms: C_18  and  O_20
REMARK                            x       y       z     vdW  Elec       q    Type
REMARK                         _______ _______ _______ _____ _____    ______ ____
ROOT
ATOM      1  C   UNL     1       3.650   2.083  18.229  0.00  0.00    +0.000 C 
ENDROOT
BRANCH   1   2
ATOM      2  C   UNL     1       2.332   2.244  19.007  0.00  0.00    +0.000 C 
BRANCH   2   3
ATOM      3  C   UNL     1       1.870   3.701  19.023  0.00  0.00    +0.000 C 
BRANCH   3   4
ATOM      4  C   UNL     1       2.356   4.492  20.223  0.00  0.00    +0.000 C 
BRANCH   4   5
ATOM      5  C   UNL     1       1.856   5.930  20.074  0.00  0.00    +0.000 C 
BRANCH   5   6
ATOM      6  C   UNL     1       2.916   6.814  19.445  0.00  0.00    +0.000 C 
BRANCH   6   7
ATOM      7  C   UNL     1       2.400   7.448  18.158  0.00  0.00    +0.000 C 
BRANCH   7   8
ATOM      8  C   UNL     1       2.197   8.942  18.372  0.00  0.00    +0.000 C 
BRANCH   8   9
ATOM      9  C   UNL     1       0.840   9.412  17.866  0.00  0.00    +0.000 C 
BRANCH   9  10
ATOM     10  C   UNL     1       0.321  10.556  18.705  0.00  0.00    +0.000 C 
ATOM     11  O   UNL     1      -0.130  10.458  19.835  0.00  0.00    +0.000 OA
BRANCH  10  12
ATOM     12  O   UNL     1       0.411  11.743  18.064  0.00  0.00    +0.000 OA
ATOM     13  H   UNL     1      -0.045  12.472  18.525  0.00  0.00    +0.000 HD
ENDBRANCH  10  12
ENDBRANCH   9  10
ENDBRANCH   8   9
ENDBRANCH   7   8
ENDBRANCH   6   7
ENDBRANCH   5   6
ENDBRANCH   4   5
ENDBRANCH   3   4
ENDBRANCH   2   3
ENDBRANCH   1   2
BRANCH   1  14
ATOM     14  C   UNL     1       3.725   3.101  17.087  0.00  0.00    +0.000 C 
BRANCH  14  16
ATOM     15  C   UNL     1       5.652   4.573  16.502  0.00  0.00    +0.000 C 
ATOM     16  C   UNL     1       4.603   4.291  17.305  0.00  0.00    +0.000 C 
BRANCH  15  17
ATOM     17  N   UNL     1       6.359   5.827  16.764  0.00  0.00    +0.000 N 
ATOM     18  O   UNL     1       5.784   6.666  17.469  0.00  0.00    +0.000 OA
ATOM     19  O   UNL     1       7.486   5.970  16.270  0.00  0.00    +0.000 OA
ENDBRANCH  15  17
BRANCH  15  20
ATOM     20  C   UNL     1       6.142   3.822  15.286  0.00  0.00    +0.000 C 
BRANCH  20  21
ATOM     21  C   UNL     1       5.506   4.212  13.945  0.00  0.00    +0.000 C 
BRANCH  21  22
ATOM     22  C   UNL     1       6.265   3.725  12.707  0.00  0.00    +0.000 C 
BRANCH  22  24
ATOM     23  C   UNL     1       4.185   3.272  11.330  0.00  0.00    +0.000 C 
ATOM     24  C   UNL     1       5.430   2.676  11.965  0.00  0.00    +0.000 C 
ENDBRANCH  22  24
ENDBRANCH  21  22
ENDBRANCH  20  21
ENDBRANCH  15  20
ENDBRANCH  14  16
ENDBRANCH   1  14
TORSDOF 17
ENDMDL
