MODEL 1
REMARK VINA RESULT:      -8.0      0.000      0.000
REMARK  Name = 
REMARK  5 active torsions:
REMARK  status: ('A' for Active; 'I' for Inactive)
REMARK    1  A    between atoms: C_4  and  C_5
REMARK    2  A    between atoms: C_7  and  C_8
REMARK    3  A    between atoms: C_8  and  N_9
REMARK    4  A    between atoms: N_12  and  C_13
REMARK    5  A    between atoms: C_13  and  C_14
REMARK                            x       y       z     vdW  Elec       q    Type
REMARK                         _______ _______ _______ _____ _____    ______ ____
ROOT
ATOM      1  N   UNL     1       2.581   4.219  18.385  0.00  0.00    +0.000 NA
ATOM      2  C   UNL     1       1.620   3.940  19.476  0.00  0.00    +0.000 C 
ATOM      3  C   UNL     1       1.843   4.710  20.807  0.00  0.00    +0.000 C 
ATOM      4  N   UNL     1       2.046   6.168  20.686  0.00  0.00    +0.000 NA
ATOM      5  C   UNL     1       2.976   6.445  19.571  0.00  0.00    +0.000 C 
ATOM      6  C   UNL     1       2.689   5.692  18.248  0.00  0.00    +0.000 C 
ENDROOT
BRANCH   1   7
ATOM      7  C   UNL     1       3.918   3.639  18.627  0.00  0.00    +0.000 C 
BRANCH   7  10
ATOM      8  C   UNL     1       5.979   4.444  15.833  0.00  0.00    +0.000 A 
ATOM      9  N   UNL     1       4.815   4.069  16.338  0.00  0.00    +0.000 NA
ATOM     10  C   UNL     1       4.981   4.154  17.708  0.00  0.00    +0.000 A 
ATOM     11  C   UNL     1       6.246   4.634  17.974  0.00  0.00    +0.000 A 
ATOM     12  O   UNL     1       6.891   4.818  16.785  0.00  0.00    +0.000 OA
BRANCH   8  16
ATOM     13  C   UNL     1       7.248   4.266  11.751  0.00  0.00    +0.000 A 
ATOM     14  C   UNL     1       6.225   3.444  12.213  0.00  0.00    +0.000 A 
ATOM     15  C   UNL     1       5.814   3.527  13.548  0.00  0.00    +0.000 A 
ATOM     16  C   UNL     1       6.416   4.433  14.444  0.00  0.00    +0.000 A 
ATOM     17  C   UNL     1       7.438   5.253  13.953  0.00  0.00    +0.000 A 
ATOM     18  C   UNL     1       7.858   5.172  12.621  0.00  0.00    +0.000 A 
ENDBRANCH   8  16
ENDBRANCH   7  10
ENDBRANCH   1   7
BRANCH   4  19
ATOM     19  C   UNL     1       0.756   6.890  20.637  0.00  0.00    +0.000 C 
BRANCH  19  20
ATOM     20  C   UNL     1       0.911   8.375  20.918  0.00  0.00    +0.000 A 
ATOM     21  C   UNL     1       1.103   9.295  19.853  0.00  0.00    +0.000 A 
ATOM     22  C   UNL     1       0.832  10.655  20.028  0.00  0.00    +0.000 A 
ATOM     23  C   UNL     1       0.336  11.035  21.253  0.00  0.00    +0.000 A 
ATOM     24  C   UNL     1       0.258  10.160  22.317  0.00  0.00    +0.000 A 
ATOM     25  C   UNL     1       0.603   8.840  22.203  0.00  0.00    +0.000 A 
ATOM     26  O   UNL     1      -0.383  10.710  23.388  0.00  0.00    +0.000 OA
ATOM     27  C   UNL     1      -1.004  11.823  22.718  0.00  0.00    +0.000 C 
ATOM     28  O   UNL     1      -0.268  12.225  21.542  0.00  0.00    +0.000 OA
ENDBRANCH  19  20
ENDBRANCH   4  19
TORSDOF 5
ENDMDL
MODEL 2
REMARK VINA RESULT:      -7.7      2.751      5.091
REMARK  Name = 
REMARK  5 active torsions:
REMARK  status: ('A' for Active; 'I' for Inactive)
REMARK    1  A    between atoms: C_4  and  C_5
REMARK    2  A    between atoms: C_7  and  C_8
REMARK    3  A    between atoms: C_8  and  N_9
REMARK    4  A    between atoms: N_12  and  C_13
REMARK    5  A    between atoms: C_13  and  C_14
REMARK                            x       y       z     vdW  Elec       q    Type
REMARK                         _______ _______ _______ _____ _____    ______ ____
ROOT
ATOM      1  N   UNL     1       1.514   8.766  21.040  0.00  0.00    +0.000 NA
ATOM      2  C   UNL     1       0.746   9.685  20.172  0.00  0.00    +0.000 C 
ATOM      3  C   UNL     1      -0.676  10.075  20.663  0.00  0.00    +0.000 C 
ATOM      4  N   UNL     1      -0.777  10.519  22.068  0.00  0.00    +0.000 NA
ATOM      5  C   UNL     1       0.022   9.620  22.927  0.00  0.00    +0.000 C 
ATOM      6  C   UNL     1       1.450   9.297  22.424  0.00  0.00    +0.000 C 
ENDROOT
BRANCH   1   7
ATOM      7  C   UNL     1       1.003   7.380  21.012  0.00  0.00    +0.000 C 
BRANCH   7  10
ATOM      8  C   UNL     1       3.226   5.676  18.809  0.00  0.00    +0.000 A 
ATOM      9  N   UNL     1       2.666   6.791  19.247  0.00  0.00    +0.000 NA
ATOM     10  C   UNL     1       1.924   6.404  20.347  0.00  0.00    +0.000 A 
ATOM     11  C   UNL     1       2.112   5.056  20.559  0.00  0.00    +0.000 A 
ATOM     12  O   UNL     1       2.937   4.581  19.582  0.00  0.00    +0.000 OA
BRANCH   8  16
ATOM     13  C   UNL     1       5.629   4.945  15.345  0.00  0.00    +0.000 A 
ATOM     14  C   UNL     1       5.140   3.888  16.107  0.00  0.00    +0.000 A 
ATOM     15  C   UNL     1       4.344   4.147  17.228  0.00  0.00    +0.000 A 
ATOM     16  C   UNL     1       4.020   5.465  17.606  0.00  0.00    +0.000 A 
ATOM     17  C   UNL     1       4.518   6.510  16.821  0.00  0.00    +0.000 A 
ATOM     18  C   UNL     1       5.319   6.260  15.701  0.00  0.00    +0.000 A 
ENDBRANCH   8  16
ENDBRANCH   7  10
ENDBRANCH   1   7
BRANCH   4  19
ATOM     19  C   UNL     1      -0.481  11.962  22.199  0.00  0.00    +0.000 C 
BRANCH  19  20
ATOM     20  C   UNL     1      -1.526  12.696  23.021  0.00  0.00    +0.000 A 
ATOM     21  C   UNL     1      -1.628  14.111  22.962  0.00  0.00    +0.000 A 
ATOM     22  C   UNL     1      -2.803  14.759  23.356  0.00  0.00    +0.000 A 
ATOM     23  C   UNL     1      -3.848  13.958  23.753  0.00  0.00    +0.000 A 
ATOM     24  C   UNL     1      -3.709  12.596  23.916  0.00  0.00    +0.000 A 
ATOM     25  C   UNL     1      -2.541  11.941  23.625  0.00  0.00    +0.000 A 
ATOM     26  O   UNL     1      -4.899  11.986  24.185  0.00  0.00    +0.000 OA
ATOM     27  C   UNL     1      -5.781  13.049  23.778  0.00  0.00    +0.000 C 
ATOM     28  O   UNL     1      -5.151  14.345  23.886  0.00  0.00    +0.000 OA
ENDBRANCH  19  20
ENDBRANCH   4  19
TORSDOF 5
ENDMDL
MODEL 3
REMARK VINA RESULT:      -7.6      5.002      7.484
REMARK  Name = 
REMARK  5 active torsions:
REMARK  status: ('A' for Active; 'I' for Inactive)
REMARK    1  A    between atoms: C_4  and  C_5
REMARK    2  A    between atoms: C_7  and  C_8
REMARK    3  A    between atoms: C_8  and  N_9
REMARK    4  A    between atoms: N_12  and  C_13
REMARK    5  A    between atoms: C_13  and  C_14
REMARK                            x       y       z     vdW  Elec       q    Type
REMARK                         _______ _______ _______ _____ _____    ______ ____
ROOT
ATOM      1  N   UNL     1       5.792   6.792  16.687  0.00  0.00    +0.000 NA
ATOM      2  C   UNL     1       5.285   6.242  15.410  0.00  0.00    +0.000 C 
ATOM      3  C   UNL     1       5.346   4.698  15.250  0.00  0.00    +0.000 C 
ATOM      4  N   UNL     1       4.810   3.908  16.378  0.00  0.00    +0.000 NA
ATOM      5  C   UNL     1       5.289   4.483  17.653  0.00  0.00    +0.000 C 
ATOM      6  C   UNL     1       5.165   6.021  17.788  0.00  0.00    +0.000 C 
ENDROOT
BRANCH   1   7
ATOM      7  C   UNL     1       7.264   6.726  16.803  0.00  0.00    +0.000 C 
BRANCH   7  10
ATOM      8  C   UNL     1       8.657   9.680  18.228  0.00  0.00    +0.000 A 
ATOM      9  N   UNL     1       7.957   9.075  17.283  0.00  0.00    +0.000 NA
ATOM     10  C   UNL     1       7.851   7.764  17.708  0.00  0.00    +0.000 A 
ATOM     11  C   UNL     1       8.459   7.645  18.940  0.00  0.00    +0.000 A 
ATOM     12  O   UNL     1       8.980   8.860  19.277  0.00  0.00    +0.000 OA
BRANCH   8  16
ATOM     13  C   UNL     1      10.221  13.657  18.430  0.00  0.00    +0.000 A 
ATOM     14  C   UNL     1      10.930  12.587  18.966  0.00  0.00    +0.000 A 
ATOM     15  C   UNL     1      10.409  11.292  18.877  0.00  0.00    +0.000 A 
ATOM     16  C   UNL     1       9.172  11.043  18.250  0.00  0.00    +0.000 A 
ATOM     17  C   UNL     1       8.481  12.135  17.714  0.00  0.00    +0.000 A 
ATOM     18  C   UNL     1       8.994  13.434  17.803  0.00  0.00    +0.000 A 
ENDBRANCH   8  16
ENDBRANCH   7  10
ENDBRANCH   1   7
BRANCH   4  19
ATOM     19  C   UNL     1       3.347   3.729  16.265  0.00  0.00    +0.000 C 
BRANCH  19  20
ATOM     20  C   UNL     1       2.737   3.129  17.519  0.00  0.00    +0.000 A 
ATOM     21  C   UNL     1       3.188   1.878  18.015  0.00  0.00    +0.000 A 
ATOM     22  C   UNL     1       2.961   1.513  19.346  0.00  0.00    +0.000 A 
ATOM     23  C   UNL     1       2.326   2.438  20.141  0.00  0.00    +0.000 A 
ATOM     24  C   UNL     1       1.791   3.602  19.630  0.00  0.00    +0.000 A 
ATOM     25  C   UNL     1       1.917   3.946  18.310  0.00  0.00    +0.000 A 
ATOM     26  O   UNL     1       1.328   4.429  20.612  0.00  0.00    +0.000 OA
ATOM     27  C   UNL     1       1.994   3.821  21.735  0.00  0.00    +0.000 C 
ATOM     28  O   UNL     1       2.272   2.423  21.505  0.00  0.00    +0.000 OA
ENDBRANCH  19  20
ENDBRANCH   4  19
TORSDOF 5
ENDMDL
MODEL 4
REMARK VINA RESULT:      -7.6      2.676      4.821
REMARK  Name = 
REMARK  5 active torsions:
REMARK  status: ('A' for Active; 'I' for Inactive)
REMARK    1  A    between atoms: C_4  and  C_5
REMARK    2  A    between atoms: C_7  and  C_8
REMARK    3  A    between atoms: C_8  and  N_9
REMARK    4  A    between atoms: N_12  and  C_13
REMARK    5  A    between atoms: C_13  and  C_14
REMARK                            x       y       z     vdW  Elec       q    Type
REMARK                         _______ _______ _______ _____ _____    ______ ____
ROOT
ATOM      1  N   UNL     1       1.650   8.541  20.913  0.00  0.00    +0.000 NA
ATOM      2  C   UNL     1       1.019   9.438  19.919  0.00  0.00    +0.000 C 
ATOM      3  C   UNL     1      -0.482   9.770  20.141  0.00  0.00    +0.000 C 
ATOM      4  N   UNL     1      -0.856  10.199  21.505  0.00  0.00    +0.000 NA
ATOM      5  C   UNL     1      -0.194   9.323  22.495  0.00  0.00    +0.000 C 
ATOM      6  C   UNL     1       1.313   9.058  22.261  0.00  0.00    +0.000 C 
ENDROOT
BRANCH   1   7
ATOM      7  C   UNL     1       1.206   7.136  20.790  0.00  0.00    +0.000 C 
BRANCH   7  10
ATOM      8  C   UNL     1       3.576   5.529  18.669  0.00  0.00    +0.000 A 
ATOM      9  N   UNL     1       2.892   6.602  19.029  0.00  0.00    +0.000 NA
ATOM     10  C   UNL     1       2.226   6.226  20.180  0.00  0.00    +0.000 A 
ATOM     11  C   UNL     1       2.585   4.934  20.500  0.00  0.00    +0.000 A 
ATOM     12  O   UNL     1       3.442   4.480  19.541  0.00  0.00    +0.000 OA
BRANCH   8  16
ATOM     13  C   UNL     1       5.809   4.992  15.059  0.00  0.00    +0.000 A 
ATOM     14  C   UNL     1       5.388   6.258  15.452  0.00  0.00    +0.000 A 
ATOM     15  C   UNL     1       4.671   6.416  16.643  0.00  0.00    +0.000 A 
ATOM     16  C   UNL     1       4.365   5.312  17.464  0.00  0.00    +0.000 A 
ATOM     17  C   UNL     1       4.805   4.050  17.050  0.00  0.00    +0.000 A 
ATOM     18  C   UNL     1       5.518   3.884  15.858  0.00  0.00    +0.000 A 
ENDBRANCH   8  16
ENDBRANCH   7  10
ENDBRANCH   1   7
BRANCH   4  19
ATOM     19  C   UNL     1      -0.644  11.650  21.690  0.00  0.00    +0.000 C 
BRANCH  19  20
ATOM     20  C   UNL     1      -1.929  12.386  22.029  0.00  0.00    +0.000 A 
ATOM     21  C   UNL     1      -2.888  12.668  21.020  0.00  0.00    +0.000 A 
ATOM     22  C   UNL     1      -4.215  12.950  21.356  0.00  0.00    +0.000 A 
ATOM     23  C   UNL     1      -4.542  12.894  22.691  0.00  0.00    +0.000 A 
ATOM     24  C   UNL     1      -3.588  12.731  23.673  0.00  0.00    +0.000 A 
ATOM     25  C   UNL     1      -2.263  12.543  23.381  0.00  0.00    +0.000 A 
ATOM     26  O   UNL     1      -4.145  12.572  24.909  0.00  0.00    +0.000 OA
ATOM     27  C   UNL     1      -5.491  12.268  24.499  0.00  0.00    +0.000 C 
ATOM     28  O   UNL     1      -5.804  12.835  23.208  0.00  0.00    +0.000 OA
ENDBRANCH  19  20
ENDBRANCH   4  19
TORSDOF 5
ENDMDL
MODEL 5
REMARK VINA RESULT:      -7.5      3.129      5.684
REMARK  Name = 
REMARK  5 active torsions:
REMARK  status: ('A' for Active; 'I' for Inactive)
REMARK    1  A    between atoms: C_4  and  C_5
REMARK    2  A    between atoms: C_7  and  C_8
REMARK    3  A    between atoms: C_8  and  N_9
REMARK    4  A    between atoms: N_12  and  C_13
REMARK    5  A    between atoms: C_13  and  C_14
REMARK                            x       y       z     vdW  Elec       q    Type
REMARK                         _______ _______ _______ _____ _____    ______ ____
ROOT
ATOM      1  N   UNL     1      -0.064   8.828  21.030  0.00  0.00    +0.000 NA
ATOM      2  C   UNL     1      -0.538   8.713  22.427  0.00  0.00    +0.000 C 
ATOM      3  C   UNL     1      -0.254   9.927  23.355  0.00  0.00    +0.000 C 
ATOM      4  N   UNL     1      -0.614  11.254  22.816  0.00  0.00    +0.000 NA
ATOM      5  C   UNL     1      -0.171  11.350  21.409  0.00  0.00    +0.000 C 
ATOM      6  C   UNL     1      -0.518  10.139  20.507  0.00  0.00    +0.000 C 
ENDROOT
BRANCH   1   7
ATOM      7  C   UNL     1       1.405   8.720  20.906  0.00  0.00    +0.000 C 
BRANCH   7  10
ATOM      8  C   UNL     1       2.932   7.203  18.066  0.00  0.00    +0.000 A 
ATOM      9  N   UNL     1       2.499   7.140  19.314  0.00  0.00    +0.000 NA
ATOM     10  C   UNL     1       1.876   8.354  19.533  0.00  0.00    +0.000 A 
ATOM     11  C   UNL     1       1.916   9.091  18.369  0.00  0.00    +0.000 A 
ATOM     12  O   UNL     1       2.591   8.368  17.429  0.00  0.00    +0.000 OA
BRANCH   8  16
ATOM     13  C   UNL     1       5.373   4.324  16.052  0.00  0.00    +0.000 A 
ATOM     14  C   UNL     1       4.357   3.917  16.911  0.00  0.00    +0.000 A 
ATOM     15  C   UNL     1       3.559   4.873  17.549  0.00  0.00    +0.000 A 
ATOM     16  C   UNL     1       3.762   6.252  17.339  0.00  0.00    +0.000 A 
ATOM     17  C   UNL     1       4.786   6.635  16.467  0.00  0.00    +0.000 A 
ATOM     18  C   UNL     1       5.591   5.685  15.829  0.00  0.00    +0.000 A 
ENDBRANCH   8  16
ENDBRANCH   7  10
ENDBRANCH   1   7
BRANCH   4  19
ATOM     19  C   UNL     1      -2.037  11.568  23.062  0.00  0.00    +0.000 C 
BRANCH  19  20
ATOM     20  C   UNL     1      -2.260  13.034  23.391  0.00  0.00    +0.000 A 
ATOM     21  C   UNL     1      -3.550  13.506  23.749  0.00  0.00    +0.000 A 
ATOM     22  C   UNL     1      -3.702  14.710  24.444  0.00  0.00    +0.000 A 
ATOM     23  C   UNL     1      -2.549  15.373  24.793  0.00  0.00    +0.000 A 
ATOM     24  C   UNL     1      -1.307  14.971  24.347  0.00  0.00    +0.000 A 
ATOM     25  C   UNL     1      -1.134  13.845  23.587  0.00  0.00    +0.000 A 
ATOM     26  O   UNL     1      -0.298  15.690  24.918  0.00  0.00    +0.000 OA
ATOM     27  C   UNL     1      -1.038  16.266  26.011  0.00  0.00    +0.000 C 
ATOM     28  O   UNL     1      -2.446  16.380  25.709  0.00  0.00    +0.000 OA
ENDBRANCH  19  20
ENDBRANCH   4  19
TORSDOF 5
ENDMDL
MODEL 6
REMARK VINA RESULT:      -7.4      4.026      6.259
REMARK  Name = 
REMARK  5 active torsions:
REMARK  status: ('A' for Active; 'I' for Inactive)
REMARK    1  A    between atoms: C_4  and  C_5
REMARK    2  A    between atoms: C_7  and  C_8
REMARK    3  A    between atoms: C_8  and  N_9
REMARK    4  A    between atoms: N_12  and  C_13
REMARK    5  A    between atoms: C_13  and  C_14
REMARK                            x       y       z     vdW  Elec       q    Type
REMARK                         _______ _______ _______ _____ _____    ______ ____
ROOT
ATOM      1  N   UNL     1      -0.133   8.777  21.167  0.00  0.00    +0.000 NA
ATOM      2  C   UNL     1      -0.593   8.806  22.573  0.00  0.00    +0.000 C 
ATOM      3  C   UNL     1      -0.288  10.101  23.374  0.00  0.00    +0.000 C 
ATOM      4  N   UNL     1      -0.643  11.373  22.711  0.00  0.00    +0.000 NA
ATOM      5  C   UNL     1      -0.215  11.325  21.296  0.00  0.00    +0.000 C 
ATOM      6  C   UNL     1      -0.582  10.036  20.522  0.00  0.00    +0.000 C 
ENDROOT
BRANCH   1   7
ATOM      7  C   UNL     1       1.333   8.645  21.039  0.00  0.00    +0.000 C 
BRANCH   7  10
ATOM      8  C   UNL     1       2.339   5.778  19.176  0.00  0.00    +0.000 A 
ATOM      9  N   UNL     1       1.747   6.321  20.227  0.00  0.00    +0.000 NA
ATOM     10  C   UNL     1       1.768   7.681  19.979  0.00  0.00    +0.000 A 
ATOM     11  C   UNL     1       2.337   7.899  18.743  0.00  0.00    +0.000 A 
ATOM     12  O   UNL     1       2.709   6.693  18.225  0.00  0.00    +0.000 OA
BRANCH   8  16
ATOM     13  C   UNL     1       3.545   1.724  18.531  0.00  0.00    +0.000 A 
ATOM     14  C   UNL     1       4.203   2.521  19.463  0.00  0.00    +0.000 A 
ATOM     15  C   UNL     1       3.784   3.840  19.670  0.00  0.00    +0.000 A 
ATOM     16  C   UNL     1       2.701   4.385  18.952  0.00  0.00    +0.000 A 
ATOM     17  C   UNL     1       2.053   3.561  18.026  0.00  0.00    +0.000 A 
ATOM     18  C   UNL     1       2.468   2.243  17.809  0.00  0.00    +0.000 A 
ENDBRANCH   8  16
ENDBRANCH   7  10
ENDBRANCH   1   7
BRANCH   4  19
ATOM     19  C   UNL     1      -2.061  11.723  22.939  0.00  0.00    +0.000 C 
BRANCH  19  20
ATOM     20  C   UNL     1      -2.239  13.169  23.370  0.00  0.00    +0.000 A 
ATOM     21  C   UNL     1      -3.515  13.654  23.761  0.00  0.00    +0.000 A 
ATOM     22  C   UNL     1      -3.632  14.810  24.538  0.00  0.00    +0.000 A 
ATOM     23  C   UNL     1      -2.459  15.412  24.931  0.00  0.00    +0.000 A 
ATOM     24  C   UNL     1      -1.229  15.005  24.457  0.00  0.00    +0.000 A 
ATOM     25  C   UNL     1      -1.089  13.930  23.620  0.00  0.00    +0.000 A 
ATOM     26  O   UNL     1      -0.200  15.651  25.077  0.00  0.00    +0.000 OA
ATOM     27  C   UNL     1      -0.924  16.171  26.208  0.00  0.00    +0.000 C 
ATOM     28  O   UNL     1      -2.328  16.349  25.916  0.00  0.00    +0.000 OA
ENDBRANCH  19  20
ENDBRANCH   4  19
TORSDOF 5
ENDMDL
MODEL 7
REMARK VINA RESULT:      -7.3      5.517      7.832
REMARK  Name = 
REMARK  5 active torsions:
REMARK  status: ('A' for Active; 'I' for Inactive)
REMARK    1  A    between atoms: C_4  and  C_5
REMARK    2  A    between atoms: C_7  and  C_8
REMARK    3  A    between atoms: C_8  and  N_9
REMARK    4  A    between atoms: N_12  and  C_13
REMARK    5  A    between atoms: C_13  and  C_14
REMARK                            x       y       z     vdW  Elec       q    Type
REMARK                         _______ _______ _______ _____ _____    ______ ____
ROOT
ATOM      1  N   UNL     1       7.314   6.554  17.493  0.00  0.00    +0.000 NA
ATOM      2  C   UNL     1       6.399   5.920  18.467  0.00  0.00    +0.000 C 
ATOM      3  C   UNL     1       4.945   5.662  17.984  0.00  0.00    +0.000 C 
ATOM      4  N   UNL     1       4.806   5.001  16.670  0.00  0.00    +0.000 NA
ATOM      5  C   UNL     1       5.749   5.612  15.710  0.00  0.00    +0.000 C 
ATOM      6  C   UNL     1       7.199   5.806  16.217  0.00  0.00    +0.000 C 
ENDROOT
BRANCH   1   7
ATOM      7  C   UNL     1       7.018   7.983  17.264  0.00  0.00    +0.000 C 
BRANCH   7  10
ATOM      8  C   UNL     1       9.168  10.669  18.195  0.00  0.00    +0.000 A 
ATOM      9  N   UNL     1       8.192  10.178  17.450  0.00  0.00    +0.000 NA
ATOM     10  C   UNL     1       7.952   8.919  17.967  0.00  0.00    +0.000 A 
ATOM     11  C   UNL     1       8.775   8.720  19.055  0.00  0.00    +0.000 A 
ATOM     12  O   UNL     1       9.557   9.828  19.206  0.00  0.00    +0.000 OA
BRANCH   8  16
ATOM     13  C   UNL     1      11.210  14.387  17.643  0.00  0.00    +0.000 A 
ATOM     14  C   UNL     1       9.860  14.361  17.978  0.00  0.00    +0.000 A 
ATOM     15  C   UNL     1       9.213  13.136  18.169  0.00  0.00    +0.000 A 
ATOM     16  C   UNL     1       9.903  11.915  18.030  0.00  0.00    +0.000 A 
ATOM     17  C   UNL     1      11.261  11.968  17.698  0.00  0.00    +0.000 A 
ATOM     18  C   UNL     1      11.914  13.190  17.501  0.00  0.00    +0.000 A 
ENDBRANCH   8  16
ENDBRANCH   7  10
ENDBRANCH   1   7
BRANCH   4  19
ATOM     19  C   UNL     1       4.884   3.530  16.797  0.00  0.00    +0.000 C 
BRANCH  19  20
ATOM     20  C   UNL     1       4.014   2.997  17.922  0.00  0.00    +0.000 A 
ATOM     21  C   UNL     1       4.601   2.516  19.123  0.00  0.00    +0.000 A 
ATOM     22  C   UNL     1       3.847   2.421  20.297  0.00  0.00    +0.000 A 
ATOM     23  C   UNL     1       2.544   2.855  20.232  0.00  0.00    +0.000 A 
ATOM     24  C   UNL     1       1.947   3.214  19.042  0.00  0.00    +0.000 A 
ATOM     25  C   UNL     1       2.634   3.231  17.857  0.00  0.00    +0.000 A 
ATOM     26  O   UNL     1       0.700   3.735  19.229  0.00  0.00    +0.000 OA
ATOM     27  C   UNL     1       0.790   4.004  20.641  0.00  0.00    +0.000 C 
ATOM     28  O   UNL     1       1.736   3.132  21.297  0.00  0.00    +0.000 OA
ENDBRANCH  19  20
ENDBRANCH   4  19
TORSDOF 5
ENDMDL
MODEL 8
REMARK VINA RESULT:      -7.3      2.797     11.248
REMARK  Name = 
REMARK  5 active torsions:
REMARK  status: ('A' for Active; 'I' for Inactive)
REMARK    1  A    between atoms: C_4  and  C_5
REMARK    2  A    between atoms: C_7  and  C_8
REMARK    3  A    between atoms: C_8  and  N_9
REMARK    4  A    between atoms: N_12  and  C_13
REMARK    5  A    between atoms: C_13  and  C_14
REMARK                            x       y       z     vdW  Elec       q    Type
REMARK                         _______ _______ _______ _____ _____    ______ ____
ROOT
ATOM      1  N   UNL     1       0.012  10.130  19.813  0.00  0.00    +0.000 NA
ATOM      2  C   UNL     1       0.373   9.962  18.388  0.00  0.00    +0.000 C 
ATOM      3  C   UNL     1       1.815   9.464  18.093  0.00  0.00    +0.000 C 
ATOM      4  N   UNL     1       2.262   8.284  18.861  0.00  0.00    +0.000 NA
ATOM      5  C   UNL     1       1.867   8.439  20.277  0.00  0.00    +0.000 C 
ATOM      6  C   UNL     1       0.407   8.890  20.526  0.00  0.00    +0.000 C 
ENDROOT
BRANCH   1   7
ATOM      7  C   UNL     1       0.663  11.298  20.441  0.00  0.00    +0.000 C 
BRANCH   7  10
ATOM      8  C   UNL     1      -2.068  12.579  22.338  0.00  0.00    +0.000 A 
ATOM      9  N   UNL     1      -1.490  11.597  21.667  0.00  0.00    +0.000 NA
ATOM     10  C   UNL     1      -0.231  12.076  21.356  0.00  0.00    +0.000 A 
ATOM     11  C   UNL     1      -0.083  13.330  21.908  0.00  0.00    +0.000 A 
ATOM     12  O   UNL     1      -1.250  13.662  22.532  0.00  0.00    +0.000 OA
BRANCH   8  16
ATOM     13  C   UNL     1      -6.080  12.746  23.816  0.00  0.00    +0.000 A 
ATOM     14  C   UNL     1      -5.019  12.461  24.670  0.00  0.00    +0.000 A 
ATOM     15  C   UNL     1      -3.713  12.425  24.171  0.00  0.00    +0.000 A 
ATOM     16  C   UNL     1      -3.443  12.676  22.811  0.00  0.00    +0.000 A 
ATOM     17  C   UNL     1      -4.525  12.966  21.974  0.00  0.00    +0.000 A 
ATOM     18  C   UNL     1      -5.835  12.999  22.465  0.00  0.00    +0.000 A 
ENDBRANCH   8  16
ENDBRANCH   7  10
ENDBRANCH   1   7
BRANCH   4  19
ATOM     19  C   UNL     1       1.838   7.025  18.212  0.00  0.00    +0.000 C 
BRANCH  19  20
ATOM     20  C   UNL     1       3.008   6.107  17.906  0.00  0.00    +0.000 A 
ATOM     21  C   UNL     1       2.839   4.697  17.907  0.00  0.00    +0.000 A 
ATOM     22  C   UNL     1       3.746   3.868  17.240  0.00  0.00    +0.000 A 
ATOM     23  C   UNL     1       4.766   4.490  16.558  0.00  0.00    +0.000 A 
ATOM     24  C   UNL     1       4.991   5.848  16.651  0.00  0.00    +0.000 A 
ATOM     25  C   UNL     1       4.172   6.676  17.373  0.00  0.00    +0.000 A 
ATOM     26  O   UNL     1       5.965   6.267  15.794  0.00  0.00    +0.000 OA
ATOM     27  C   UNL     1       6.003   5.114  14.932  0.00  0.00    +0.000 C 
ATOM     28  O   UNL     1       5.567   3.917  15.613  0.00  0.00    +0.000 OA
ENDBRANCH  19  20
ENDBRANCH   4  19
TORSDOF 5
ENDMDL
MODEL 9
REMARK VINA RESULT:      -7.3      1.902      9.538
REMARK  Name = 
REMARK  5 active torsions:
REMARK  status: ('A' for Active; 'I' for Inactive)
REMARK    1  A    between atoms: C_4  and  C_5
REMARK    2  A    between atoms: C_7  and  C_8
REMARK    3  A    between atoms: C_8  and  N_9
REMARK    4  A    between atoms: N_12  and  C_13
REMARK    5  A    between atoms: C_13  and  C_14
REMARK                            x       y       z     vdW  Elec       q    Type
REMARK                         _______ _______ _______ _____ _____    ______ ____
ROOT
ATOM      1  N   UNL     1       1.994   6.165  20.715  0.00  0.00    +0.000 NA
ATOM      2  C   UNL     1       1.687   4.717  20.742  0.00  0.00    +0.000 C 
ATOM      3  C   UNL     1       1.445   4.036  19.366  0.00  0.00    +0.000 C 
ATOM      4  N   UNL     1       2.452   4.310  18.321  0.00  0.00    +0.000 NA
ATOM      5  C   UNL     1       2.784   5.751  18.323  0.00  0.00    +0.000 C 
ATOM      6  C   UNL     1       3.065   6.378  19.711  0.00  0.00    +0.000 C 
ENDROOT
BRANCH   1   7
ATOM      7  C   UNL     1       0.822   7.000  20.382  0.00  0.00    +0.000 C 
BRANCH   7  10
ATOM      8  C   UNL     1      -0.104  10.140  21.790  0.00  0.00    +0.000 A 
ATOM      9  N   UNL     1      -0.388   9.076  21.057  0.00  0.00    +0.000 NA
ATOM     10  C   UNL     1       0.704   8.243  21.209  0.00  0.00    +0.000 A 
ATOM     11  C   UNL     1       1.594   8.829  22.083  0.00  0.00    +0.000 A 
ATOM     12  O   UNL     1       1.090  10.041  22.456  0.00  0.00    +0.000 OA
BRANCH   8  16
ATOM     13  C   UNL     1      -2.377  13.739  22.223  0.00  0.00    +0.000 A 
ATOM     14  C   UNL     1      -2.220  12.865  23.294  0.00  0.00    +0.000 A 
ATOM     15  C   UNL     1      -1.461  11.700  23.137  0.00  0.00    +0.000 A 
ATOM     16  C   UNL     1      -0.844  11.389  21.909  0.00  0.00    +0.000 A 
ATOM     17  C   UNL     1      -1.011  12.287  20.849  0.00  0.00    +0.000 A 
ATOM     18  C   UNL     1      -1.773  13.452  20.997  0.00  0.00    +0.000 A 
ENDBRANCH   8  16
ENDBRANCH   7  10
ENDBRANCH   1   7
BRANCH   4  19
ATOM     19  C   UNL     1       3.603   3.388  18.426  0.00  0.00    +0.000 C 
BRANCH  19  20
ATOM     20  C   UNL     1       4.847   3.932  17.746  0.00  0.00    +0.000 A 
ATOM     21  C   UNL     1       4.856   4.178  16.348  0.00  0.00    +0.000 A 
ATOM     22  C   UNL     1       5.798   5.043  15.782  0.00  0.00    +0.000 A 
ATOM     23  C   UNL     1       6.668   5.664  16.648  0.00  0.00    +0.000 A 
ATOM     24  C   UNL     1       6.729   5.337  17.987  0.00  0.00    +0.000 A 
ATOM     25  C   UNL     1       5.880   4.425  18.555  0.00  0.00    +0.000 A 
ATOM     26  O   UNL     1       7.564   6.164  18.680  0.00  0.00    +0.000 OA
ATOM     27  C   UNL     1       7.670   7.223  17.710  0.00  0.00    +0.000 C 
ATOM     28  O   UNL     1       7.448   6.747  16.364  0.00  0.00    +0.000 OA
ENDBRANCH  19  20
ENDBRANCH   4  19
TORSDOF 5
ENDMDL
