MODEL 1
REMARK VINA RESULT:      -6.9      0.000      0.000
REMARK  Name = 
REMARK  9 active torsions:
REMARK  status: ('A' for Active; 'I' for Inactive)
REMARK    1  A    between atoms: C_1  and  C_2
REMARK    2  A    between atoms: C_2  and  C_3
REMARK    3  A    between atoms: C_7  and  C_8
REMARK    4  A    between atoms: C_9  and  N_10
REMARK    5  A    between atoms: C_11  and  C_13
REMARK    6  A    between atoms: C_13  and  O_14
REMARK    7  A    between atoms: O_14  and  C_15
REMARK    8  A    between atoms: C_15  and  C_17
REMARK    9  A    between atoms: C_17  and  C_18
REMARK                            x       y       z     vdW  Elec       q    Type
REMARK                         _______ _______ _______ _____ _____    ______ ____
ROOT
ATOM      1  N   UNL     1       5.374   3.887  18.428  0.00  0.00    +0.000 N 
ATOM      2  C   UNL     1       6.442   4.651  18.881  0.00  0.00    +0.000 C 
ATOM      3  O   UNL     1       6.417   5.437  19.824  0.00  0.00    +0.000 OA
ATOM      4  H   UNL     1       5.391   3.772  17.420  0.00  0.00    +0.000 HD
ENDROOT
BRANCH   1  11
ATOM      5  C   UNL     1       3.143   4.955  18.727  0.00  0.00    +0.000 A 
ATOM      6  C   UNL     1       1.890   4.916  19.373  0.00  0.00    +0.000 A 
ATOM      7  C   UNL     1       1.570   3.912  20.284  0.00  0.00    +0.000 A 
ATOM      8  C   UNL     1       2.512   2.941  20.596  0.00  0.00    +0.000 A 
ATOM      9  C   UNL     1       3.776   2.947  19.983  0.00  0.00    +0.000 A 
ATOM     10  C   UNL     1       4.750   1.861  20.354  0.00  0.00    +0.000 C 
ATOM     11  C   UNL     1       4.083   3.936  19.017  0.00  0.00    +0.000 A 
BRANCH   5  13
ATOM     12  C   UNL     1       2.626   7.423  18.242  0.00  0.00    +0.000 C 
ATOM     13  C   UNL     1       3.469   6.193  17.911  0.00  0.00    +0.000 C 
ENDBRANCH   5  13
ENDBRANCH   1  11
BRANCH   2  14
ATOM     14  C   UNL     1       7.717   4.433  18.050  0.00  0.00    +0.000 C 
BRANCH  14  15
ATOM     15  O   UNL     1       7.571   4.566  16.636  0.00  0.00    +0.000 OA
BRANCH  15  16
ATOM     16  C   UNL     1       7.100   5.776  16.224  0.00  0.00    +0.000 C 
ATOM     17  O   UNL     1       7.569   6.851  16.577  0.00  0.00    +0.000 OA
BRANCH  16  18
ATOM     18  C   UNL     1       5.881   5.610  15.336  0.00  0.00    +0.000 C 
BRANCH  18  19
ATOM     19  C   UNL     1       6.147   4.798  14.105  0.00  0.00    +0.000 A 
ATOM     20  C   UNL     1       5.261   3.801  13.576  0.00  0.00    +0.000 A 
ATOM     21  C   UNL     1       5.736   3.227  12.419  0.00  0.00    +0.000 A 
ATOM     22  S   UNL     1       7.240   3.883  11.947  0.00  0.00    +0.000 S 
ATOM     23  C   UNL     1       7.260   4.938  13.294  0.00  0.00    +0.000 A 
ENDBRANCH  18  19
ENDBRANCH  16  18
ENDBRANCH  15  16
ENDBRANCH  14  15
ENDBRANCH   2  14
TORSDOF 7
ENDMDL
MODEL 2
REMARK VINA RESULT:      -6.8      4.951      6.498
REMARK  Name = 
REMARK  9 active torsions:
REMARK  status: ('A' for Active; 'I' for Inactive)
REMARK    1  A    between atoms: C_1  and  C_2
REMARK    2  A    between atoms: C_2  and  C_3
REMARK    3  A    between atoms: C_7  and  C_8
REMARK    4  A    between atoms: C_9  and  N_10
REMARK    5  A    between atoms: C_11  and  C_13
REMARK    6  A    between atoms: C_13  and  O_14
REMARK    7  A    between atoms: O_14  and  C_15
REMARK    8  A    between atoms: C_15  and  C_17
REMARK    9  A    between atoms: C_17  and  C_18
REMARK                            x       y       z     vdW  Elec       q    Type
REMARK                         _______ _______ _______ _____ _____    ______ ____
ROOT
ATOM      1  N   UNL     1       5.573   6.702  17.010  0.00  0.00    +0.000 N 
ATOM      2  C   UNL     1       6.725   6.742  17.785  0.00  0.00    +0.000 C 
ATOM      3  O   UNL     1       7.007   5.973  18.699  0.00  0.00    +0.000 OA
ATOM      4  H   UNL     1       5.258   7.631  16.750  0.00  0.00    +0.000 HD
ENDROOT
BRANCH   1  11
ATOM      5  C   UNL     1       4.668   4.392  16.779  0.00  0.00    +0.000 A 
ATOM      6  C   UNL     1       3.584   3.518  17.007  0.00  0.00    +0.000 A 
ATOM      7  C   UNL     1       2.413   3.953  17.622  0.00  0.00    +0.000 A 
ATOM      8  C   UNL     1       2.285   5.285  17.992  0.00  0.00    +0.000 A 
ATOM      9  C   UNL     1       3.335   6.193  17.776  0.00  0.00    +0.000 A 
ATOM     10  C   UNL     1       3.140   7.621  18.209  0.00  0.00    +0.000 C 
ATOM     11  C   UNL     1       4.547   5.739  17.199  0.00  0.00    +0.000 A 
BRANCH   5  13
ATOM     12  C   UNL     1       5.706   4.203  14.438  0.00  0.00    +0.000 C 
ATOM     13  C   UNL     1       5.813   3.877  15.926  0.00  0.00    +0.000 C 
ENDBRANCH   5  13
ENDBRANCH   1  11
BRANCH   2  14
ATOM     14  C   UNL     1       7.657   7.901  17.394  0.00  0.00    +0.000 C 
BRANCH  14  15
ATOM     15  O   UNL     1       8.443   8.455  18.450  0.00  0.00    +0.000 OA
BRANCH  15  16
ATOM     16  C   UNL     1       8.572   9.811  18.413  0.00  0.00    +0.000 C 
ATOM     17  O   UNL     1       8.032  10.528  17.579  0.00  0.00    +0.000 OA
BRANCH  16  18
ATOM     18  C   UNL     1       9.523  10.295  19.491  0.00  0.00    +0.000 C 
BRANCH  18  19
ATOM     19  C   UNL     1      10.286  11.525  19.105  0.00  0.00    +0.000 A 
ATOM     20  C   UNL     1      11.423  11.539  18.231  0.00  0.00    +0.000 A 
ATOM     21  C   UNL     1      11.917  12.807  18.020  0.00  0.00    +0.000 A 
ATOM     22  S   UNL     1      11.017  13.993  18.857  0.00  0.00    +0.000 S 
ATOM     23  C   UNL     1       9.965  12.810  19.505  0.00  0.00    +0.000 A 
ENDBRANCH  18  19
ENDBRANCH  16  18
ENDBRANCH  15  16
ENDBRANCH  14  15
ENDBRANCH   2  14
TORSDOF 7
ENDMDL
MODEL 3
REMARK VINA RESULT:      -6.7      1.504      1.797
REMARK  Name = 
REMARK  9 active torsions:
REMARK  status: ('A' for Active; 'I' for Inactive)
REMARK    1  A    between atoms: C_1  and  C_2
REMARK    2  A    between atoms: C_2  and  C_3
REMARK    3  A    between atoms: C_7  and  C_8
REMARK    4  A    between atoms: C_9  and  N_10
REMARK    5  A    between atoms: C_11  and  C_13
REMARK    6  A    between atoms: C_13  and  O_14
REMARK    7  A    between atoms: O_14  and  C_15
REMARK    8  A    between atoms: C_15  and  C_17
REMARK    9  A    between atoms: C_17  and  C_18
REMARK                            x       y       z     vdW  Elec       q    Type
REMARK                         _______ _______ _______ _____ _____    ______ ____
ROOT
ATOM      1  N   UNL     1       4.306   4.264  17.800  0.00  0.00    +0.000 N 
ATOM      2  C   UNL     1       5.600   4.304  18.304  0.00  0.00    +0.000 C 
ATOM      3  O   UNL     1       5.922   4.141  19.477  0.00  0.00    +0.000 OA
ATOM      4  H   UNL     1       4.173   4.924  17.041  0.00  0.00    +0.000 HD
ENDROOT
BRANCH   1  11
ATOM      5  C   UNL     1       2.463   5.071  19.269  0.00  0.00    +0.000 A 
ATOM      6  C   UNL     1       1.347   4.731  20.062  0.00  0.00    +0.000 A 
ATOM      7  C   UNL     1       0.937   3.409  20.215  0.00  0.00    +0.000 A 
ATOM      8  C   UNL     1       1.657   2.391  19.605  0.00  0.00    +0.000 A 
ATOM      9  C   UNL     1       2.780   2.683  18.814  0.00  0.00    +0.000 A 
ATOM     10  C   UNL     1       3.512   1.537  18.169  0.00  0.00    +0.000 C 
ATOM     11  C   UNL     1       3.166   4.031  18.614  0.00  0.00    +0.000 A 
BRANCH   5  13
ATOM     12  C   UNL     1       2.457   7.402  18.190  0.00  0.00    +0.000 C 
ATOM     13  C   UNL     1       2.948   6.508  19.328  0.00  0.00    +0.000 C 
ENDBRANCH   5  13
ENDBRANCH   1  11
BRANCH   2  14
ATOM     14  C   UNL     1       6.645   4.604  17.217  0.00  0.00    +0.000 C 
BRANCH  14  15
ATOM     15  O   UNL     1       6.390   4.039  15.932  0.00  0.00    +0.000 OA
BRANCH  15  16
ATOM     16  C   UNL     1       6.223   4.950  14.932  0.00  0.00    +0.000 C 
ATOM     17  O   UNL     1       5.509   5.941  15.020  0.00  0.00    +0.000 OA
BRANCH  16  18
ATOM     18  C   UNL     1       6.980   4.532  13.685  0.00  0.00    +0.000 C 
BRANCH  18  19
ATOM     19  C   UNL     1       6.153   3.731  12.726  0.00  0.00    +0.000 A 
ATOM     20  C   UNL     1       6.591   2.529  12.077  0.00  0.00    +0.000 A 
ATOM     21  C   UNL     1       5.623   1.978  11.268  0.00  0.00    +0.000 A 
ATOM     22  S   UNL     1       4.177   2.886  11.288  0.00  0.00    +0.000 S 
ATOM     23  C   UNL     1       4.846   4.022  12.379  0.00  0.00    +0.000 A 
ENDBRANCH  18  19
ENDBRANCH  16  18
ENDBRANCH  15  16
ENDBRANCH  14  15
ENDBRANCH   2  14
TORSDOF 7
ENDMDL
MODEL 4
REMARK VINA RESULT:      -6.6      0.985      1.236
REMARK  Name = 
REMARK  9 active torsions:
REMARK  status: ('A' for Active; 'I' for Inactive)
REMARK    1  A    between atoms: C_1  and  C_2
REMARK    2  A    between atoms: C_2  and  C_3
REMARK    3  A    between atoms: C_7  and  C_8
REMARK    4  A    between atoms: C_9  and  N_10
REMARK    5  A    between atoms: C_11  and  C_13
REMARK    6  A    between atoms: C_13  and  O_14
REMARK    7  A    between atoms: O_14  and  C_15
REMARK    8  A    between atoms: C_15  and  C_17
REMARK    9  A    between atoms: C_17  and  C_18
REMARK                            x       y       z     vdW  Elec       q    Type
REMARK                         _______ _______ _______ _____ _____    ______ ____
ROOT
ATOM      1  N   UNL     1       5.139   3.668  17.884  0.00  0.00    +0.000 N 
ATOM      2  C   UNL     1       6.004   4.389  18.697  0.00  0.00    +0.000 C 
ATOM      3  O   UNL     1       5.710   4.937  19.756  0.00  0.00    +0.000 OA
ATOM      4  H   UNL     1       5.356   3.785  16.900  0.00  0.00    +0.000 HD
ENDROOT
BRANCH   1  11
ATOM      5  C   UNL     1       2.796   4.503  18.026  0.00  0.00    +0.000 A 
ATOM      6  C   UNL     1       1.457   4.217  18.367  0.00  0.00    +0.000 A 
ATOM      7  C   UNL     1       1.080   2.971  18.860  0.00  0.00    +0.000 A 
ATOM      8  C   UNL     1       2.042   1.989  19.057  0.00  0.00    +0.000 A 
ATOM      9  C   UNL     1       3.388   2.233  18.740  0.00  0.00    +0.000 A 
ATOM     10  C   UNL     1       4.383   1.126  18.966  0.00  0.00    +0.000 C 
ATOM     11  C   UNL     1       3.764   3.483  18.188  0.00  0.00    +0.000 A 
BRANCH   5  13
ATOM     12  C   UNL     1       2.700   6.969  18.735  0.00  0.00    +0.000 C 
ATOM     13  C   UNL     1       3.138   5.943  17.692  0.00  0.00    +0.000 C 
ENDBRANCH   5  13
ENDBRANCH   1  11
BRANCH   2  14
ATOM     14  C   UNL     1       7.428   4.464  18.122  0.00  0.00    +0.000 C 
BRANCH  14  15
ATOM     15  O   UNL     1       7.523   4.589  16.702  0.00  0.00    +0.000 OA
BRANCH  15  16
ATOM     16  C   UNL     1       7.128   5.797  16.210  0.00  0.00    +0.000 C 
ATOM     17  O   UNL     1       7.658   6.863  16.500  0.00  0.00    +0.000 OA
BRANCH  16  18
ATOM     18  C   UNL     1       5.909   5.647  15.318  0.00  0.00    +0.000 C 
BRANCH  18  19
ATOM     19  C   UNL     1       6.176   4.859  14.072  0.00  0.00    +0.000 A 
ATOM     20  C   UNL     1       7.296   5.066  13.199  0.00  0.00    +0.000 A 
ATOM     21  C   UNL     1       7.317   4.186  12.141  0.00  0.00    +0.000 A 
ATOM     22  S   UNL     1       6.004   3.095  12.189  0.00  0.00    +0.000 S 
ATOM     23  C   UNL     1       5.403   3.801  13.626  0.00  0.00    +0.000 A 
ENDBRANCH  18  19
ENDBRANCH  16  18
ENDBRANCH  15  16
ENDBRANCH  14  15
ENDBRANCH   2  14
TORSDOF 7
ENDMDL
MODEL 5
REMARK VINA RESULT:      -6.6      3.330      5.335
REMARK  Name = 
REMARK  9 active torsions:
REMARK  status: ('A' for Active; 'I' for Inactive)
REMARK    1  A    between atoms: C_1  and  C_2
REMARK    2  A    between atoms: C_2  and  C_3
REMARK    3  A    between atoms: C_7  and  C_8
REMARK    4  A    between atoms: C_9  and  N_10
REMARK    5  A    between atoms: C_11  and  C_13
REMARK    6  A    between atoms: C_13  and  O_14
REMARK    7  A    between atoms: O_14  and  C_15
REMARK    8  A    between atoms: C_15  and  C_17
REMARK    9  A    between atoms: C_17  and  C_18
REMARK                            x       y       z     vdW  Elec       q    Type
REMARK                         _______ _______ _______ _____ _____    ______ ____
ROOT
ATOM      1  N   UNL     1       2.593   6.315  20.366  0.00  0.00    +0.000 N 
ATOM      2  C   UNL     1       1.980   5.070  20.320  0.00  0.00    +0.000 C 
ATOM      3  O   UNL     1       0.981   4.781  19.667  0.00  0.00    +0.000 OA
ATOM      4  H   UNL     1       2.978   6.515  21.283  0.00  0.00    +0.000 HD
ENDROOT
BRANCH   1  11
ATOM      5  C   UNL     1       2.348   7.628  18.262  0.00  0.00    +0.000 A 
ATOM      6  C   UNL     1       1.833   8.787  17.645  0.00  0.00    +0.000 A 
ATOM      7  C   UNL     1       1.115   9.739  18.363  0.00  0.00    +0.000 A 
ATOM      8  C   UNL     1       0.925   9.571  19.728  0.00  0.00    +0.000 A 
ATOM      9  C   UNL     1       1.427   8.436  20.386  0.00  0.00    +0.000 A 
ATOM     10  C   UNL     1       1.180   8.304  21.865  0.00  0.00    +0.000 C 
ATOM     11  C   UNL     1       2.112   7.441  19.646  0.00  0.00    +0.000 A 
BRANCH   5  13
ATOM     12  C   UNL     1       4.556   7.453  16.963  0.00  0.00    +0.000 C 
ATOM     13  C   UNL     1       3.283   6.758  17.443  0.00  0.00    +0.000 C 
ENDBRANCH   5  13
ENDBRANCH   1  11
BRANCH   2  14
ATOM     14  C   UNL     1       2.682   4.035  21.215  0.00  0.00    +0.000 C 
BRANCH  14  15
ATOM     15  O   UNL     1       2.896   2.749  20.634  0.00  0.00    +0.000 OA
BRANCH  15  16
ATOM     16  C   UNL     1       4.100   2.599  20.012  0.00  0.00    +0.000 C 
ATOM     17  O   UNL     1       5.041   1.970  20.482  0.00  0.00    +0.000 OA
BRANCH  16  18
ATOM     18  C   UNL     1       4.136   3.370  18.706  0.00  0.00    +0.000 C 
BRANCH  18  19
ATOM     19  C   UNL     1       5.405   4.139  18.502  0.00  0.00    +0.000 A 
ATOM     20  C   UNL     1       6.212   4.083  17.317  0.00  0.00    +0.000 A 
ATOM     21  C   UNL     1       7.310   4.911  17.381  0.00  0.00    +0.000 A 
ATOM     22  S   UNL     1       7.379   5.772  18.854  0.00  0.00    +0.000 S 
ATOM     23  C   UNL     1       5.939   5.036  19.411  0.00  0.00    +0.000 A 
ENDBRANCH  18  19
ENDBRANCH  16  18
ENDBRANCH  15  16
ENDBRANCH  14  15
ENDBRANCH   2  14
TORSDOF 7
ENDMDL
MODEL 6
REMARK VINA RESULT:      -6.5      1.441      3.028
REMARK  Name = 
REMARK  9 active torsions:
REMARK  status: ('A' for Active; 'I' for Inactive)
REMARK    1  A    between atoms: C_1  and  C_2
REMARK    2  A    between atoms: C_2  and  C_3
REMARK    3  A    between atoms: C_7  and  C_8
REMARK    4  A    between atoms: C_9  and  N_10
REMARK    5  A    between atoms: C_11  and  C_13
REMARK    6  A    between atoms: C_13  and  O_14
REMARK    7  A    between atoms: O_14  and  C_15
REMARK    8  A    between atoms: C_15  and  C_17
REMARK    9  A    between atoms: C_17  and  C_18
REMARK                            x       y       z     vdW  Elec       q    Type
REMARK                         _______ _______ _______ _____ _____    ______ ____
ROOT
ATOM      1  N   UNL     1       3.621   5.235  18.418  0.00  0.00    +0.000 N 
ATOM      2  C   UNL     1       4.956   4.974  18.699  0.00  0.00    +0.000 C 
ATOM      3  O   UNL     1       5.601   5.441  19.634  0.00  0.00    +0.000 OA
ATOM      4  H   UNL     1       3.439   5.252  17.420  0.00  0.00    +0.000 HD
ENDROOT
BRANCH   1  11
ATOM      5  C   UNL     1       2.166   5.704  20.387  0.00  0.00    +0.000 A 
ATOM      6  C   UNL     1       1.390   6.653  21.084  0.00  0.00    +0.000 A 
ATOM      7  C   UNL     1       1.253   7.961  20.628  0.00  0.00    +0.000 A 
ATOM      8  C   UNL     1       1.864   8.342  19.440  0.00  0.00    +0.000 A 
ATOM      9  C   UNL     1       2.640   7.428  18.709  0.00  0.00    +0.000 A 
ATOM     10  C   UNL     1       3.286   7.904  17.435  0.00  0.00    +0.000 C 
ATOM     11  C   UNL     1       2.823   6.112  19.200  0.00  0.00    +0.000 A 
BRANCH   5  13
ATOM     12  C   UNL     1       0.944   3.449  20.248  0.00  0.00    +0.000 C 
ATOM     13  C   UNL     1       2.089   4.261  20.852  0.00  0.00    +0.000 C 
ENDBRANCH   5  13
ENDBRANCH   1  11
BRANCH   2  14
ATOM     14  C   UNL     1       5.595   4.016  17.681  0.00  0.00    +0.000 C 
BRANCH  14  15
ATOM     15  O   UNL     1       6.851   4.427  17.139  0.00  0.00    +0.000 OA
BRANCH  15  16
ATOM     16  C   UNL     1       6.805   5.571  16.401  0.00  0.00    +0.000 C 
ATOM     17  O   UNL     1       7.539   6.535  16.583  0.00  0.00    +0.000 OA
BRANCH  16  18
ATOM     18  C   UNL     1       5.684   5.513  15.380  0.00  0.00    +0.000 C 
BRANCH  18  19
ATOM     19  C   UNL     1       6.059   4.791  14.123  0.00  0.00    +0.000 A 
ATOM     20  C   UNL     1       7.258   5.028  13.372  0.00  0.00    +0.000 A 
ATOM     21  C   UNL     1       7.370   4.205  12.273  0.00  0.00    +0.000 A 
ATOM     22  S   UNL     1       6.048   3.133  12.137  0.00  0.00    +0.000 S 
ATOM     23  C   UNL     1       5.321   3.770  13.549  0.00  0.00    +0.000 A 
ENDBRANCH  18  19
ENDBRANCH  16  18
ENDBRANCH  15  16
ENDBRANCH  14  15
ENDBRANCH   2  14
TORSDOF 7
ENDMDL
MODEL 7
REMARK VINA RESULT:      -6.4      1.728      2.904
REMARK  Name = 
REMARK  9 active torsions:
REMARK  status: ('A' for Active; 'I' for Inactive)
REMARK    1  A    between atoms: C_1  and  C_2
REMARK    2  A    between atoms: C_2  and  C_3
REMARK    3  A    between atoms: C_7  and  C_8
REMARK    4  A    between atoms: C_9  and  N_10
REMARK    5  A    between atoms: C_11  and  C_13
REMARK    6  A    between atoms: C_13  and  O_14
REMARK    7  A    between atoms: O_14  and  C_15
REMARK    8  A    between atoms: C_15  and  C_17
REMARK    9  A    between atoms: C_17  and  C_18
REMARK                            x       y       z     vdW  Elec       q    Type
REMARK                         _______ _______ _______ _____ _____    ______ ____
ROOT
ATOM      1  N   UNL     1       3.440   5.181  17.586  0.00  0.00    +0.000 N 
ATOM      2  C   UNL     1       4.829   5.212  17.556  0.00  0.00    +0.000 C 
ATOM      3  O   UNL     1       5.579   4.782  18.428  0.00  0.00    +0.000 OA
ATOM      4  H   UNL     1       3.033   6.000  17.146  0.00  0.00    +0.000 HD
ENDROOT
BRANCH   1  11
ATOM      5  C   UNL     1       2.434   3.255  18.805  0.00  0.00    +0.000 A 
ATOM      6  C   UNL     1       1.682   2.822  19.917  0.00  0.00    +0.000 A 
ATOM      7  C   UNL     1       1.200   3.719  20.866  0.00  0.00    +0.000 A 
ATOM      8  C   UNL     1       1.429   5.079  20.706  0.00  0.00    +0.000 A 
ATOM      9  C   UNL     1       2.165   5.556  19.609  0.00  0.00    +0.000 A 
ATOM     10  C   UNL     1       2.390   7.040  19.495  0.00  0.00    +0.000 C 
ATOM     11  C   UNL     1       2.702   4.639  18.671  0.00  0.00    +0.000 A 
BRANCH   5  13
ATOM     12  C   UNL     1       3.858   1.249  18.069  0.00  0.00    +0.000 C 
ATOM     13  C   UNL     1       2.739   2.231  17.727  0.00  0.00    +0.000 C 
ENDBRANCH   5  13
ENDBRANCH   1  11
BRANCH   2  14
ATOM     14  C   UNL     1       5.375   5.881  16.284  0.00  0.00    +0.000 C 
BRANCH  14  15
ATOM     15  O   UNL     1       5.495   5.039  15.137  0.00  0.00    +0.000 OA
BRANCH  15  16
ATOM     16  C   UNL     1       6.776   4.749  14.775  0.00  0.00    +0.000 C 
ATOM     17  O   UNL     1       7.668   4.474  15.569  0.00  0.00    +0.000 OA
BRANCH  16  18
ATOM     18  C   UNL     1       6.958   4.882  13.275  0.00  0.00    +0.000 C 
BRANCH  18  19
ATOM     19  C   UNL     1       6.353   3.753  12.498  0.00  0.00    +0.000 A 
ATOM     20  C   UNL     1       4.967   3.663  12.134  0.00  0.00    +0.000 A 
ATOM     21  C   UNL     1       4.683   2.536  11.396  0.00  0.00    +0.000 A 
ATOM     22  S   UNL     1       6.072   1.582  11.121  0.00  0.00    +0.000 S 
ATOM     23  C   UNL     1       7.058   2.676  11.992  0.00  0.00    +0.000 A 
ENDBRANCH  18  19
ENDBRANCH  16  18
ENDBRANCH  15  16
ENDBRANCH  14  15
ENDBRANCH   2  14
TORSDOF 7
ENDMDL
MODEL 8
REMARK VINA RESULT:      -6.4      2.760      4.568
REMARK  Name = 
REMARK  9 active torsions:
REMARK  status: ('A' for Active; 'I' for Inactive)
REMARK    1  A    between atoms: C_1  and  C_2
REMARK    2  A    between atoms: C_2  and  C_3
REMARK    3  A    between atoms: C_7  and  C_8
REMARK    4  A    between atoms: C_9  and  N_10
REMARK    5  A    between atoms: C_11  and  C_13
REMARK    6  A    between atoms: C_13  and  O_14
REMARK    7  A    between atoms: O_14  and  C_15
REMARK    8  A    between atoms: C_15  and  C_17
REMARK    9  A    between atoms: C_17  and  C_18
REMARK                            x       y       z     vdW  Elec       q    Type
REMARK                         _______ _______ _______ _____ _____    ______ ____
ROOT
ATOM      1  N   UNL     1       3.430   5.358  18.481  0.00  0.00    +0.000 N 
ATOM      2  C   UNL     1       2.872   4.460  17.580  0.00  0.00    +0.000 C 
ATOM      3  O   UNL     1       1.674   4.308  17.362  0.00  0.00    +0.000 OA
ATOM      4  H   UNL     1       4.267   4.986  18.920  0.00  0.00    +0.000 HD
ENDROOT
BRANCH   1  11
ATOM      5  C   UNL     1       2.059   5.820  20.510  0.00  0.00    +0.000 A 
ATOM      6  C   UNL     1       1.296   6.761  21.233  0.00  0.00    +0.000 A 
ATOM      7  C   UNL     1       1.112   8.060  20.770  0.00  0.00    +0.000 A 
ATOM      8  C   UNL     1       1.659   8.441  19.552  0.00  0.00    +0.000 A 
ATOM      9  C   UNL     1       2.419   7.534  18.794  0.00  0.00    +0.000 A 
ATOM     10  C   UNL     1       2.995   8.009  17.487  0.00  0.00    +0.000 C 
ATOM     11  C   UNL     1       2.651   6.228  19.290  0.00  0.00    +0.000 A 
BRANCH   5  13
ATOM     12  C   UNL     1       0.821   3.570  20.539  0.00  0.00    +0.000 C 
ATOM     13  C   UNL     1       2.033   4.381  20.993  0.00  0.00    +0.000 C 
ENDBRANCH   5  13
ENDBRANCH   1  11
BRANCH   2  14
ATOM     14  C   UNL     1       3.934   3.616  16.856  0.00  0.00    +0.000 C 
BRANCH  14  15
ATOM     15  O   UNL     1       4.331   4.083  15.567  0.00  0.00    +0.000 OA
BRANCH  15  16
ATOM     16  C   UNL     1       5.638   4.458  15.474  0.00  0.00    +0.000 C 
ATOM     17  O   UNL     1       6.550   3.697  15.176  0.00  0.00    +0.000 OA
BRANCH  16  18
ATOM     18  C   UNL     1       5.812   5.916  15.857  0.00  0.00    +0.000 C 
BRANCH  18  19
ATOM     19  C   UNL     1       6.695   6.117  17.051  0.00  0.00    +0.000 A 
ATOM     20  C   UNL     1       7.412   7.325  17.341  0.00  0.00    +0.000 A 
ATOM     21  C   UNL     1       8.126   7.251  18.516  0.00  0.00    +0.000 A 
ATOM     22  S   UNL     1       7.934   5.741  19.289  0.00  0.00    +0.000 S 
ATOM     23  C   UNL     1       6.896   5.181  18.050  0.00  0.00    +0.000 A 
ENDBRANCH  18  19
ENDBRANCH  16  18
ENDBRANCH  15  16
ENDBRANCH  14  15
ENDBRANCH   2  14
TORSDOF 7
ENDMDL
MODEL 9
REMARK VINA RESULT:      -6.4      1.279      2.650
REMARK  Name = 
REMARK  9 active torsions:
REMARK  status: ('A' for Active; 'I' for Inactive)
REMARK    1  A    between atoms: C_1  and  C_2
REMARK    2  A    between atoms: C_2  and  C_3
REMARK    3  A    between atoms: C_7  and  C_8
REMARK    4  A    between atoms: C_9  and  N_10
REMARK    5  A    between atoms: C_11  and  C_13
REMARK    6  A    between atoms: C_13  and  O_14
REMARK    7  A    between atoms: O_14  and  C_15
REMARK    8  A    between atoms: C_15  and  C_17
REMARK    9  A    between atoms: C_17  and  C_18
REMARK                            x       y       z     vdW  Elec       q    Type
REMARK                         _______ _______ _______ _____ _____    ______ ____
ROOT
ATOM      1  N   UNL     1       4.352   5.788  18.390  0.00  0.00    +0.000 N 
ATOM      2  C   UNL     1       5.696   5.905  18.724  0.00  0.00    +0.000 C 
ATOM      3  O   UNL     1       6.226   5.473  19.743  0.00  0.00    +0.000 OA
ATOM      4  H   UNL     1       4.012   6.604  17.891  0.00  0.00    +0.000 HD
ENDROOT
BRANCH   1  11
ATOM      5  C   UNL     1       3.394   3.742  19.441  0.00  0.00    +0.000 A 
ATOM      6  C   UNL     1       2.399   3.199  20.281  0.00  0.00    +0.000 A 
ATOM      7  C   UNL     1       1.435   4.003  20.884  0.00  0.00    +0.000 A 
ATOM      8  C   UNL     1       1.423   5.368  20.632  0.00  0.00    +0.000 A 
ATOM      9  C   UNL     1       2.388   5.950  19.795  0.00  0.00    +0.000 A 
ATOM     10  C   UNL     1       2.329   7.437  19.569  0.00  0.00    +0.000 C 
ATOM     11  C   UNL     1       3.402   5.141  19.224  0.00  0.00    +0.000 A 
BRANCH   5  13
ATOM     12  C   UNL     1       3.513   1.799  17.767  0.00  0.00    +0.000 C 
ATOM     13  C   UNL     1       4.269   2.767  18.675  0.00  0.00    +0.000 C 
ENDBRANCH   5  13
ENDBRANCH   1  11
BRANCH   2  14
ATOM     14  C   UNL     1       6.500   6.677  17.664  0.00  0.00    +0.000 C 
BRANCH  14  15
ATOM     15  O   UNL     1       6.545   6.089  16.364  0.00  0.00    +0.000 OA
BRANCH  15  16
ATOM     16  C   UNL     1       6.941   4.785  16.341  0.00  0.00    +0.000 C 
ATOM     17  O   UNL     1       7.993   4.380  16.820  0.00  0.00    +0.000 OA
BRANCH  16  18
ATOM     18  C   UNL     1       5.941   3.929  15.587  0.00  0.00    +0.000 C 
BRANCH  18  19
ATOM     19  C   UNL     1       6.165   3.916  14.106  0.00  0.00    +0.000 A 
ATOM     20  C   UNL     1       7.218   4.621  13.433  0.00  0.00    +0.000 A 
ATOM     21  C   UNL     1       7.212   4.415  12.072  0.00  0.00    +0.000 A 
ATOM     22  S   UNL     1       5.955   3.366  11.587  0.00  0.00    +0.000 S 
ATOM     23  C   UNL     1       5.414   3.187  13.200  0.00  0.00    +0.000 A 
ENDBRANCH  18  19
ENDBRANCH  16  18
ENDBRANCH  15  16
ENDBRANCH  14  15
ENDBRANCH   2  14
TORSDOF 7
ENDMDL
