MODEL 1
REMARK VINA RESULT:      -9.0      0.000      0.000
REMARK  Name = 
REMARK  5 active torsions:
REMARK  status: ('A' for Active; 'I' for Inactive)
REMARK    1  A    between atoms: C_2  and  C_3
REMARK    2  A    between atoms: C_4  and  C_5
REMARK    3  A    between atoms: N_11  and  C_12
REMARK    4  A    between atoms: C_16  and  C_17
REMARK    5  A    between atoms: N_19  and  C_20
REMARK                            x       y       z     vdW  Elec       q    Type
REMARK                         _______ _______ _______ _____ _____    ______ ____
ROOT
ATOM      1  C   UNL     1       6.097   6.224  16.694  0.00  0.00    +0.000 A 
ATOM      2  C   UNL     1       6.475   5.153  15.876  0.00  0.00    +0.000 A 
ATOM      3  C   UNL     1       5.715   3.985  15.826  0.00  0.00    +0.000 A 
ATOM      4  C   UNL     1       4.555   3.872  16.585  0.00  0.00    +0.000 A 
ATOM      5  C   UNL     1       4.138   4.942  17.388  0.00  0.00    +0.000 A 
ATOM      6  C   UNL     1       4.926   6.106  17.458  0.00  0.00    +0.000 A 
ENDROOT
BRANCH   1   9
ATOM      7  O   UNL     1       8.168   6.904  18.696  0.00  0.00    +0.000 OA
ATOM      8  C   UNL     1       7.772   7.680  17.835  0.00  0.00    +0.000 C 
ATOM      9  N   UNL     1       6.875   7.401  16.818  0.00  0.00    +0.000 N 
ATOM     10  H   UNL     1       6.758   8.089  16.085  0.00  0.00    +0.000 HD
BRANCH   8  11
ATOM     11  C   UNL     1       8.270   9.085  17.793  0.00  0.00    +0.000 C 
ATOM     12  C   UNL     1       8.912   9.601  18.855  0.00  0.00    +0.000 C 
BRANCH  12  13
ATOM     13  C   UNL     1       9.396  10.990  18.932  0.00  0.00    +0.000 A 
ATOM     14  C   UNL     1      10.299  11.352  19.941  0.00  0.00    +0.000 A 
ATOM     15  C   UNL     1      10.777  12.663  20.036  0.00  0.00    +0.000 A 
ATOM     16  C   UNL     1      10.366  13.624  19.116  0.00  0.00    +0.000 A 
ATOM     17  C   UNL     1       9.489  13.273  18.093  0.00  0.00    +0.000 A 
ATOM     18  C   UNL     1       9.013  11.962  17.996  0.00  0.00    +0.000 A 
ENDBRANCH  12  13
ENDBRANCH   8  11
ENDBRANCH   1   9
BRANCH   5  19
ATOM     19  C   UNL     1       2.890   4.852  18.204  0.00  0.00    +0.000 C 
ATOM     20  O   UNL     1       1.819   5.197  17.720  0.00  0.00    +0.000 OA
ATOM     21  N   UNL     1       3.036   4.347  19.487  0.00  0.00    +0.000 N 
ATOM     22  H   UNL     1       3.920   3.935  19.757  0.00  0.00    +0.000 HD
BRANCH  21  23
ATOM     23  C   UNL     1       1.948   4.227  20.406  0.00  0.00    +0.000 C 
ATOM     24  C   UNL     1       1.258   2.903  20.606  0.00  0.00    +0.000 C 
ATOM     25  C   UNL     1       2.121   3.467  21.694  0.00  0.00    +0.000 C 
ENDBRANCH  21  23
ENDBRANCH   5  19
TORSDOF 5
ENDMDL
MODEL 2
REMARK VINA RESULT:      -9.0      0.095      1.009
REMARK  Name = 
REMARK  5 active torsions:
REMARK  status: ('A' for Active; 'I' for Inactive)
REMARK    1  A    between atoms: C_2  and  C_3
REMARK    2  A    between atoms: C_4  and  C_5
REMARK    3  A    between atoms: N_11  and  C_12
REMARK    4  A    between atoms: C_16  and  C_17
REMARK    5  A    between atoms: N_19  and  C_20
REMARK                            x       y       z     vdW  Elec       q    Type
REMARK                         _______ _______ _______ _____ _____    ______ ____
ROOT
ATOM      1  C   UNL     1       6.088   6.283  16.737  0.00  0.00    +0.000 A 
ATOM      2  C   UNL     1       6.441   5.225  15.891  0.00  0.00    +0.000 A 
ATOM      3  C   UNL     1       5.663   4.070  15.824  0.00  0.00    +0.000 A 
ATOM      4  C   UNL     1       4.510   3.957  16.595  0.00  0.00    +0.000 A 
ATOM      5  C   UNL     1       4.119   5.014  17.426  0.00  0.00    +0.000 A 
ATOM      6  C   UNL     1       4.925   6.165  17.512  0.00  0.00    +0.000 A 
ENDROOT
BRANCH   1   9
ATOM      7  O   UNL     1       8.186   6.891  18.734  0.00  0.00    +0.000 OA
ATOM      8  C   UNL     1       7.795   7.690  17.892  0.00  0.00    +0.000 C 
ATOM      9  N   UNL     1       6.885   7.445  16.878  0.00  0.00    +0.000 N 
ATOM     10  H   UNL     1       6.772   8.150  16.159  0.00  0.00    +0.000 HD
BRANCH   8  11
ATOM     11  C   UNL     1       8.314   9.088  17.874  0.00  0.00    +0.000 C 
ATOM     12  C   UNL     1       8.970   9.574  18.942  0.00  0.00    +0.000 C 
BRANCH  12  13
ATOM     13  C   UNL     1       9.474  10.954  19.042  0.00  0.00    +0.000 A 
ATOM     14  C   UNL     1       9.031  11.919  18.127  0.00  0.00    +0.000 A 
ATOM     15  C   UNL     1       9.491  13.238  18.200  0.00  0.00    +0.000 A 
ATOM     16  C   UNL     1      10.391  13.609  19.195  0.00  0.00    +0.000 A 
ATOM     17  C   UNL     1      10.821  12.666  20.126  0.00  0.00    +0.000 A 
ATOM     18  C   UNL     1      10.359  11.349  20.055  0.00  0.00    +0.000 A 
ENDBRANCH  12  13
ENDBRANCH   8  11
ENDBRANCH   1   9
BRANCH   5  19
ATOM     19  C   UNL     1       2.879   4.925  18.255  0.00  0.00    +0.000 C 
ATOM     20  O   UNL     1       1.817   5.344  17.811  0.00  0.00    +0.000 OA
ATOM     21  N   UNL     1       3.021   4.333  19.500  0.00  0.00    +0.000 N 
ATOM     22  H   UNL     1       3.890   3.868  19.730  0.00  0.00    +0.000 HD
BRANCH  21  23
ATOM     23  C   UNL     1       1.941   4.200  20.428  0.00  0.00    +0.000 C 
ATOM     24  C   UNL     1       1.231   2.881  20.591  0.00  0.00    +0.000 C 
ATOM     25  C   UNL     1       2.116   3.394  21.687  0.00  0.00    +0.000 C 
ENDBRANCH  21  23
ENDBRANCH   5  19
TORSDOF 5
ENDMDL
MODEL 3
REMARK VINA RESULT:      -8.8      1.110      1.153
REMARK  Name = 
REMARK  5 active torsions:
REMARK  status: ('A' for Active; 'I' for Inactive)
REMARK    1  A    between atoms: C_2  and  C_3
REMARK    2  A    between atoms: C_4  and  C_5
REMARK    3  A    between atoms: N_11  and  C_12
REMARK    4  A    between atoms: C_16  and  C_17
REMARK    5  A    between atoms: N_19  and  C_20
REMARK                            x       y       z     vdW  Elec       q    Type
REMARK                         _______ _______ _______ _____ _____    ______ ____
ROOT
ATOM      1  C   UNL     1       6.233   6.202  16.726  0.00  0.00    +0.000 A 
ATOM      2  C   UNL     1       6.100   5.538  15.501  0.00  0.00    +0.000 A 
ATOM      3  C   UNL     1       5.436   4.314  15.416  0.00  0.00    +0.000 A 
ATOM      4  C   UNL     1       4.881   3.739  16.554  0.00  0.00    +0.000 A 
ATOM      5  C   UNL     1       4.973   4.399  17.787  0.00  0.00    +0.000 A 
ATOM      6  C   UNL     1       5.671   5.617  17.872  0.00  0.00    +0.000 A 
ENDROOT
BRANCH   1   9
ATOM      7  O   UNL     1       8.255   6.966  18.747  0.00  0.00    +0.000 OA
ATOM      8  C   UNL     1       7.829   7.728  17.889  0.00  0.00    +0.000 C 
ATOM      9  N   UNL     1       6.952   7.414  16.864  0.00  0.00    +0.000 N 
ATOM     10  H   UNL     1       6.807   8.100  16.134  0.00  0.00    +0.000 HD
BRANCH   8  11
ATOM     11  C   UNL     1       8.258   9.155  17.860  0.00  0.00    +0.000 C 
ATOM     12  C   UNL     1       9.015   9.649  18.856  0.00  0.00    +0.000 C 
BRANCH  12  13
ATOM     13  C   UNL     1       9.447  11.053  18.945  0.00  0.00    +0.000 A 
ATOM     14  C   UNL     1      10.241  11.464  20.025  0.00  0.00    +0.000 A 
ATOM     15  C   UNL     1      10.668  12.792  20.134  0.00  0.00    +0.000 A 
ATOM     16  C   UNL     1      10.317  13.720  19.158  0.00  0.00    +0.000 A 
ATOM     17  C   UNL     1       9.551  13.320  18.066  0.00  0.00    +0.000 A 
ATOM     18  C   UNL     1       9.126  11.993  17.956  0.00  0.00    +0.000 A 
ENDBRANCH  12  13
ENDBRANCH   8  11
ENDBRANCH   1   9
BRANCH   5  19
ATOM     19  C   UNL     1       4.375   3.809  19.023  0.00  0.00    +0.000 C 
ATOM     20  O   UNL     1       5.012   2.993  19.678  0.00  0.00    +0.000 OA
ATOM     21  N   UNL     1       3.109   4.261  19.362  0.00  0.00    +0.000 N 
ATOM     22  H   UNL     1       2.717   5.050  18.865  0.00  0.00    +0.000 HD
BRANCH  21  23
ATOM     23  C   UNL     1       2.386   3.774  20.495  0.00  0.00    +0.000 C 
ATOM     24  C   UNL     1       0.885   3.895  20.554  0.00  0.00    +0.000 C 
ATOM     25  C   UNL     1       1.520   2.549  20.375  0.00  0.00    +0.000 C 
ENDBRANCH  21  23
ENDBRANCH   5  19
TORSDOF 5
ENDMDL
MODEL 4
REMARK VINA RESULT:      -8.8      1.145      1.589
REMARK  Name = 
REMARK  5 active torsions:
REMARK  status: ('A' for Active; 'I' for Inactive)
REMARK    1  A    between atoms: C_2  and  C_3
REMARK    2  A    between atoms: C_4  and  C_5
REMARK    3  A    between atoms: N_11  and  C_12
REMARK    4  A    between atoms: C_16  and  C_17
REMARK    5  A    between atoms: N_19  and  C_20
REMARK                            x       y       z     vdW  Elec       q    Type
REMARK                         _______ _______ _______ _____ _____    ______ ____
ROOT
ATOM      1  C   UNL     1       6.227   6.188  16.648  0.00  0.00    +0.000 A 
ATOM      2  C   UNL     1       6.103   5.583  15.392  0.00  0.00    +0.000 A 
ATOM      3  C   UNL     1       5.455   4.357  15.246  0.00  0.00    +0.000 A 
ATOM      4  C   UNL     1       4.906   3.720  16.355  0.00  0.00    +0.000 A 
ATOM      5  C   UNL     1       4.989   4.320  17.618  0.00  0.00    +0.000 A 
ATOM      6  C   UNL     1       5.672   5.541  17.763  0.00  0.00    +0.000 A 
ENDROOT
BRANCH   1   9
ATOM      7  O   UNL     1       8.214   6.889  18.725  0.00  0.00    +0.000 OA
ATOM      8  C   UNL     1       7.790   7.682  17.894  0.00  0.00    +0.000 C 
ATOM      9  N   UNL     1       6.931   7.401  16.845  0.00  0.00    +0.000 N 
ATOM     10  H   UNL     1       6.788   8.116  16.143  0.00  0.00    +0.000 HD
BRANCH   8  11
ATOM     11  C   UNL     1       8.205   9.113  17.930  0.00  0.00    +0.000 C 
ATOM     12  C   UNL     1       9.030   9.549  18.897  0.00  0.00    +0.000 C 
BRANCH  12  13
ATOM     13  C   UNL     1       9.456  10.950  19.049  0.00  0.00    +0.000 A 
ATOM     14  C   UNL     1       9.220  11.860  18.008  0.00  0.00    +0.000 A 
ATOM     15  C   UNL     1       9.611  13.198  18.126  0.00  0.00    +0.000 A 
ATOM     16  C   UNL     1      10.233  13.643  19.289  0.00  0.00    +0.000 A 
ATOM     17  C   UNL     1      10.451  12.757  20.341  0.00  0.00    +0.000 A 
ATOM     18  C   UNL     1      10.058  11.420  20.225  0.00  0.00    +0.000 A 
ENDBRANCH  12  13
ENDBRANCH   8  11
ENDBRANCH   1   9
BRANCH   5  19
ATOM     19  C   UNL     1       4.398   3.663  18.823  0.00  0.00    +0.000 C 
ATOM     20  O   UNL     1       5.133   3.173  19.672  0.00  0.00    +0.000 OA
ATOM     21  N   UNL     1       3.014   3.677  18.907  0.00  0.00    +0.000 N 
ATOM     22  H   UNL     1       2.486   4.238  18.253  0.00  0.00    +0.000 HD
BRANCH  21  23
ATOM     23  C   UNL     1       2.293   3.064  19.978  0.00  0.00    +0.000 C 
ATOM     24  C   UNL     1       1.572   3.909  20.997  0.00  0.00    +0.000 C 
ATOM     25  C   UNL     1       0.788   3.105  20.003  0.00  0.00    +0.000 C 
ENDBRANCH  21  23
ENDBRANCH   5  19
TORSDOF 5
ENDMDL
MODEL 5
REMARK VINA RESULT:      -8.5      1.265      1.373
REMARK  Name = 
REMARK  5 active torsions:
REMARK  status: ('A' for Active; 'I' for Inactive)
REMARK    1  A    between atoms: C_2  and  C_3
REMARK    2  A    between atoms: C_4  and  C_5
REMARK    3  A    between atoms: N_11  and  C_12
REMARK    4  A    between atoms: C_16  and  C_17
REMARK    5  A    between atoms: N_19  and  C_20
REMARK                            x       y       z     vdW  Elec       q    Type
REMARK                         _______ _______ _______ _____ _____    ______ ____
ROOT
ATOM      1  C   UNL     1       6.632   5.494  17.282  0.00  0.00    +0.000 A 
ATOM      2  C   UNL     1       7.035   4.815  16.126  0.00  0.00    +0.000 A 
ATOM      3  C   UNL     1       6.252   3.797  15.583  0.00  0.00    +0.000 A 
ATOM      4  C   UNL     1       5.045   3.448  16.179  0.00  0.00    +0.000 A 
ATOM      5  C   UNL     1       4.605   4.133  17.319  0.00  0.00    +0.000 A 
ATOM      6  C   UNL     1       5.414   5.138  17.881  0.00  0.00    +0.000 A 
ENDROOT
BRANCH   1   9
ATOM      7  O   UNL     1       6.615   8.426  16.880  0.00  0.00    +0.000 OA
ATOM      8  C   UNL     1       7.417   7.842  17.598  0.00  0.00    +0.000 C 
ATOM      9  N   UNL     1       7.428   6.490  17.899  0.00  0.00    +0.000 N 
ATOM     10  H   UNL     1       8.051   6.171  18.629  0.00  0.00    +0.000 HD
BRANCH   8  11
ATOM     11  C   UNL     1       8.517   8.590  18.271  0.00  0.00    +0.000 C 
ATOM     12  C   UNL     1       8.563   9.931  18.193  0.00  0.00    +0.000 C 
BRANCH  12  13
ATOM     13  C   UNL     1       9.633  10.755  18.778  0.00  0.00    +0.000 A 
ATOM     14  C   UNL     1       9.611  11.042  20.151  0.00  0.00    +0.000 A 
ATOM     15  C   UNL     1      10.616  11.820  20.735  0.00  0.00    +0.000 A 
ATOM     16  C   UNL     1      11.660  12.310  19.956  0.00  0.00    +0.000 A 
ATOM     17  C   UNL     1      11.708  12.013  18.596  0.00  0.00    +0.000 A 
ATOM     18  C   UNL     1      10.706  11.233  18.013  0.00  0.00    +0.000 A 
ENDBRANCH  12  13
ENDBRANCH   8  11
ENDBRANCH   1   9
BRANCH   5  19
ATOM     19  C   UNL     1       3.307   3.787  17.973  0.00  0.00    +0.000 C 
ATOM     20  O   UNL     1       2.274   3.781  17.314  0.00  0.00    +0.000 OA
ATOM     21  N   UNL     1       3.371   3.464  19.320  0.00  0.00    +0.000 N 
ATOM     22  H   UNL     1       4.275   3.335  19.754  0.00  0.00    +0.000 HD
BRANCH  21  23
ATOM     23  C   UNL     1       2.217   3.142  20.100  0.00  0.00    +0.000 C 
ATOM     24  C   UNL     1       2.172   3.467  21.571  0.00  0.00    +0.000 C 
ATOM     25  C   UNL     1       1.314   4.233  20.609  0.00  0.00    +0.000 C 
ENDBRANCH  21  23
ENDBRANCH   5  19
TORSDOF 5
ENDMDL
MODEL 6
REMARK VINA RESULT:      -8.3      1.688      1.802
REMARK  Name = 
REMARK  5 active torsions:
REMARK  status: ('A' for Active; 'I' for Inactive)
REMARK    1  A    between atoms: C_2  and  C_3
REMARK    2  A    between atoms: C_4  and  C_5
REMARK    3  A    between atoms: N_11  and  C_12
REMARK    4  A    between atoms: C_16  and  C_17
REMARK    5  A    between atoms: N_19  and  C_20
REMARK                            x       y       z     vdW  Elec       q    Type
REMARK                         _______ _______ _______ _____ _____    ______ ____
ROOT
ATOM      1  C   UNL     1       7.013   5.936  17.825  0.00  0.00    +0.000 A 
ATOM      2  C   UNL     1       7.039   5.520  16.489  0.00  0.00    +0.000 A 
ATOM      3  C   UNL     1       6.265   4.443  16.058  0.00  0.00    +0.000 A 
ATOM      4  C   UNL     1       5.439   3.772  16.954  0.00  0.00    +0.000 A 
ATOM      5  C   UNL     1       5.372   4.189  18.289  0.00  0.00    +0.000 A 
ATOM      6  C   UNL     1       6.179   5.256  18.726  0.00  0.00    +0.000 A 
ENDROOT
BRANCH   1   9
ATOM      7  O   UNL     1       6.940   8.826  17.191  0.00  0.00    +0.000 OA
ATOM      8  C   UNL     1       7.788   8.307  17.907  0.00  0.00    +0.000 C 
ATOM      9  N   UNL     1       7.831   6.984  18.314  0.00  0.00    +0.000 N 
ATOM     10  H   UNL     1       8.497   6.729  19.032  0.00  0.00    +0.000 HD
BRANCH   8  11
ATOM     11  C   UNL     1       8.915   9.114  18.455  0.00  0.00    +0.000 C 
ATOM     12  C   UNL     1       9.026  10.415  18.136  0.00  0.00    +0.000 C 
BRANCH  12  13
ATOM     13  C   UNL     1      10.128  11.283  18.584  0.00  0.00    +0.000 A 
ATOM     14  C   UNL     1      10.394  11.410  19.955  0.00  0.00    +0.000 A 
ATOM     15  C   UNL     1      11.437  12.225  20.408  0.00  0.00    +0.000 A 
ATOM     16  C   UNL     1      12.232  12.913  19.496  0.00  0.00    +0.000 A 
ATOM     17  C   UNL     1      11.996  12.776  18.131  0.00  0.00    +0.000 A 
ATOM     18  C   UNL     1      10.956  11.960  17.677  0.00  0.00    +0.000 A 
ENDBRANCH  12  13
ENDBRANCH   8  11
ENDBRANCH   1   9
BRANCH   5  19
ATOM     19  C   UNL     1       4.485   3.493  19.270  0.00  0.00    +0.000 C 
ATOM     20  O   UNL     1       4.878   2.480  19.836  0.00  0.00    +0.000 OA
ATOM     21  N   UNL     1       3.248   4.078  19.494  0.00  0.00    +0.000 N 
ATOM     22  H   UNL     1       3.060   4.996  19.114  0.00  0.00    +0.000 HD
BRANCH  21  23
ATOM     23  C   UNL     1       2.271   3.520  20.376  0.00  0.00    +0.000 C 
ATOM     24  C   UNL     1       0.875   4.086  20.427  0.00  0.00    +0.000 C 
ATOM     25  C   UNL     1       1.112   2.732  19.827  0.00  0.00    +0.000 C 
ENDBRANCH  21  23
ENDBRANCH   5  19
TORSDOF 5
ENDMDL
MODEL 7
REMARK VINA RESULT:      -8.2      0.961      1.511
REMARK  Name = 
REMARK  5 active torsions:
REMARK  status: ('A' for Active; 'I' for Inactive)
REMARK    1  A    between atoms: C_2  and  C_3
REMARK    2  A    between atoms: C_4  and  C_5
REMARK    3  A    between atoms: N_11  and  C_12
REMARK    4  A    between atoms: C_16  and  C_17
REMARK    5  A    between atoms: N_19  and  C_20
REMARK                            x       y       z     vdW  Elec       q    Type
REMARK                         _______ _______ _______ _____ _____    ______ ____
ROOT
ATOM      1  C   UNL     1       6.602   5.823  16.515  0.00  0.00    +0.000 A 
ATOM      2  C   UNL     1       6.944   5.105  15.363  0.00  0.00    +0.000 A 
ATOM      3  C   UNL     1       6.127   4.079  14.889  0.00  0.00    +0.000 A 
ATOM      4  C   UNL     1       4.946   3.762  15.552  0.00  0.00    +0.000 A 
ATOM      5  C   UNL     1       4.566   4.487  16.688  0.00  0.00    +0.000 A 
ATOM      6  C   UNL     1       5.410   5.500  17.180  0.00  0.00    +0.000 A 
ENDROOT
BRANCH   1   9
ATOM      7  O   UNL     1       7.890   5.953  19.176  0.00  0.00    +0.000 OA
ATOM      8  C   UNL     1       7.938   6.858  18.352  0.00  0.00    +0.000 C 
ATOM      9  N   UNL     1       7.436   6.830  17.062  0.00  0.00    +0.000 N 
ATOM     10  H   UNL     1       7.684   7.587  16.438  0.00  0.00    +0.000 HD
BRANCH   8  11
ATOM     11  C   UNL     1       8.602   8.151  18.682  0.00  0.00    +0.000 C 
ATOM     12  C   UNL     1       8.221   9.280  18.060  0.00  0.00    +0.000 C 
BRANCH  12  13
ATOM     13  C   UNL     1       8.848  10.594  18.278  0.00  0.00    +0.000 A 
ATOM     14  C   UNL     1       8.381  11.708  17.567  0.00  0.00    +0.000 A 
ATOM     15  C   UNL     1       8.955  12.969  17.756  0.00  0.00    +0.000 A 
ATOM     16  C   UNL     1       9.996  13.133  18.667  0.00  0.00    +0.000 A 
ATOM     17  C   UNL     1      10.453  12.040  19.399  0.00  0.00    +0.000 A 
ATOM     18  C   UNL     1       9.876  10.780  19.212  0.00  0.00    +0.000 A 
ENDBRANCH  12  13
ENDBRANCH   8  11
ENDBRANCH   1   9
BRANCH   5  19
ATOM     19  C   UNL     1       3.297   4.175  17.412  0.00  0.00    +0.000 C 
ATOM     20  O   UNL     1       2.454   3.460  16.885  0.00  0.00    +0.000 OA
ATOM     21  N   UNL     1       3.171   4.719  18.681  0.00  0.00    +0.000 N 
ATOM     22  H   UNL     1       3.973   5.162  19.110  0.00  0.00    +0.000 HD
BRANCH  21  23
ATOM     23  C   UNL     1       2.007   4.544  19.492  0.00  0.00    +0.000 C 
ATOM     24  C   UNL     1       2.130   4.054  20.912  0.00  0.00    +0.000 C 
ATOM     25  C   UNL     1       1.735   5.475  20.643  0.00  0.00    +0.000 C 
ENDBRANCH  21  23
ENDBRANCH   5  19
TORSDOF 5
ENDMDL
MODEL 8
REMARK VINA RESULT:      -8.0      5.285      6.979
REMARK  Name = 
REMARK  5 active torsions:
REMARK  status: ('A' for Active; 'I' for Inactive)
REMARK    1  A    between atoms: C_2  and  C_3
REMARK    2  A    between atoms: C_4  and  C_5
REMARK    3  A    between atoms: N_11  and  C_12
REMARK    4  A    between atoms: C_16  and  C_17
REMARK    5  A    between atoms: N_19  and  C_20
REMARK                            x       y       z     vdW  Elec       q    Type
REMARK                         _______ _______ _______ _____ _____    ______ ____
ROOT
ATOM      1  C   UNL     1       3.267   4.693  18.857  0.00  0.00    +0.000 A 
ATOM      2  C   UNL     1       2.710   3.679  19.644  0.00  0.00    +0.000 A 
ATOM      3  C   UNL     1       1.841   3.980  20.693  0.00  0.00    +0.000 A 
ATOM      4  C   UNL     1       1.504   5.302  20.965  0.00  0.00    +0.000 A 
ATOM      5  C   UNL     1       2.023   6.333  20.172  0.00  0.00    +0.000 A 
ATOM      6  C   UNL     1       2.924   6.025  19.135  0.00  0.00    +0.000 A 
ENDROOT
BRANCH   1   9
ATOM      7  O   UNL     1       6.206   4.382  19.016  0.00  0.00    +0.000 OA
ATOM      8  C   UNL     1       5.577   4.379  17.965  0.00  0.00    +0.000 C 
ATOM      9  N   UNL     1       4.200   4.432  17.824  0.00  0.00    +0.000 N 
ATOM     10  H   UNL     1       3.809   4.263  16.906  0.00  0.00    +0.000 HD
BRANCH   8  11
ATOM     11  C   UNL     1       6.286   4.295  16.656  0.00  0.00    +0.000 C 
ATOM     12  C   UNL     1       5.613   4.514  15.513  0.00  0.00    +0.000 C 
BRANCH  12  13
ATOM     13  C   UNL     1       6.209   4.406  14.172  0.00  0.00    +0.000 A 
ATOM     14  C   UNL     1       7.312   5.206  13.839  0.00  0.00    +0.000 A 
ATOM     15  C   UNL     1       7.901   5.121  12.573  0.00  0.00    +0.000 A 
ATOM     16  C   UNL     1       7.401   4.229  11.629  0.00  0.00    +0.000 A 
ATOM     17  C   UNL     1       6.322   3.410  11.954  0.00  0.00    +0.000 A 
ATOM     18  C   UNL     1       5.736   3.492  13.220  0.00  0.00    +0.000 A 
ENDBRANCH  12  13
ENDBRANCH   8  11
ENDBRANCH   1   9
BRANCH   5  19
ATOM     19  C   UNL     1       1.669   7.760  20.434  0.00  0.00    +0.000 C 
ATOM     20  O   UNL     1       1.698   8.574  19.518  0.00  0.00    +0.000 OA
ATOM     21  N   UNL     1       1.298   8.066  21.734  0.00  0.00    +0.000 N 
ATOM     22  H   UNL     1       1.143   7.315  22.393  0.00  0.00    +0.000 HD
BRANCH  21  23
ATOM     23  C   UNL     1       0.961   9.390  22.157  0.00  0.00    +0.000 C 
ATOM     24  C   UNL     1      -0.428   9.932  21.942  0.00  0.00    +0.000 C 
ATOM     25  C   UNL     1       0.039   9.602  23.328  0.00  0.00    +0.000 C 
ENDBRANCH  21  23
ENDBRANCH   5  19
TORSDOF 5
ENDMDL
MODEL 9
REMARK VINA RESULT:      -7.9      4.838      7.365
REMARK  Name = 
REMARK  5 active torsions:
REMARK  status: ('A' for Active; 'I' for Inactive)
REMARK    1  A    between atoms: C_2  and  C_3
REMARK    2  A    between atoms: C_4  and  C_5
REMARK    3  A    between atoms: N_11  and  C_12
REMARK    4  A    between atoms: C_16  and  C_17
REMARK    5  A    between atoms: N_19  and  C_20
REMARK                            x       y       z     vdW  Elec       q    Type
REMARK                         _______ _______ _______ _____ _____    ______ ____
ROOT
ATOM      1  C   UNL     1       5.356   6.276  17.275  0.00  0.00    +0.000 A 
ATOM      2  C   UNL     1       6.157   5.658  18.242  0.00  0.00    +0.000 A 
ATOM      3  C   UNL     1       7.147   4.746  17.877  0.00  0.00    +0.000 A 
ATOM      4  C   UNL     1       7.361   4.445  16.536  0.00  0.00    +0.000 A 
ATOM      5  C   UNL     1       6.594   5.073  15.548  0.00  0.00    +0.000 A 
ATOM      6  C   UNL     1       5.575   5.969  15.923  0.00  0.00    +0.000 A 
ENDROOT
BRANCH   1   9
ATOM      7  O   UNL     1       2.675   5.671  18.373  0.00  0.00    +0.000 OA
ATOM      8  C   UNL     1       3.039   6.794  18.045  0.00  0.00    +0.000 C 
ATOM      9  N   UNL     1       4.301   7.160  17.609  0.00  0.00    +0.000 N 
ATOM     10  H   UNL     1       4.506   8.148  17.522  0.00  0.00    +0.000 HD
BRANCH   8  11
ATOM     11  C   UNL     1       2.095   7.946  18.108  0.00  0.00    +0.000 C 
ATOM     12  C   UNL     1       1.720   8.443  19.299  0.00  0.00    +0.000 C 
BRANCH  12  13
ATOM     13  C   UNL     1       0.756   9.543  19.468  0.00  0.00    +0.000 A 
ATOM     14  C   UNL     1       0.539  10.081  20.745  0.00  0.00    +0.000 A 
ATOM     15  C   UNL     1      -0.369  11.128  20.934  0.00  0.00    +0.000 A 
ATOM     16  C   UNL     1      -1.061  11.657  19.848  0.00  0.00    +0.000 A 
ATOM     17  C   UNL     1      -0.836  11.149  18.570  0.00  0.00    +0.000 A 
ATOM     18  C   UNL     1       0.073  10.105  18.380  0.00  0.00    +0.000 A 
ENDBRANCH  12  13
ENDBRANCH   8  11
ENDBRANCH   1   9
BRANCH   5  19
ATOM     19  C   UNL     1       6.810   4.777  14.099  0.00  0.00    +0.000 C 
ATOM     20  O   UNL     1       7.660   5.397  13.471  0.00  0.00    +0.000 OA
ATOM     21  N   UNL     1       6.024   3.771  13.559  0.00  0.00    +0.000 N 
ATOM     22  H   UNL     1       5.463   3.198  14.175  0.00  0.00    +0.000 HD
BRANCH  21  23
ATOM     23  C   UNL     1       6.084   3.389  12.183  0.00  0.00    +0.000 C 
ATOM     24  C   UNL     1       5.750   1.980  11.765  0.00  0.00    +0.000 C 
ATOM     25  C   UNL     1       4.821   3.104  11.416  0.00  0.00    +0.000 C 
ENDBRANCH  21  23
ENDBRANCH   5  19
TORSDOF 5
ENDMDL
