MODEL 1
REMARK VINA RESULT:      -8.1      0.000      0.000
REMARK  Name = 
REMARK  8 active torsions:
REMARK  status: ('A' for Active; 'I' for Inactive)
REMARK    1  A    between atoms: C_1  and  O_2
REMARK    2  A    between atoms: O_2  and  C_3
REMARK    3  A    between atoms: C_8  and  N_9
REMARK    4  A    between atoms: N_12  and  C_13
REMARK    5  A    between atoms: C_13  and  C_14
REMARK    6  A    between atoms: C_17  and  C_18
REMARK    7  A    between atoms: C_17  and  C_26
REMARK    8  A    between atoms: C_18  and  N_19
REMARK                            x       y       z     vdW  Elec       q    Type
REMARK                         _______ _______ _______ _____ _____    ______ ____
ROOT
ATOM      1  C   UNL     1       2.605   7.663  18.853  0.00  0.00    +0.000 C 
ATOM      2  C   UNL     1       1.997   7.022  17.635  0.00  0.00    +0.000 C 
ATOM      3  O   UNL     1       2.376   5.639  17.711  0.00  0.00    +0.000 OA
ATOM      4  C   UNL     1       3.651   5.609  18.384  0.00  0.00    +0.000 C 
ATOM      5  O   UNL     1       3.830   6.917  19.022  0.00  0.00    +0.000 OA
ENDROOT
BRANCH   4   6
ATOM      6  C   UNL     1       4.802   5.379  17.367  0.00  0.00    +0.000 A 
ATOM      7  C   UNL     1       4.685   4.493  16.267  0.00  0.00    +0.000 A 
ATOM      8  C   UNL     1       5.764   4.238  15.398  0.00  0.00    +0.000 A 
ATOM      9  C   UNL     1       6.989   4.852  15.606  0.00  0.00    +0.000 A 
ATOM     10  C   UNL     1       7.121   5.763  16.643  0.00  0.00    +0.000 A 
ATOM     11  C   UNL     1       6.034   6.039  17.486  0.00  0.00    +0.000 A 
ENDBRANCH   4   6
BRANCH   1  12
ATOM     12  C   UNL     1       1.658   7.696  20.122  0.00  0.00    +0.000 C 
BRANCH  12  16
ATOM     13  N   UNL     1      -0.281  11.196  21.896  0.00  0.00    +0.000 N 
ATOM     14  C   UNL     1      -0.475  10.912  20.463  0.00  0.00    +0.000 C 
ATOM     15  C   UNL     1       0.751  10.098  19.879  0.00  0.00    +0.000 C 
ATOM     16  N   UNL     1       1.315   9.008  20.694  0.00  0.00    +0.000 NA
ATOM     17  C   UNL     1       1.176   9.154  22.129  0.00  0.00    +0.000 C 
ATOM     18  C   UNL     1      -0.009   9.975  22.677  0.00  0.00    +0.000 C 
BRANCH  13  24
ATOM     19  C   UNL     1      -0.722  13.488  22.931  0.00  0.00    +0.000 A 
ATOM     20  C   UNL     1      -1.632  14.274  23.682  0.00  0.00    +0.000 A 
ATOM     21  C   UNL     1      -2.889  13.793  24.053  0.00  0.00    +0.000 A 
ATOM     22  C   UNL     1      -3.240  12.502  23.718  0.00  0.00    +0.000 A 
ATOM     23  C   UNL     1      -2.327  11.697  23.036  0.00  0.00    +0.000 A 
ATOM     24  C   UNL     1      -1.053  12.147  22.599  0.00  0.00    +0.000 A 
BRANCH  19  26
ATOM     25  C   UNL     1       0.391  15.275  21.814  0.00  0.00    +0.000 C 
ATOM     26  O   UNL     1       0.473  14.018  22.493  0.00  0.00    +0.000 OA
ENDBRANCH  19  26
ENDBRANCH  13  24
ENDBRANCH  12  16
ENDBRANCH   1  12
BRANCH   4  27
ATOM     27  C   UNL     1       3.629   4.634  19.619  0.00  0.00    +0.000 C 
BRANCH  27  28
ATOM     28  N   UNL     1       2.731   3.489  19.774  0.00  0.00    +0.000 N 
ATOM     29  C   UNL     1       2.906   2.372  19.012  0.00  0.00    +0.000 C 
ATOM     30  O   UNL     1       3.923   2.007  18.458  0.00  0.00    +0.000 OA
ATOM     31  C   UNL     1       1.569   1.707  18.760  0.00  0.00    +0.000 C 
ATOM     32  C   UNL     1       0.598   2.493  19.618  0.00  0.00    +0.000 C 
ATOM     33  C   UNL     1       1.406   3.659  20.098  0.00  0.00    +0.000 C 
ATOM     34  O   UNL     1       0.900   4.647  20.618  0.00  0.00    +0.000 OA
ENDBRANCH  27  28
ENDBRANCH   4  27
TORSDOF 7
ENDMDL
MODEL 2
REMARK VINA RESULT:      -8.0      0.986      1.118
REMARK  Name = 
REMARK  8 active torsions:
REMARK  status: ('A' for Active; 'I' for Inactive)
REMARK    1  A    between atoms: C_1  and  O_2
REMARK    2  A    between atoms: O_2  and  C_3
REMARK    3  A    between atoms: C_8  and  N_9
REMARK    4  A    between atoms: N_12  and  C_13
REMARK    5  A    between atoms: C_13  and  C_14
REMARK    6  A    between atoms: C_17  and  C_18
REMARK    7  A    between atoms: C_17  and  C_26
REMARK    8  A    between atoms: C_18  and  N_19
REMARK                            x       y       z     vdW  Elec       q    Type
REMARK                         _______ _______ _______ _____ _____    ______ ____
ROOT
ATOM      1  C   UNL     1       2.546   7.925  19.321  0.00  0.00    +0.000 C 
ATOM      2  C   UNL     1       2.183   7.602  17.897  0.00  0.00    +0.000 C 
ATOM      3  O   UNL     1       2.286   6.174  17.800  0.00  0.00    +0.000 OA
ATOM      4  C   UNL     1       3.313   5.780  18.733  0.00  0.00    +0.000 C 
ATOM      5  O   UNL     1       3.537   6.921  19.629  0.00  0.00    +0.000 OA
ENDROOT
BRANCH   4   6
ATOM      6  C   UNL     1       4.634   5.454  17.988  0.00  0.00    +0.000 A 
ATOM      7  C   UNL     1       4.662   4.852  16.706  0.00  0.00    +0.000 A 
ATOM      8  C   UNL     1       5.869   4.492  16.076  0.00  0.00    +0.000 A 
ATOM      9  C   UNL     1       7.081   4.714  16.710  0.00  0.00    +0.000 A 
ATOM     10  C   UNL     1       7.092   5.347  17.944  0.00  0.00    +0.000 A 
ATOM     11  C   UNL     1       5.888   5.734  18.552  0.00  0.00    +0.000 A 
ENDBRANCH   4   6
BRANCH   1  12
ATOM     12  C   UNL     1       1.316   7.985  20.317  0.00  0.00    +0.000 C 
BRANCH  12  16
ATOM     13  N   UNL     1      -0.605  11.449  22.177  0.00  0.00    +0.000 N 
ATOM     14  C   UNL     1      -0.793  11.207  20.737  0.00  0.00    +0.000 C 
ATOM     15  C   UNL     1       0.430  10.400  20.136  0.00  0.00    +0.000 C 
ATOM     16  N   UNL     1       0.980   9.283  20.924  0.00  0.00    +0.000 NA
ATOM     17  C   UNL     1       0.834   9.390  22.362  0.00  0.00    +0.000 C 
ATOM     18  C   UNL     1      -0.347  10.205  22.925  0.00  0.00    +0.000 C 
BRANCH  13  24
ATOM     19  C   UNL     1      -1.016  13.699  23.313  0.00  0.00    +0.000 A 
ATOM     20  C   UNL     1      -1.929  14.473  24.074  0.00  0.00    +0.000 A 
ATOM     21  C   UNL     1      -3.211  14.012  24.378  0.00  0.00    +0.000 A 
ATOM     22  C   UNL     1      -3.587  12.750  23.966  0.00  0.00    +0.000 A 
ATOM     23  C   UNL     1      -2.673  11.953  23.275  0.00  0.00    +0.000 A 
ATOM     24  C   UNL     1      -1.373  12.387  22.903  0.00  0.00    +0.000 A 
BRANCH  19  26
ATOM     25  C   UNL     1       0.180  15.239  21.944  0.00  0.00    +0.000 C 
ATOM     26  O   UNL     1       0.208  14.214  22.942  0.00  0.00    +0.000 OA
ENDBRANCH  19  26
ENDBRANCH  13  24
ENDBRANCH  12  16
ENDBRANCH   1  12
BRANCH   4  27
ATOM     27  C   UNL     1       2.797   4.673  19.724  0.00  0.00    +0.000 C 
BRANCH  27  28
ATOM     28  N   UNL     1       2.729   3.241  19.429  0.00  0.00    +0.000 N 
ATOM     29  C   UNL     1       3.838   2.460  19.560  0.00  0.00    +0.000 C 
ATOM     30  O   UNL     1       4.820   2.678  20.241  0.00  0.00    +0.000 OA
ATOM     31  C   UNL     1       3.790   1.326  18.558  0.00  0.00    +0.000 C 
ATOM     32  C   UNL     1       2.418   1.449  17.928  0.00  0.00    +0.000 C 
ATOM     33  C   UNL     1       1.899   2.753  18.448  0.00  0.00    +0.000 C 
ATOM     34  O   UNL     1       0.919   3.315  17.971  0.00  0.00    +0.000 OA
ENDBRANCH  27  28
ENDBRANCH   4  27
TORSDOF 7
ENDMDL
MODEL 3
REMARK VINA RESULT:      -8.0      1.251      1.726
REMARK  Name = 
REMARK  8 active torsions:
REMARK  status: ('A' for Active; 'I' for Inactive)
REMARK    1  A    between atoms: C_1  and  O_2
REMARK    2  A    between atoms: O_2  and  C_3
REMARK    3  A    between atoms: C_8  and  N_9
REMARK    4  A    between atoms: N_12  and  C_13
REMARK    5  A    between atoms: C_13  and  C_14
REMARK    6  A    between atoms: C_17  and  C_18
REMARK    7  A    between atoms: C_17  and  C_26
REMARK    8  A    between atoms: C_18  and  N_19
REMARK                            x       y       z     vdW  Elec       q    Type
REMARK                         _______ _______ _______ _____ _____    ______ ____
ROOT
ATOM      1  C   UNL     1       2.321   8.303  19.567  0.00  0.00    +0.000 C 
ATOM      2  C   UNL     1       2.447   8.535  18.085  0.00  0.00    +0.000 C 
ATOM      3  O   UNL     1       2.272   7.241  17.489  0.00  0.00    +0.000 OA
ATOM      4  C   UNL     1       2.775   6.286  18.444  0.00  0.00    +0.000 C 
ATOM      5  O   UNL     1       2.891   6.986  19.728  0.00  0.00    +0.000 OA
ENDROOT
BRANCH   4   6
ATOM      6  C   UNL     1       4.175   5.770  18.019  0.00  0.00    +0.000 A 
ATOM      7  C   UNL     1       4.547   5.596  16.663  0.00  0.00    +0.000 A 
ATOM      8  C   UNL     1       5.794   5.055  16.295  0.00  0.00    +0.000 A 
ATOM      9  C   UNL     1       6.702   4.666  17.268  0.00  0.00    +0.000 A 
ATOM     10  C   UNL     1       6.389   4.870  18.603  0.00  0.00    +0.000 A 
ATOM     11  C   UNL     1       5.159   5.439  18.963  0.00  0.00    +0.000 A 
ENDBRANCH   4   6
BRANCH   1  12
ATOM     12  C   UNL     1       0.855   8.476  20.139  0.00  0.00    +0.000 C 
BRANCH  12  16
ATOM     13  N   UNL     1      -1.015  11.783  22.311  0.00  0.00    +0.000 N 
ATOM     14  C   UNL     1      -1.181  11.694  20.851  0.00  0.00    +0.000 C 
ATOM     15  C   UNL     1       0.032  10.920  20.191  0.00  0.00    +0.000 C 
ATOM     16  N   UNL     1       0.540   9.715  20.869  0.00  0.00    +0.000 NA
ATOM     17  C   UNL     1       0.369   9.679  22.308  0.00  0.00    +0.000 C 
ATOM     18  C   UNL     1      -0.802  10.463  22.933  0.00  0.00    +0.000 C 
BRANCH  13  24
ATOM     19  C   UNL     1      -1.421  13.952  23.597  0.00  0.00    +0.000 A 
ATOM     20  C   UNL     1      -2.321  14.663  24.431  0.00  0.00    +0.000 A 
ATOM     21  C   UNL     1      -3.586  14.165  24.743  0.00  0.00    +0.000 A 
ATOM     22  C   UNL     1      -3.958  12.925  24.265  0.00  0.00    +0.000 A 
ATOM     23  C   UNL     1      -3.055  12.187  23.498  0.00  0.00    +0.000 A 
ATOM     24  C   UNL     1      -1.773  12.662  23.117  0.00  0.00    +0.000 A 
BRANCH  19  26
ATOM     25  C   UNL     1      -0.284  15.553  22.248  0.00  0.00    +0.000 C 
ATOM     26  O   UNL     1      -0.217  14.508  23.223  0.00  0.00    +0.000 OA
ENDBRANCH  19  26
ENDBRANCH  13  24
ENDBRANCH  12  16
ENDBRANCH   1  12
BRANCH   4  27
ATOM     27  C   UNL     1       1.708   5.175  18.765  0.00  0.00    +0.000 C 
BRANCH  27  28
ATOM     28  N   UNL     1       2.011   3.775  19.067  0.00  0.00    +0.000 N 
ATOM     29  C   UNL     1       2.556   3.435  20.269  0.00  0.00    +0.000 C 
ATOM     30  O   UNL     1       2.507   4.063  21.307  0.00  0.00    +0.000 OA
ATOM     31  C   UNL     1       3.442   2.218  20.106  0.00  0.00    +0.000 C 
ATOM     32  C   UNL     1       3.214   1.785  18.672  0.00  0.00    +0.000 C 
ATOM     33  C   UNL     1       2.412   2.903  18.083  0.00  0.00    +0.000 C 
ATOM     34  O   UNL     1       2.241   3.033  16.876  0.00  0.00    +0.000 OA
ENDBRANCH  27  28
ENDBRANCH   4  27
TORSDOF 7
ENDMDL
MODEL 4
REMARK VINA RESULT:      -7.9      0.865      1.226
REMARK  Name = 
REMARK  8 active torsions:
REMARK  status: ('A' for Active; 'I' for Inactive)
REMARK    1  A    between atoms: C_1  and  O_2
REMARK    2  A    between atoms: O_2  and  C_3
REMARK    3  A    between atoms: C_8  and  N_9
REMARK    4  A    between atoms: N_12  and  C_13
REMARK    5  A    between atoms: C_13  and  C_14
REMARK    6  A    between atoms: C_17  and  C_18
REMARK    7  A    between atoms: C_17  and  C_26
REMARK    8  A    between atoms: C_18  and  N_19
REMARK                            x       y       z     vdW  Elec       q    Type
REMARK                         _______ _______ _______ _____ _____    ______ ____
ROOT
ATOM      1  C   UNL     1       2.992   7.684  19.255  0.00  0.00    +0.000 C 
ATOM      2  C   UNL     1       2.711   7.909  17.794  0.00  0.00    +0.000 C 
ATOM      3  O   UNL     1       2.523   6.596  17.243  0.00  0.00    +0.000 OA
ATOM      4  C   UNL     1       3.349   5.710  18.025  0.00  0.00    +0.000 C 
ATOM      5  O   UNL     1       3.717   6.435  19.247  0.00  0.00    +0.000 OA
ENDROOT
BRANCH   4   6
ATOM      6  C   UNL     1       4.640   5.336  17.250  0.00  0.00    +0.000 A 
ATOM      7  C   UNL     1       5.833   6.096  17.337  0.00  0.00    +0.000 A 
ATOM      8  C   UNL     1       6.972   5.789  16.568  0.00  0.00    +0.000 A 
ATOM      9  C   UNL     1       6.951   4.720  15.686  0.00  0.00    +0.000 A 
ATOM     10  C   UNL     1       5.817   3.925  15.613  0.00  0.00    +0.000 A 
ATOM     11  C   UNL     1       4.697   4.217  16.406  0.00  0.00    +0.000 A 
ENDBRANCH   4   6
BRANCH   1  12
ATOM     12  C   UNL     1       1.710   7.712  20.185  0.00  0.00    +0.000 C 
BRANCH  12  16
ATOM     13  N   UNL     1      -0.309  11.143  22.002  0.00  0.00    +0.000 N 
ATOM     14  C   UNL     1      -0.331  10.985  20.538  0.00  0.00    +0.000 C 
ATOM     15  C   UNL     1       0.928  10.165  20.039  0.00  0.00    +0.000 C 
ATOM     16  N   UNL     1       1.346   8.988  20.821  0.00  0.00    +0.000 NA
ATOM     17  C   UNL     1       1.034   9.025  22.235  0.00  0.00    +0.000 C 
ATOM     18  C   UNL     1      -0.180   9.852  22.703  0.00  0.00    +0.000 C 
BRANCH  13  24
ATOM     19  C   UNL     1      -0.858  13.428  23.001  0.00  0.00    +0.000 A 
ATOM     20  C   UNL     1      -1.808  14.184  23.733  0.00  0.00    +0.000 A 
ATOM     21  C   UNL     1      -3.047  13.654  24.099  0.00  0.00    +0.000 A 
ATOM     22  C   UNL     1      -3.339  12.344  23.779  0.00  0.00    +0.000 A 
ATOM     23  C   UNL     1      -2.385  11.570  23.117  0.00  0.00    +0.000 A 
ATOM     24  C   UNL     1      -1.127  12.070  22.685  0.00  0.00    +0.000 A 
BRANCH  19  26
ATOM     25  C   UNL     1       0.204  14.903  21.460  0.00  0.00    +0.000 C 
ATOM     26  O   UNL     1       0.317  14.004  22.567  0.00  0.00    +0.000 OA
ENDBRANCH  19  26
ENDBRANCH  13  24
ENDBRANCH  12  16
ENDBRANCH   1  12
BRANCH   4  27
ATOM     27  C   UNL     1       2.520   4.499  18.592  0.00  0.00    +0.000 C 
BRANCH  27  28
ATOM     28  N   UNL     1       2.585   4.002  19.967  0.00  0.00    +0.000 N 
ATOM     29  C   UNL     1       3.532   3.088  20.322  0.00  0.00    +0.000 C 
ATOM     30  O   UNL     1       4.592   2.870  19.770  0.00  0.00    +0.000 OA
ATOM     31  C   UNL     1       2.999   2.196  21.423  0.00  0.00    +0.000 C 
ATOM     32  C   UNL     1       1.665   2.815  21.786  0.00  0.00    +0.000 C 
ATOM     33  C   UNL     1       1.449   3.850  20.726  0.00  0.00    +0.000 C 
ATOM     34  O   UNL     1       0.366   4.393  20.539  0.00  0.00    +0.000 OA
ENDBRANCH  27  28
ENDBRANCH   4  27
TORSDOF 7
ENDMDL
MODEL 5
REMARK VINA RESULT:      -7.8      0.835      1.783
REMARK  Name = 
REMARK  8 active torsions:
REMARK  status: ('A' for Active; 'I' for Inactive)
REMARK    1  A    between atoms: C_1  and  O_2
REMARK    2  A    between atoms: O_2  and  C_3
REMARK    3  A    between atoms: C_8  and  N_9
REMARK    4  A    between atoms: N_12  and  C_13
REMARK    5  A    between atoms: C_13  and  C_14
REMARK    6  A    between atoms: C_17  and  C_18
REMARK    7  A    between atoms: C_17  and  C_26
REMARK    8  A    between atoms: C_18  and  N_19
REMARK                            x       y       z     vdW  Elec       q    Type
REMARK                         _______ _______ _______ _____ _____    ______ ____
ROOT
ATOM      1  C   UNL     1       2.971   7.485  19.448  0.00  0.00    +0.000 C 
ATOM      2  C   UNL     1       3.028   7.923  18.010  0.00  0.00    +0.000 C 
ATOM      3  O   UNL     1       2.745   6.739  17.248  0.00  0.00    +0.000 OA
ATOM      4  C   UNL     1       3.245   5.632  18.024  0.00  0.00    +0.000 C 
ATOM      5  O   UNL     1       3.473   6.132  19.385  0.00  0.00    +0.000 OA
ENDROOT
BRANCH   4   6
ATOM      6  C   UNL     1       4.587   5.116  17.442  0.00  0.00    +0.000 A 
ATOM      7  C   UNL     1       5.822   5.262  18.121  0.00  0.00    +0.000 A 
ATOM      8  C   UNL     1       7.042   4.857  17.546  0.00  0.00    +0.000 A 
ATOM      9  C   UNL     1       7.066   4.301  16.276  0.00  0.00    +0.000 A 
ATOM     10  C   UNL     1       5.870   4.097  15.606  0.00  0.00    +0.000 A 
ATOM     11  C   UNL     1       4.654   4.473  16.197  0.00  0.00    +0.000 A 
ENDBRANCH   4   6
BRANCH   1  12
ATOM     12  C   UNL     1       1.552   7.644  20.131  0.00  0.00    +0.000 C 
BRANCH  12  16
ATOM     13  N   UNL     1      -0.377  11.131  21.941  0.00  0.00    +0.000 N 
ATOM     14  C   UNL     1      -0.526  10.895  20.495  0.00  0.00    +0.000 C 
ATOM     15  C   UNL     1       0.703  10.072  19.929  0.00  0.00    +0.000 C 
ATOM     16  N   UNL     1       1.215   8.946  20.730  0.00  0.00    +0.000 NA
ATOM     17  C   UNL     1       1.029   9.053  22.163  0.00  0.00    +0.000 C 
ATOM     18  C   UNL     1      -0.157   9.882  22.694  0.00  0.00    +0.000 C 
BRANCH  13  24
ATOM     19  C   UNL     1      -0.833  13.423  22.971  0.00  0.00    +0.000 A 
ATOM     20  C   UNL     1      -1.745  14.203  23.726  0.00  0.00    +0.000 A 
ATOM     21  C   UNL     1      -2.996  13.712  24.105  0.00  0.00    +0.000 A 
ATOM     22  C   UNL     1      -3.337  12.416  23.776  0.00  0.00    +0.000 A 
ATOM     23  C   UNL     1      -2.420  11.617  23.092  0.00  0.00    +0.000 A 
ATOM     24  C   UNL     1      -1.153  12.078  22.646  0.00  0.00    +0.000 A 
BRANCH  19  26
ATOM     25  C   UNL     1       0.294  14.674  21.285  0.00  0.00    +0.000 C 
ATOM     26  O   UNL     1       0.355  13.963  22.525  0.00  0.00    +0.000 OA
ENDBRANCH  19  26
ENDBRANCH  13  24
ENDBRANCH  12  16
ENDBRANCH   1  12
BRANCH   4  27
ATOM     27  C   UNL     1       2.135   4.540  18.251  0.00  0.00    +0.000 C 
BRANCH  27  28
ATOM     28  N   UNL     1       2.071   3.626  19.392  0.00  0.00    +0.000 N 
ATOM     29  C   UNL     1       1.401   3.987  20.523  0.00  0.00    +0.000 C 
ATOM     30  O   UNL     1       0.518   4.814  20.627  0.00  0.00    +0.000 OA
ATOM     31  C   UNL     1       2.050   3.347  21.731  0.00  0.00    +0.000 C 
ATOM     32  C   UNL     1       3.097   2.423  21.142  0.00  0.00    +0.000 C 
ATOM     33  C   UNL     1       3.112   2.779  19.688  0.00  0.00    +0.000 C 
ATOM     34  O   UNL     1       4.002   2.418  18.926  0.00  0.00    +0.000 OA
ENDBRANCH  27  28
ENDBRANCH   4  27
TORSDOF 7
ENDMDL
MODEL 6
REMARK VINA RESULT:      -7.7      2.398      4.066
REMARK  Name = 
REMARK  8 active torsions:
REMARK  status: ('A' for Active; 'I' for Inactive)
REMARK    1  A    between atoms: C_1  and  O_2
REMARK    2  A    between atoms: O_2  and  C_3
REMARK    3  A    between atoms: C_8  and  N_9
REMARK    4  A    between atoms: N_12  and  C_13
REMARK    5  A    between atoms: C_13  and  C_14
REMARK    6  A    between atoms: C_17  and  C_18
REMARK    7  A    between atoms: C_17  and  C_26
REMARK    8  A    between atoms: C_18  and  N_19
REMARK                            x       y       z     vdW  Elec       q    Type
REMARK                         _______ _______ _______ _____ _____    ______ ____
ROOT
ATOM      1  C   UNL     1       1.777   7.699  18.436  0.00  0.00    +0.000 C 
ATOM      2  C   UNL     1       2.255   7.251  19.791  0.00  0.00    +0.000 C 
ATOM      3  O   UNL     1       3.581   6.747  19.571  0.00  0.00    +0.000 OA
ATOM      4  C   UNL     1       3.593   6.218  18.230  0.00  0.00    +0.000 C 
ATOM      5  O   UNL     1       2.405   6.747  17.550  0.00  0.00    +0.000 OA
ENDROOT
BRANCH   4   6
ATOM      6  C   UNL     1       3.518   4.669  18.251  0.00  0.00    +0.000 A 
ATOM      7  C   UNL     1       2.802   3.924  17.281  0.00  0.00    +0.000 A 
ATOM      8  C   UNL     1       2.679   2.523  17.358  0.00  0.00    +0.000 A 
ATOM      9  C   UNL     1       3.260   1.827  18.406  0.00  0.00    +0.000 A 
ATOM     10  C   UNL     1       4.010   2.520  19.344  0.00  0.00    +0.000 A 
ATOM     11  C   UNL     1       4.156   3.912  19.245  0.00  0.00    +0.000 A 
ENDBRANCH   4   6
BRANCH   1  12
ATOM     12  C   UNL     1       2.067   9.220  18.104  0.00  0.00    +0.000 C 
BRANCH  12  16
ATOM     13  N   UNL     1      -1.253  11.533  19.771  0.00  0.00    +0.000 N 
ATOM     14  C   UNL     1      -1.542  10.329  18.974  0.00  0.00    +0.000 C 
ATOM     15  C   UNL     1      -0.373  10.040  17.945  0.00  0.00    +0.000 C 
ATOM     16  N   UNL     1       1.016  10.205  18.406  0.00  0.00    +0.000 NA
ATOM     17  C   UNL     1       1.221  11.175  19.463  0.00  0.00    +0.000 C 
ATOM     18  C   UNL     1       0.061  11.463  20.437  0.00  0.00    +0.000 C 
BRANCH  13  24
ATOM     19  C   UNL     1      -3.552  12.572  20.169  0.00  0.00    +0.000 A 
ATOM     20  C   UNL     1      -4.374  13.268  21.091  0.00  0.00    +0.000 A 
ATOM     21  C   UNL     1      -3.955  13.537  22.395  0.00  0.00    +0.000 A 
ATOM     22  C   UNL     1      -2.688  13.155  22.787  0.00  0.00    +0.000 A 
ATOM     23  C   UNL     1      -1.846  12.528  21.867  0.00  0.00    +0.000 A 
ATOM     24  C   UNL     1      -2.235  12.195  20.543  0.00  0.00    +0.000 A 
BRANCH  19  26
ATOM     25  C   UNL     1      -5.445  12.118  18.796  0.00  0.00    +0.000 C 
ATOM     26  O   UNL     1      -4.024  12.233  18.919  0.00  0.00    +0.000 OA
ENDBRANCH  19  26
ENDBRANCH  13  24
ENDBRANCH  12  16
ENDBRANCH   1  12
BRANCH   4  27
ATOM     27  C   UNL     1       4.766   6.832  17.379  0.00  0.00    +0.000 C 
BRANCH  27  28
ATOM     28  N   UNL     1       5.988   6.125  16.993  0.00  0.00    +0.000 N 
ATOM     29  C   UNL     1       6.006   5.347  15.874  0.00  0.00    +0.000 C 
ATOM     30  O   UNL     1       5.267   5.417  14.913  0.00  0.00    +0.000 OA
ATOM     31  C   UNL     1       6.975   4.199  16.062  0.00  0.00    +0.000 C 
ATOM     32  C   UNL     1       7.652   4.500  17.384  0.00  0.00    +0.000 C 
ATOM     33  C   UNL     1       6.865   5.647  17.937  0.00  0.00    +0.000 C 
ATOM     34  O   UNL     1       6.957   6.014  19.103  0.00  0.00    +0.000 OA
ENDBRANCH  27  28
ENDBRANCH   4  27
TORSDOF 7
ENDMDL
MODEL 7
REMARK VINA RESULT:      -7.7      1.405      1.890
REMARK  Name = 
REMARK  8 active torsions:
REMARK  status: ('A' for Active; 'I' for Inactive)
REMARK    1  A    between atoms: C_1  and  O_2
REMARK    2  A    between atoms: O_2  and  C_3
REMARK    3  A    between atoms: C_8  and  N_9
REMARK    4  A    between atoms: N_12  and  C_13
REMARK    5  A    between atoms: C_13  and  C_14
REMARK    6  A    between atoms: C_17  and  C_18
REMARK    7  A    between atoms: C_17  and  C_26
REMARK    8  A    between atoms: C_18  and  N_19
REMARK                            x       y       z     vdW  Elec       q    Type
REMARK                         _______ _______ _______ _____ _____    ______ ____
ROOT
ATOM      1  C   UNL     1       2.913   7.233  18.656  0.00  0.00    +0.000 C 
ATOM      2  C   UNL     1       2.220   6.452  17.572  0.00  0.00    +0.000 C 
ATOM      3  O   UNL     1       2.724   5.114  17.696  0.00  0.00    +0.000 OA
ATOM      4  C   UNL     1       4.069   5.236  18.201  0.00  0.00    +0.000 C 
ATOM      5  O   UNL     1       4.210   6.601  18.719  0.00  0.00    +0.000 OA
ENDROOT
BRANCH   4   6
ATOM      6  C   UNL     1       5.104   5.016  17.066  0.00  0.00    +0.000 A 
ATOM      7  C   UNL     1       6.387   5.616  17.072  0.00  0.00    +0.000 A 
ATOM      8  C   UNL     1       7.285   5.468  15.998  0.00  0.00    +0.000 A 
ATOM      9  C   UNL     1       6.927   4.725  14.885  0.00  0.00    +0.000 A 
ATOM     10  C   UNL     1       5.699   4.082  14.868  0.00  0.00    +0.000 A 
ATOM     11  C   UNL     1       4.820   4.205  15.955  0.00  0.00    +0.000 A 
ENDBRANCH   4   6
BRANCH   1  12
ATOM     12  C   UNL     1       2.126   7.294  20.029  0.00  0.00    +0.000 C 
BRANCH  12  16
ATOM     13  N   UNL     1      -0.478  10.659  21.054  0.00  0.00    +0.000 N 
ATOM     14  C   UNL     1      -0.228  10.346  19.636  0.00  0.00    +0.000 C 
ATOM     15  C   UNL     1       1.167   9.619  19.457  0.00  0.00    +0.000 C 
ATOM     16  N   UNL     1       1.544   8.584  20.435  0.00  0.00    +0.000 NA
ATOM     17  C   UNL     1       0.985   8.735  21.763  0.00  0.00    +0.000 C 
ATOM     18  C   UNL     1      -0.361   9.471  21.919  0.00  0.00    +0.000 C 
BRANCH  13  24
ATOM     19  C   UNL     1      -2.359  12.345  20.679  0.00  0.00    +0.000 A 
ATOM     20  C   UNL     1      -3.283  13.221  21.304  0.00  0.00    +0.000 A 
ATOM     21  C   UNL     1      -3.413  13.286  22.692  0.00  0.00    +0.000 A 
ATOM     22  C   UNL     1      -2.589  12.510  23.482  0.00  0.00    +0.000 A 
ATOM     23  C   UNL     1      -1.631  11.694  22.880  0.00  0.00    +0.000 A 
ATOM     24  C   UNL     1      -1.483  11.559  21.474  0.00  0.00    +0.000 A 
BRANCH  19  26
ATOM     25  C   UNL     1      -3.526  11.796  18.676  0.00  0.00    +0.000 C 
ATOM     26  O   UNL     1      -2.316  12.227  19.306  0.00  0.00    +0.000 OA
ENDBRANCH  19  26
ENDBRANCH  13  24
ENDBRANCH  12  16
ENDBRANCH   1  12
BRANCH   4  27
ATOM     27  C   UNL     1       4.281   4.364  19.494  0.00  0.00    +0.000 C 
BRANCH  27  28
ATOM     28  N   UNL     1       3.371   3.319  19.966  0.00  0.00    +0.000 N 
ATOM     29  C   UNL     1       3.019   2.293  19.141  0.00  0.00    +0.000 C 
ATOM     30  O   UNL     1       3.623   1.884  18.170  0.00  0.00    +0.000 OA
ATOM     31  C   UNL     1       1.619   1.822  19.475  0.00  0.00    +0.000 C 
ATOM     32  C   UNL     1       1.255   2.602  20.722  0.00  0.00    +0.000 C 
ATOM     33  C   UNL     1       2.363   3.599  20.858  0.00  0.00    +0.000 C 
ATOM     34  O   UNL     1       2.296   4.567  21.607  0.00  0.00    +0.000 OA
ENDBRANCH  27  28
ENDBRANCH   4  27
TORSDOF 7
ENDMDL
MODEL 8
REMARK VINA RESULT:      -7.7      2.652      4.890
REMARK  Name = 
REMARK  8 active torsions:
REMARK  status: ('A' for Active; 'I' for Inactive)
REMARK    1  A    between atoms: C_1  and  O_2
REMARK    2  A    between atoms: O_2  and  C_3
REMARK    3  A    between atoms: C_8  and  N_9
REMARK    4  A    between atoms: N_12  and  C_13
REMARK    5  A    between atoms: C_13  and  C_14
REMARK    6  A    between atoms: C_17  and  C_18
REMARK    7  A    between atoms: C_17  and  C_26
REMARK    8  A    between atoms: C_18  and  N_19
REMARK                            x       y       z     vdW  Elec       q    Type
REMARK                         _______ _______ _______ _____ _____    ______ ____
ROOT
ATOM      1  C   UNL     1       1.230   8.882  18.526  0.00  0.00    +0.000 C 
ATOM      2  C   UNL     1       1.448   8.471  19.957  0.00  0.00    +0.000 C 
ATOM      3  O   UNL     1       2.609   7.626  19.929  0.00  0.00    +0.000 OA
ATOM      4  C   UNL     1       2.602   6.975  18.643  0.00  0.00    +0.000 C 
ATOM      5  O   UNL     1       1.662   7.715  17.793  0.00  0.00    +0.000 OA
ENDROOT
BRANCH   4   6
ATOM      6  C   UNL     1       2.119   5.506  18.774  0.00  0.00    +0.000 A 
ATOM      7  C   UNL     1       1.744   4.932  20.014  0.00  0.00    +0.000 A 
ATOM      8  C   UNL     1       1.381   3.576  20.128  0.00  0.00    +0.000 A 
ATOM      9  C   UNL     1       1.388   2.754  19.012  0.00  0.00    +0.000 A 
ATOM     10  C   UNL     1       1.700   3.297  17.775  0.00  0.00    +0.000 A 
ATOM     11  C   UNL     1       2.030   4.656  17.661  0.00  0.00    +0.000 A 
ENDBRANCH   4   6
BRANCH   1  12
ATOM     12  C   UNL     1       1.940  10.236  18.114  0.00  0.00    +0.000 C 
BRANCH  12  16
ATOM     13  N   UNL     1       0.333  14.216  18.969  0.00  0.00    +0.000 N 
ATOM     14  C   UNL     1       1.725  14.085  18.505  0.00  0.00    +0.000 C 
ATOM     15  C   UNL     1       2.316  12.667  18.890  0.00  0.00    +0.000 C 
ATOM     16  N   UNL     1       1.453  11.485  18.723  0.00  0.00    +0.000 NA
ATOM     17  C   UNL     1       0.028  11.719  18.844  0.00  0.00    +0.000 C 
ATOM     18  C   UNL     1      -0.524  13.115  18.491  0.00  0.00    +0.000 C 
BRANCH  13  24
ATOM     19  C   UNL     1      -1.221  15.938  20.038  0.00  0.00    +0.000 A 
ATOM     20  C   UNL     1      -1.826  17.212  19.894  0.00  0.00    +0.000 A 
ATOM     21  C   UNL     1      -1.527  18.053  18.820  0.00  0.00    +0.000 A 
ATOM     22  C   UNL     1      -0.652  17.615  17.847  0.00  0.00    +0.000 A 
ATOM     23  C   UNL     1      -0.102  16.337  17.943  0.00  0.00    +0.000 A 
ATOM     24  C   UNL     1      -0.339  15.458  19.033  0.00  0.00    +0.000 A 
BRANCH  19  26
ATOM     25  C   UNL     1      -2.706  14.469  21.183  0.00  0.00    +0.000 C 
ATOM     26  O   UNL     1      -1.457  15.168  21.156  0.00  0.00    +0.000 OA
ENDBRANCH  19  26
ENDBRANCH  13  24
ENDBRANCH  12  16
ENDBRANCH   1  12
BRANCH   4  27
ATOM     27  C   UNL     1       3.967   7.178  17.887  0.00  0.00    +0.000 C 
BRANCH  27  28
ATOM     28  N   UNL     1       4.891   6.107  17.510  0.00  0.00    +0.000 N 
ATOM     29  C   UNL     1       5.677   5.516  18.453  0.00  0.00    +0.000 C 
ATOM     30  O   UNL     1       5.489   5.473  19.652  0.00  0.00    +0.000 OA
ATOM     31  C   UNL     1       6.979   5.064  17.826  0.00  0.00    +0.000 C 
ATOM     32  C   UNL     1       6.785   5.321  16.345  0.00  0.00    +0.000 C 
ATOM     33  C   UNL     1       5.505   6.094  16.280  0.00  0.00    +0.000 C 
ATOM     34  O   UNL     1       5.143   6.694  15.275  0.00  0.00    +0.000 OA
ENDBRANCH  27  28
ENDBRANCH   4  27
TORSDOF 7
ENDMDL
MODEL 9
REMARK VINA RESULT:      -7.7      2.252      3.926
REMARK  Name = 
REMARK  8 active torsions:
REMARK  status: ('A' for Active; 'I' for Inactive)
REMARK    1  A    between atoms: C_1  and  O_2
REMARK    2  A    between atoms: O_2  and  C_3
REMARK    3  A    between atoms: C_8  and  N_9
REMARK    4  A    between atoms: N_12  and  C_13
REMARK    5  A    between atoms: C_13  and  C_14
REMARK    6  A    between atoms: C_17  and  C_18
REMARK    7  A    between atoms: C_17  and  C_26
REMARK    8  A    between atoms: C_18  and  N_19
REMARK                            x       y       z     vdW  Elec       q    Type
REMARK                         _______ _______ _______ _____ _____    ______ ____
ROOT
ATOM      1  C   UNL     1       1.771   7.730  18.373  0.00  0.00    +0.000 C 
ATOM      2  C   UNL     1       2.269   7.332  19.736  0.00  0.00    +0.000 C 
ATOM      3  O   UNL     1       3.587   6.807  19.513  0.00  0.00    +0.000 OA
ATOM      4  C   UNL     1       3.571   6.225  18.194  0.00  0.00    +0.000 C 
ATOM      5  O   UNL     1       2.375   6.738  17.515  0.00  0.00    +0.000 OA
ENDROOT
BRANCH   4   6
ATOM      6  C   UNL     1       3.481   4.678  18.278  0.00  0.00    +0.000 A 
ATOM      7  C   UNL     1       4.095   3.931  19.314  0.00  0.00    +0.000 A 
ATOM      8  C   UNL     1       4.070   2.523  19.334  0.00  0.00    +0.000 A 
ATOM      9  C   UNL     1       3.439   1.821  18.319  0.00  0.00    +0.000 A 
ATOM     10  C   UNL     1       2.785   2.523  17.318  0.00  0.00    +0.000 A 
ATOM     11  C   UNL     1       2.785   3.926  17.320  0.00  0.00    +0.000 A 
ENDBRANCH   4   6
BRANCH   1  12
ATOM     12  C   UNL     1       2.069   9.234  17.977  0.00  0.00    +0.000 C 
BRANCH  12  16
ATOM     13  N   UNL     1      -0.745  11.738  20.205  0.00  0.00    +0.000 N 
ATOM     14  C   UNL     1      -1.234  10.516  19.543  0.00  0.00    +0.000 C 
ATOM     15  C   UNL     1      -0.322  10.143  18.304  0.00  0.00    +0.000 C 
ATOM     16  N   UNL     1       1.138  10.271  18.450  0.00  0.00    +0.000 NA
ATOM     17  C   UNL     1       1.594  11.272  19.394  0.00  0.00    +0.000 C 
ATOM     18  C   UNL     1       0.678  11.642  20.578  0.00  0.00    +0.000 C 
BRANCH  13  24
ATOM     19  C   UNL     1      -2.826  12.997  20.983  0.00  0.00    +0.000 A 
ATOM     20  C   UNL     1      -3.415  13.737  22.039  0.00  0.00    +0.000 A 
ATOM     21  C   UNL     1      -2.776  13.903  23.269  0.00  0.00    +0.000 A 
ATOM     22  C   UNL     1      -1.515  13.372  23.448  0.00  0.00    +0.000 A 
ATOM     23  C   UNL     1      -0.897  12.700  22.393  0.00  0.00    +0.000 A 
ATOM     24  C   UNL     1      -1.517  12.466  21.137  0.00  0.00    +0.000 A 
BRANCH  19  26
ATOM     25  C   UNL     1      -4.884  12.368  19.961  0.00  0.00    +0.000 C 
ATOM     26  O   UNL     1      -3.517  12.764  19.813  0.00  0.00    +0.000 OA
ENDBRANCH  19  26
ENDBRANCH  13  24
ENDBRANCH  12  16
ENDBRANCH   1  12
BRANCH   4  27
ATOM     27  C   UNL     1       4.733   6.793  17.299  0.00  0.00    +0.000 C 
BRANCH  27  28
ATOM     28  N   UNL     1       5.964   6.078  16.960  0.00  0.00    +0.000 N 
ATOM     29  C   UNL     1       6.000   5.249  15.879  0.00  0.00    +0.000 C 
ATOM     30  O   UNL     1       5.273   5.270  14.907  0.00  0.00    +0.000 OA
ATOM     31  C   UNL     1       6.974   4.117  16.131  0.00  0.00    +0.000 C 
ATOM     32  C   UNL     1       7.633   4.484  17.445  0.00  0.00    +0.000 C 
ATOM     33  C   UNL     1       6.833   5.650  17.935  0.00  0.00    +0.000 C 
ATOM     34  O   UNL     1       6.909   6.070  19.084  0.00  0.00    +0.000 OA
ENDBRANCH  27  28
ENDBRANCH   4  27
TORSDOF 7
ENDMDL
