MODEL 1
REMARK VINA RESULT:      -7.5      0.000      0.000
REMARK  Name = 
REMARK  5 active torsions:
REMARK  status: ('A' for Active; 'I' for Inactive)
REMARK    1  A    between atoms: N_3  and  C_4
REMARK    2  A    between atoms: C_4  and  C_5
REMARK    3  A    between atoms: C_5  and  N_6
REMARK    4  A    between atoms: N_18  and  C_19
REMARK    5  A    between atoms: C_19  and  C_20
REMARK                            x       y       z     vdW  Elec       q    Type
REMARK                         _______ _______ _______ _____ _____    ______ ____
ROOT
ATOM      1  N   UNL     1       3.951   7.372  17.422  0.00  0.00    +0.000 NA
ATOM      2  C   UNL     1       3.384   6.366  17.996  0.00  0.00    +0.000 A 
ATOM      3  N   UNL     1       3.562   4.992  17.778  0.00  0.00    +0.000 N 
ATOM      4  C   UNL     1       2.776   4.302  18.721  0.00  0.00    +0.000 A 
ATOM      5  C   UNL     1       2.628   2.948  18.958  0.00  0.00    +0.000 A 
ATOM      6  C   UNL     1       1.813   2.551  20.024  0.00  0.00    +0.000 A 
ATOM      7  C   UNL     1       1.164   3.504  20.825  0.00  0.00    +0.000 A 
ATOM      8  C   UNL     1       1.321   4.872  20.582  0.00  0.00    +0.000 A 
ATOM      9  C   UNL     1       2.132   5.257  19.531  0.00  0.00    +0.000 A 
ATOM     10  N   UNL     1       2.469   6.521  19.043  0.00  0.00    +0.000 N 
ATOM     11  H   UNL     1       4.660   7.023  16.786  0.00  0.00    +0.000 HD
ENDROOT
BRANCH   3  12
ATOM     12  C   UNL     1       4.064   4.298  16.593  0.00  0.00    +0.000 C 
BRANCH  12  13
ATOM     13  C   UNL     1       5.603   4.117  16.544  0.00  0.00    +0.000 C 
BRANCH  13  14
ATOM     14  N   UNL     1       6.281   5.145  17.326  0.00  0.00    +0.000 NA
ATOM     15  C   UNL     1       7.078   4.621  18.448  0.00  0.00    +0.000 C 
ATOM     16  C   UNL     1       7.442   5.787  19.375  0.00  0.00    +0.000 C 
ATOM     17  O   UNL     1       8.206   6.778  18.673  0.00  0.00    +0.000 OA
ATOM     18  C   UNL     1       7.472   7.260  17.535  0.00  0.00    +0.000 C 
ATOM     19  C   UNL     1       7.087   6.114  16.578  0.00  0.00    +0.000 C 
ENDBRANCH  13  14
ENDBRANCH  12  13
ENDBRANCH   3  12
BRANCH  10  20
ATOM     20  C   UNL     1       2.425   7.721  19.866  0.00  0.00    +0.000 C 
BRANCH  20  21
ATOM     21  C   UNL     1       1.266   8.640  19.524  0.00  0.00    +0.000 A 
ATOM     22  C   UNL     1       1.000   8.919  18.167  0.00  0.00    +0.000 A 
ATOM     23  C   UNL     1       0.043   9.862  17.789  0.00  0.00    +0.000 A 
ATOM     24  C   UNL     1      -0.671  10.552  18.764  0.00  0.00    +0.000 A 
ATOM     25  C   UNL     1      -0.434  10.289  20.113  0.00  0.00    +0.000 A 
ATOM     26  C   UNL     1       0.525   9.338  20.491  0.00  0.00    +0.000 A 
ATOM     27 BR   UNL     1       0.767   9.093  22.360  0.00  0.00    +0.000 Br
ENDBRANCH  20  21
ENDBRANCH  10  20
TORSDOF 5
ENDMDL
MODEL 2
REMARK VINA RESULT:      -7.1      2.902      5.196
REMARK  Name = 
REMARK  5 active torsions:
REMARK  status: ('A' for Active; 'I' for Inactive)
REMARK    1  A    between atoms: N_3  and  C_4
REMARK    2  A    between atoms: C_4  and  C_5
REMARK    3  A    between atoms: C_5  and  N_6
REMARK    4  A    between atoms: N_18  and  C_19
REMARK    5  A    between atoms: C_19  and  C_20
REMARK                            x       y       z     vdW  Elec       q    Type
REMARK                         _______ _______ _______ _____ _____    ______ ____
ROOT
ATOM      1  N   UNL     1       1.095   9.631  17.445  0.00  0.00    +0.000 NA
ATOM      2  C   UNL     1       0.808   9.579  18.701  0.00  0.00    +0.000 A 
ATOM      3  N   UNL     1       1.435   8.871  19.735  0.00  0.00    +0.000 N 
ATOM      4  C   UNL     1       0.798   9.216  20.942  0.00  0.00    +0.000 A 
ATOM      5  C   UNL     1       1.056   8.832  22.244  0.00  0.00    +0.000 A 
ATOM      6  C   UNL     1       0.284   9.398  23.264  0.00  0.00    +0.000 A 
ATOM      7  C   UNL     1      -0.727  10.326  22.968  0.00  0.00    +0.000 A 
ATOM      8  C   UNL     1      -0.981  10.714  21.648  0.00  0.00    +0.000 A 
ATOM      9  C   UNL     1      -0.210  10.154  20.647  0.00  0.00    +0.000 A 
ATOM     10  N   UNL     1      -0.231  10.330  19.262  0.00  0.00    +0.000 N 
ATOM     11  H   UNL     1       1.950   9.109  17.287  0.00  0.00    +0.000 HD
ENDROOT
BRANCH   3  12
ATOM     12  C   UNL     1       2.274   7.675  19.664  0.00  0.00    +0.000 C 
BRANCH  12  13
ATOM     13  C   UNL     1       2.698   7.256  18.233  0.00  0.00    +0.000 C 
BRANCH  13  14
ATOM     14  N   UNL     1       3.139   5.867  18.198  0.00  0.00    +0.000 NA
ATOM     15  C   UNL     1       3.914   5.450  19.379  0.00  0.00    +0.000 C 
ATOM     16  C   UNL     1       4.600   4.114  19.068  0.00  0.00    +0.000 C 
ATOM     17  O   UNL     1       3.630   3.104  18.756  0.00  0.00    +0.000 OA
ATOM     18  C   UNL     1       2.819   3.516  17.643  0.00  0.00    +0.000 C 
ATOM     19  C   UNL     1       2.113   4.858  17.920  0.00  0.00    +0.000 C 
ENDBRANCH  13  14
ENDBRANCH  12  13
ENDBRANCH   3  12
BRANCH  10  20
ATOM     20  C   UNL     1      -0.754  11.531  18.627  0.00  0.00    +0.000 C 
BRANCH  20  21
ATOM     21  C   UNL     1      -2.145  11.347  18.047  0.00  0.00    +0.000 A 
ATOM     22  C   UNL     1      -2.278  10.712  16.795  0.00  0.00    +0.000 A 
ATOM     23  C   UNL     1      -3.510  10.636  16.142  0.00  0.00    +0.000 A 
ATOM     24  C   UNL     1      -4.640  11.198  16.729  0.00  0.00    +0.000 A 
ATOM     25  C   UNL     1      -4.536  11.824  17.971  0.00  0.00    +0.000 A 
ATOM     26  C   UNL     1      -3.300  11.894  18.628  0.00  0.00    +0.000 A 
ATOM     27 BR   UNL     1      -3.293  12.795  20.302  0.00  0.00    +0.000 Br
ENDBRANCH  20  21
ENDBRANCH  10  20
TORSDOF 5
ENDMDL
MODEL 3
REMARK VINA RESULT:      -7.1      2.752      5.131
REMARK  Name = 
REMARK  5 active torsions:
REMARK  status: ('A' for Active; 'I' for Inactive)
REMARK    1  A    between atoms: N_3  and  C_4
REMARK    2  A    between atoms: C_4  and  C_5
REMARK    3  A    between atoms: C_5  and  N_6
REMARK    4  A    between atoms: N_18  and  C_19
REMARK    5  A    between atoms: C_19  and  C_20
REMARK                            x       y       z     vdW  Elec       q    Type
REMARK                         _______ _______ _______ _____ _____    ______ ____
ROOT
ATOM      1  N   UNL     1       1.401   9.277  17.448  0.00  0.00    +0.000 NA
ATOM      2  C   UNL     1       1.068   9.292  18.694  0.00  0.00    +0.000 A 
ATOM      3  N   UNL     1       1.659   8.642  19.787  0.00  0.00    +0.000 N 
ATOM      4  C   UNL     1       0.978   9.048  20.950  0.00  0.00    +0.000 A 
ATOM      5  C   UNL     1       1.189   8.735  22.279  0.00  0.00    +0.000 A 
ATOM      6  C   UNL     1       0.379   9.352  23.238  0.00  0.00    +0.000 A 
ATOM      7  C   UNL     1      -0.621  10.260  22.857  0.00  0.00    +0.000 A 
ATOM      8  C   UNL     1      -0.828  10.576  21.510  0.00  0.00    +0.000 A 
ATOM      9  C   UNL     1      -0.020   9.967  20.569  0.00  0.00    +0.000 A 
ATOM     10  N   UNL     1       0.009  10.068  19.176  0.00  0.00    +0.000 N 
ATOM     11  H   UNL     1       2.262   8.751  17.350  0.00  0.00    +0.000 HD
ENDROOT
BRANCH   3  12
ATOM     12  C   UNL     1       2.501   7.446  19.810  0.00  0.00    +0.000 C 
BRANCH  12  13
ATOM     13  C   UNL     1       1.732   6.106  19.940  0.00  0.00    +0.000 C 
BRANCH  13  14
ATOM     14  N   UNL     1       2.480   5.007  19.342  0.00  0.00    +0.000 NA
ATOM     15  C   UNL     1       2.028   4.635  17.991  0.00  0.00    +0.000 C 
ATOM     16  C   UNL     1       2.644   3.279  17.626  0.00  0.00    +0.000 C 
ATOM     17  O   UNL     1       4.077   3.346  17.645  0.00  0.00    +0.000 OA
ATOM     18  C   UNL     1       4.540   3.769  18.939  0.00  0.00    +0.000 C 
ATOM     19  C   UNL     1       3.941   5.132  19.340  0.00  0.00    +0.000 C 
ENDBRANCH  13  14
ENDBRANCH  12  13
ENDBRANCH   3  12
BRANCH  10  20
ATOM     20  C   UNL     1      -0.492  11.232  18.459  0.00  0.00    +0.000 C 
BRANCH  20  21
ATOM     21  C   UNL     1      -1.891  11.038  17.904  0.00  0.00    +0.000 A 
ATOM     22  C   UNL     1      -2.053  10.276  16.728  0.00  0.00    +0.000 A 
ATOM     23  C   UNL     1      -3.290  10.176  16.087  0.00  0.00    +0.000 A 
ATOM     24  C   UNL     1      -4.395  10.841  16.609  0.00  0.00    +0.000 A 
ATOM     25  C   UNL     1      -4.264  11.595  17.775  0.00  0.00    +0.000 A 
ATOM     26  C   UNL     1      -3.022  11.690  18.420  0.00  0.00    +0.000 A 
ATOM     27 BR   UNL     1      -2.975  12.767  19.986  0.00  0.00    +0.000 Br
ENDBRANCH  20  21
ENDBRANCH  10  20
TORSDOF 5
ENDMDL
MODEL 4
REMARK VINA RESULT:      -7.0      2.868      5.390
REMARK  Name = 
REMARK  5 active torsions:
REMARK  status: ('A' for Active; 'I' for Inactive)
REMARK    1  A    between atoms: N_3  and  C_4
REMARK    2  A    between atoms: C_4  and  C_5
REMARK    3  A    between atoms: C_5  and  N_6
REMARK    4  A    between atoms: N_18  and  C_19
REMARK    5  A    between atoms: C_19  and  C_20
REMARK                            x       y       z     vdW  Elec       q    Type
REMARK                         _______ _______ _______ _____ _____    ______ ____
ROOT
ATOM      1  N   UNL     1       1.163   9.529  17.454  0.00  0.00    +0.000 NA
ATOM      2  C   UNL     1       0.862   9.506  18.708  0.00  0.00    +0.000 A 
ATOM      3  N   UNL     1       1.475   8.815  19.763  0.00  0.00    +0.000 N 
ATOM      4  C   UNL     1       0.827   9.188  20.956  0.00  0.00    +0.000 A 
ATOM      5  C   UNL     1       1.069   8.830  22.269  0.00  0.00    +0.000 A 
ATOM      6  C   UNL     1       0.289   9.421  23.268  0.00  0.00    +0.000 A 
ATOM      7  C   UNL     1      -0.713  10.349  22.942  0.00  0.00    +0.000 A 
ATOM      8  C   UNL     1      -0.951  10.711  21.612  0.00  0.00    +0.000 A 
ATOM      9  C   UNL     1      -0.173  10.127  20.631  0.00  0.00    +0.000 A 
ATOM     10  N   UNL     1      -0.178  10.273  19.242  0.00  0.00    +0.000 N 
ATOM     11  H   UNL     1       2.017   9.000  17.317  0.00  0.00    +0.000 HD
ENDROOT
BRANCH   3  12
ATOM     12  C   UNL     1       2.307   7.613  19.726  0.00  0.00    +0.000 C 
BRANCH  12  13
ATOM     13  C   UNL     1       1.730   6.394  20.491  0.00  0.00    +0.000 C 
BRANCH  13  14
ATOM     14  N   UNL     1       2.382   5.156  20.081  0.00  0.00    +0.000 NA
ATOM     15  C   UNL     1       3.771   5.328  19.623  0.00  0.00    +0.000 C 
ATOM     16  C   UNL     1       4.213   4.046  18.909  0.00  0.00    +0.000 C 
ATOM     17  O   UNL     1       4.141   2.918  19.793  0.00  0.00    +0.000 OA
ATOM     18  C   UNL     1       2.806   2.767  20.303  0.00  0.00    +0.000 C 
ATOM     19  C   UNL     1       2.326   4.039  21.029  0.00  0.00    +0.000 C 
ENDBRANCH  13  14
ENDBRANCH  12  13
ENDBRANCH   3  12
BRANCH  10  20
ATOM     20  C   UNL     1      -0.687  11.464  18.577  0.00  0.00    +0.000 C 
BRANCH  20  21
ATOM     21  C   UNL     1      -2.071  11.275  17.984  0.00  0.00    +0.000 A 
ATOM     22  C   UNL     1      -2.192  10.616  16.743  0.00  0.00    +0.000 A 
ATOM     23  C   UNL     1      -3.416  10.533  16.076  0.00  0.00    +0.000 A 
ATOM     24  C   UNL     1      -4.550  11.112  16.637  0.00  0.00    +0.000 A 
ATOM     25  C   UNL     1      -4.459  11.763  17.867  0.00  0.00    +0.000 A 
ATOM     26  C   UNL     1      -3.230  11.841  18.538  0.00  0.00    +0.000 A 
ATOM     27 BR   UNL     1      -3.240  12.776  20.193  0.00  0.00    +0.000 Br
ENDBRANCH  20  21
ENDBRANCH  10  20
TORSDOF 5
ENDMDL
MODEL 5
REMARK VINA RESULT:      -6.9      2.937      5.200
REMARK  Name = 
REMARK  5 active torsions:
REMARK  status: ('A' for Active; 'I' for Inactive)
REMARK    1  A    between atoms: N_3  and  C_4
REMARK    2  A    between atoms: C_4  and  C_5
REMARK    3  A    between atoms: C_5  and  N_6
REMARK    4  A    between atoms: N_18  and  C_19
REMARK    5  A    between atoms: C_19  and  C_20
REMARK                            x       y       z     vdW  Elec       q    Type
REMARK                         _______ _______ _______ _____ _____    ______ ____
ROOT
ATOM      1  N   UNL     1       0.802   9.793  17.478  0.00  0.00    +0.000 NA
ATOM      2  C   UNL     1       0.577   9.722  18.746  0.00  0.00    +0.000 A 
ATOM      3  N   UNL     1       1.247   8.989  19.735  0.00  0.00    +0.000 N 
ATOM      4  C   UNL     1       0.674   9.318  20.978  0.00  0.00    +0.000 A 
ATOM      5  C   UNL     1       0.992   8.909  22.259  0.00  0.00    +0.000 A 
ATOM      6  C   UNL     1       0.277   9.465  23.326  0.00  0.00    +0.000 A 
ATOM      7  C   UNL     1      -0.737  10.408  23.096  0.00  0.00    +0.000 A 
ATOM      8  C   UNL     1      -1.052  10.821  21.797  0.00  0.00    +0.000 A 
ATOM      9  C   UNL     1      -0.337  10.272  20.750  0.00  0.00    +0.000 A 
ATOM     10  N   UNL     1      -0.425  10.472  19.371  0.00  0.00    +0.000 N 
ATOM     11  H   UNL     1       1.643   9.266  17.270  0.00  0.00    +0.000 HD
ENDROOT
BRANCH   3  12
ATOM     12  C   UNL     1       2.069   7.786  19.603  0.00  0.00    +0.000 C 
BRANCH  12  13
ATOM     13  C   UNL     1       2.828   7.657  18.257  0.00  0.00    +0.000 C 
BRANCH  13  14
ATOM     14  N   UNL     1       3.462   6.350  18.131  0.00  0.00    +0.000 NA
ATOM     15  C   UNL     1       2.514   5.228  18.030  0.00  0.00    +0.000 C 
ATOM     16  C   UNL     1       3.282   3.919  18.251  0.00  0.00    +0.000 C 
ATOM     17  O   UNL     1       4.314   3.759  17.267  0.00  0.00    +0.000 OA
ATOM     18  C   UNL     1       5.217   4.876  17.305  0.00  0.00    +0.000 C 
ATOM     19  C   UNL     1       4.480   6.212  17.086  0.00  0.00    +0.000 C 
ENDBRANCH  13  14
ENDBRANCH  12  13
ENDBRANCH   3  12
BRANCH  10  20
ATOM     20  C   UNL     1      -0.966  11.689  18.783  0.00  0.00    +0.000 C 
BRANCH  20  21
ATOM     21  C   UNL     1      -2.339  11.498  18.164  0.00  0.00    +0.000 A 
ATOM     22  C   UNL     1      -2.429  10.918  16.882  0.00  0.00    +0.000 A 
ATOM     23  C   UNL     1      -3.644  10.842  16.198  0.00  0.00    +0.000 A 
ATOM     24  C   UNL     1      -4.800  11.350  16.784  0.00  0.00    +0.000 A 
ATOM     25  C   UNL     1      -4.739  11.922  18.054  0.00  0.00    +0.000 A 
ATOM     26  C   UNL     1      -3.519  11.992  18.742  0.00  0.00    +0.000 A 
ATOM     27 BR   UNL     1      -3.571  12.816  20.454  0.00  0.00    +0.000 Br
ENDBRANCH  20  21
ENDBRANCH  10  20
TORSDOF 5
ENDMDL
MODEL 6
REMARK VINA RESULT:      -6.8      2.927      5.261
REMARK  Name = 
REMARK  5 active torsions:
REMARK  status: ('A' for Active; 'I' for Inactive)
REMARK    1  A    between atoms: N_3  and  C_4
REMARK    2  A    between atoms: C_4  and  C_5
REMARK    3  A    between atoms: C_5  and  N_6
REMARK    4  A    between atoms: N_18  and  C_19
REMARK    5  A    between atoms: C_19  and  C_20
REMARK                            x       y       z     vdW  Elec       q    Type
REMARK                         _______ _______ _______ _____ _____    ______ ____
ROOT
ATOM      1  N   UNL     1       0.992   9.766  17.463  0.00  0.00    +0.000 NA
ATOM      2  C   UNL     1       0.720   9.701  18.722  0.00  0.00    +0.000 A 
ATOM      3  N   UNL     1       1.325   8.939  19.731  0.00  0.00    +0.000 N 
ATOM      4  C   UNL     1       0.724   9.288  20.955  0.00  0.00    +0.000 A 
ATOM      5  C   UNL     1       0.980   8.863  22.244  0.00  0.00    +0.000 A 
ATOM      6  C   UNL     1       0.252   9.445  23.288  0.00  0.00    +0.000 A 
ATOM      7  C   UNL     1      -0.714  10.430  23.027  0.00  0.00    +0.000 A 
ATOM      8  C   UNL     1      -0.967  10.859  21.720  0.00  0.00    +0.000 A 
ATOM      9  C   UNL     1      -0.239  10.284  20.695  0.00  0.00    +0.000 A 
ATOM     10  N   UNL     1      -0.271  10.491  19.315  0.00  0.00    +0.000 N 
ATOM     11  H   UNL     1       1.817   9.205  17.282  0.00  0.00    +0.000 HD
ENDROOT
BRANCH   3  12
ATOM     12  C   UNL     1       2.101   7.703  19.622  0.00  0.00    +0.000 C 
BRANCH  12  13
ATOM     13  C   UNL     1       2.737   7.451  18.231  0.00  0.00    +0.000 C 
BRANCH  13  14
ATOM     14  N   UNL     1       3.409   6.158  18.184  0.00  0.00    +0.000 NA
ATOM     15  C   UNL     1       4.573   6.116  17.283  0.00  0.00    +0.000 C 
ATOM     16  C   UNL     1       4.966   4.650  17.061  0.00  0.00    +0.000 C 
ATOM     17  O   UNL     1       5.305   4.019  18.304  0.00  0.00    +0.000 OA
ATOM     18  C   UNL     1       4.204   4.103  19.224  0.00  0.00    +0.000 C 
ATOM     19  C   UNL     1       3.780   5.564  19.472  0.00  0.00    +0.000 C 
ENDBRANCH  13  14
ENDBRANCH  12  13
ENDBRANCH   3  12
BRANCH  10  20
ATOM     20  C   UNL     1      -0.740  11.731  18.714  0.00  0.00    +0.000 C 
BRANCH  20  21
ATOM     21  C   UNL     1      -2.252  11.868  18.725  0.00  0.00    +0.000 A 
ATOM     22  C   UNL     1      -2.855  12.626  19.750  0.00  0.00    +0.000 A 
ATOM     23  C   UNL     1      -4.242  12.678  19.901  0.00  0.00    +0.000 A 
ATOM     24  C   UNL     1      -5.060  11.966  19.028  0.00  0.00    +0.000 A 
ATOM     25  C   UNL     1      -4.489  11.215  18.001  0.00  0.00    +0.000 A 
ATOM     26  C   UNL     1      -3.096  11.169  17.848  0.00  0.00    +0.000 A 
ATOM     27 BR   UNL     1      -2.448  10.090  16.423  0.00  0.00    +0.000 Br
ENDBRANCH  20  21
ENDBRANCH  10  20
TORSDOF 5
ENDMDL
MODEL 7
REMARK VINA RESULT:      -6.8      3.018      5.382
REMARK  Name = 
REMARK  5 active torsions:
REMARK  status: ('A' for Active; 'I' for Inactive)
REMARK    1  A    between atoms: N_3  and  C_4
REMARK    2  A    between atoms: C_4  and  C_5
REMARK    3  A    between atoms: C_5  and  N_6
REMARK    4  A    between atoms: N_18  and  C_19
REMARK    5  A    between atoms: C_19  and  C_20
REMARK                            x       y       z     vdW  Elec       q    Type
REMARK                         _______ _______ _______ _____ _____    ______ ____
ROOT
ATOM      1  N   UNL     1       1.040   9.774  17.494  0.00  0.00    +0.000 NA
ATOM      2  C   UNL     1       0.749   9.707  18.748  0.00  0.00    +0.000 A 
ATOM      3  N   UNL     1       1.345   8.952  19.768  0.00  0.00    +0.000 N 
ATOM      4  C   UNL     1       0.720   9.297  20.981  0.00  0.00    +0.000 A 
ATOM      5  C   UNL     1       0.960   8.875  22.275  0.00  0.00    +0.000 A 
ATOM      6  C   UNL     1       0.209   9.450  23.306  0.00  0.00    +0.000 A 
ATOM      7  C   UNL     1      -0.762  10.425  23.029  0.00  0.00    +0.000 A 
ATOM      8  C   UNL     1      -0.998  10.851  21.717  0.00  0.00    +0.000 A 
ATOM      9  C   UNL     1      -0.248  10.282  20.705  0.00  0.00    +0.000 A 
ATOM     10  N   UNL     1      -0.260  10.487  19.324  0.00  0.00    +0.000 N 
ATOM     11  H   UNL     1       1.874   9.221  17.326  0.00  0.00    +0.000 HD
ENDROOT
BRANCH   3  12
ATOM     12  C   UNL     1       2.135   7.724  19.673  0.00  0.00    +0.000 C 
BRANCH  12  13
ATOM     13  C   UNL     1       2.572   7.338  18.237  0.00  0.00    +0.000 C 
BRANCH  13  14
ATOM     14  N   UNL     1       3.083   5.973  18.190  0.00  0.00    +0.000 NA
ATOM     15  C   UNL     1       2.051   4.951  17.949  0.00  0.00    +0.000 C 
ATOM     16  C   UNL     1       2.645   3.572  18.265  0.00  0.00    +0.000 C 
ATOM     17  O   UNL     1       3.781   3.304  17.432  0.00  0.00    +0.000 OA
ATOM     18  C   UNL     1       4.779   4.324  17.603  0.00  0.00    +0.000 C 
ATOM     19  C   UNL     1       4.217   5.726  17.295  0.00  0.00    +0.000 C 
ENDBRANCH  13  14
ENDBRANCH  12  13
ENDBRANCH   3  12
BRANCH  10  20
ATOM     20  C   UNL     1      -0.731  11.722  18.714  0.00  0.00    +0.000 C 
BRANCH  20  21
ATOM     21  C   UNL     1      -2.243  11.857  18.726  0.00  0.00    +0.000 A 
ATOM     22  C   UNL     1      -2.849  12.593  19.766  0.00  0.00    +0.000 A 
ATOM     23  C   UNL     1      -4.236  12.639  19.917  0.00  0.00    +0.000 A 
ATOM     24  C   UNL     1      -5.052  11.945  19.027  0.00  0.00    +0.000 A 
ATOM     25  C   UNL     1      -4.478  11.217  17.985  0.00  0.00    +0.000 A 
ATOM     26  C   UNL     1      -3.085  11.176  17.833  0.00  0.00    +0.000 A 
ATOM     27 BR   UNL     1      -2.433  10.129  16.386  0.00  0.00    +0.000 Br
ENDBRANCH  20  21
ENDBRANCH  10  20
TORSDOF 5
ENDMDL
MODEL 8
REMARK VINA RESULT:      -6.8      2.199      2.724
REMARK  Name = 
REMARK  5 active torsions:
REMARK  status: ('A' for Active; 'I' for Inactive)
REMARK    1  A    between atoms: N_3  and  C_4
REMARK    2  A    between atoms: C_4  and  C_5
REMARK    3  A    between atoms: C_5  and  N_6
REMARK    4  A    between atoms: N_18  and  C_19
REMARK    5  A    between atoms: C_19  and  C_20
REMARK                            x       y       z     vdW  Elec       q    Type
REMARK                         _______ _______ _______ _____ _____    ______ ____
ROOT
ATOM      1  N   UNL     1       4.804   6.822  17.633  0.00  0.00    +0.000 NA
ATOM      2  C   UNL     1       4.005   5.838  17.868  0.00  0.00    +0.000 A 
ATOM      3  N   UNL     1       4.077   4.504  17.442  0.00  0.00    +0.000 N 
ATOM      4  C   UNL     1       3.012   3.803  18.039  0.00  0.00    +0.000 A 
ATOM      5  C   UNL     1       2.661   2.468  17.979  0.00  0.00    +0.000 A 
ATOM      6  C   UNL     1       1.570   2.039  18.743  0.00  0.00    +0.000 A 
ATOM      7  C   UNL     1       0.853   2.943  19.542  0.00  0.00    +0.000 A 
ATOM      8  C   UNL     1       1.215   4.293  19.601  0.00  0.00    +0.000 A 
ATOM      9  C   UNL     1       2.298   4.708  18.849  0.00  0.00    +0.000 A 
ATOM     10  N   UNL     1       2.883   5.966  18.694  0.00  0.00    +0.000 N 
ATOM     11  H   UNL     1       5.604   6.473  17.117  0.00  0.00    +0.000 HD
ENDROOT
BRANCH   3  12
ATOM     12  C   UNL     1       4.777   3.934  16.291  0.00  0.00    +0.000 C 
BRANCH  12  13
ATOM     13  C   UNL     1       6.234   4.426  16.102  0.00  0.00    +0.000 C 
BRANCH  13  14
ATOM     14  N   UNL     1       6.669   4.272  14.718  0.00  0.00    +0.000 NA
ATOM     15  C   UNL     1       5.600   3.860  13.793  0.00  0.00    +0.000 C 
ATOM     16  C   UNL     1       6.242   3.405  12.477  0.00  0.00    +0.000 C 
ATOM     17  O   UNL     1       7.000   4.468  11.883  0.00  0.00    +0.000 OA
ATOM     18  C   UNL     1       8.012   4.929  12.794  0.00  0.00    +0.000 C 
ATOM     19  C   UNL     1       7.403   5.396  14.132  0.00  0.00    +0.000 C 
ENDBRANCH  13  14
ENDBRANCH  12  13
ENDBRANCH   3  12
BRANCH  10  20
ATOM     20  C   UNL     1       2.770   7.017  19.695  0.00  0.00    +0.000 C 
BRANCH  20  21
ATOM     21  C   UNL     1       1.808   8.122  19.299  0.00  0.00    +0.000 A 
ATOM     22  C   UNL     1       1.631   8.407  17.929  0.00  0.00    +0.000 A 
ATOM     23  C   UNL     1       0.872   9.498  17.502  0.00  0.00    +0.000 A 
ATOM     24  C   UNL     1       0.274  10.334  18.440  0.00  0.00    +0.000 A 
ATOM     25  C   UNL     1       0.427  10.070  19.800  0.00  0.00    +0.000 A 
ATOM     26  C   UNL     1       1.185   8.971  20.227  0.00  0.00    +0.000 A 
ATOM     27 BR   UNL     1       1.334   8.738  22.108  0.00  0.00    +0.000 Br
ENDBRANCH  20  21
ENDBRANCH  10  20
TORSDOF 5
ENDMDL
MODEL 9
REMARK VINA RESULT:      -6.7      5.800     10.200
REMARK  Name = 
REMARK  5 active torsions:
REMARK  status: ('A' for Active; 'I' for Inactive)
REMARK    1  A    between atoms: N_3  and  C_4
REMARK    2  A    between atoms: C_4  and  C_5
REMARK    3  A    between atoms: C_5  and  N_6
REMARK    4  A    between atoms: N_18  and  C_19
REMARK    5  A    between atoms: C_19  and  C_20
REMARK                            x       y       z     vdW  Elec       q    Type
REMARK                         _______ _______ _______ _____ _____    ______ ____
ROOT
ATOM      1  N   UNL     1      -0.317  13.191  21.066  0.00  0.00    +0.000 NA
ATOM      2  C   UNL     1      -1.059  12.529  20.244  0.00  0.00    +0.000 A 
ATOM      3  N   UNL     1      -2.423  12.671  19.955  0.00  0.00    +0.000 N 
ATOM      4  C   UNL     1      -2.741  11.769  18.923  0.00  0.00    +0.000 A 
ATOM      5  C   UNL     1      -3.928  11.543  18.251  0.00  0.00    +0.000 A 
ATOM      6  C   UNL     1      -3.927  10.611  17.207  0.00  0.00    +0.000 A 
ATOM      7  C   UNL     1      -2.753   9.925  16.858  0.00  0.00    +0.000 A 
ATOM      8  C   UNL     1      -1.554  10.161  17.539  0.00  0.00    +0.000 A 
ATOM      9  C   UNL     1      -1.562  11.087  18.565  0.00  0.00    +0.000 A 
ATOM     10  N   UNL     1      -0.547  11.522  19.419  0.00  0.00    +0.000 N 
ATOM     11  H   UNL     1      -0.868  13.944  21.463  0.00  0.00    +0.000 HD
ENDROOT
BRANCH   3  12
ATOM     12  C   UNL     1      -3.487  13.261  20.768  0.00  0.00    +0.000 C 
BRANCH  12  13
ATOM     13  C   UNL     1      -3.683  12.610  22.161  0.00  0.00    +0.000 C 
BRANCH  13  14
ATOM     14  N   UNL     1      -5.097  12.454  22.477  0.00  0.00    +0.000 NA
ATOM     15  C   UNL     1      -5.588  13.371  23.519  0.00  0.00    +0.000 C 
ATOM     16  C   UNL     1      -6.961  12.880  23.996  0.00  0.00    +0.000 C 
ATOM     17  O   UNL     1      -7.897  12.852  22.909  0.00  0.00    +0.000 OA
ATOM     18  C   UNL     1      -7.410  12.011  21.851  0.00  0.00    +0.000 C 
ATOM     19  C   UNL     1      -6.029  12.473  21.346  0.00  0.00    +0.000 C 
ENDBRANCH  13  14
ENDBRANCH  12  13
ENDBRANCH   3  12
BRANCH  10  20
ATOM     20  C   UNL     1       0.865  11.445  19.071  0.00  0.00    +0.000 C 
BRANCH  20  21
ATOM     21  C   UNL     1       1.417  10.032  19.114  0.00  0.00    +0.000 A 
ATOM     22  C   UNL     1       1.949   9.476  17.933  0.00  0.00    +0.000 A 
ATOM     23  C   UNL     1       2.344   8.139  17.867  0.00  0.00    +0.000 A 
ATOM     24  C   UNL     1       2.211   7.323  18.987  0.00  0.00    +0.000 A 
ATOM     25  C   UNL     1       1.696   7.850  20.171  0.00  0.00    +0.000 A 
ATOM     26  C   UNL     1       1.305   9.195  20.236  0.00  0.00    +0.000 A 
ATOM     27 BR   UNL     1       0.597   9.780  21.900  0.00  0.00    +0.000 Br
ENDBRANCH  20  21
ENDBRANCH  10  20
TORSDOF 5
ENDMDL
