MODEL 1
REMARK VINA RESULT:      -8.3      0.000      0.000
REMARK  Name = 
REMARK  7 active torsions:
REMARK  status: ('A' for Active; 'I' for Inactive)
REMARK    1  A    between atoms: C_1  and  C_2
REMARK    2  A    between atoms: C_2  and  C_3
REMARK    3  A    between atoms: C_2  and  C_4
REMARK    4  A    between atoms: C_7  and  C_8
REMARK    5  A    between atoms: C_8  and  N_9
REMARK    6  A    between atoms: N_9  and  C_10
REMARK    7  A    between atoms: C_13  and  C_14
REMARK                            x       y       z     vdW  Elec       q    Type
REMARK                         _______ _______ _______ _____ _____    ______ ____
ROOT
ATOM      1  C   UNL     1       7.229   5.367  17.457  0.00  0.00    +0.000 A 
ATOM      2  C   UNL     1       6.900   6.458  16.651  0.00  0.00    +0.000 A 
ATOM      3  C   UNL     1       7.316   7.751  16.994  0.00  0.00    +0.000 A 
ATOM      4  C   UNL     1       8.053   7.986  18.163  0.00  0.00    +0.000 A 
ATOM      5  C   UNL     1       8.292   6.906  19.021  0.00  0.00    +0.000 A 
ATOM      6  C   UNL     1       7.869   5.617  18.677  0.00  0.00    +0.000 A 
ENDROOT
BRANCH   4   7
ATOM      7  C   UNL     1       8.607   9.316  18.404  0.00  0.00    +0.000 A 
ATOM      8  N   UNL     1       9.328   9.733  19.431  0.00  0.00    +0.000 NA
ATOM      9  C   UNL     1       9.383  11.092  19.262  0.00  0.00    +0.000 A 
ATOM     10  C   UNL     1       9.943  12.097  20.061  0.00  0.00    +0.000 A 
ATOM     11  C   UNL     1       9.792  13.430  19.649  0.00  0.00    +0.000 A 
ATOM     12  C   UNL     1       9.119  13.748  18.462  0.00  0.00    +0.000 A 
ATOM     13  C   UNL     1       8.570  12.752  17.644  0.00  0.00    +0.000 A 
ATOM     14  C   UNL     1       8.722  11.449  18.099  0.00  0.00    +0.000 A 
ATOM     15  O   UNL     1       8.235  10.309  17.529  0.00  0.00    +0.000 OA
ENDBRANCH   4   7
BRANCH   1  16
ATOM     16  N   UNL     1       6.887   4.044  17.152  0.00  0.00    +0.000 N 
ATOM     17  H   UNL     1       6.909   3.467  17.992  0.00  0.00    +0.000 HD
BRANCH  16  18
ATOM     18  C   UNL     1       5.648   3.832  16.401  0.00  0.00    +0.000 C 
BRANCH  18  22
ATOM     19  C   UNL     1       2.269   3.771  19.140  0.00  0.00    +0.000 A 
ATOM     20  C   UNL     1       3.563   3.440  19.573  0.00  0.00    +0.000 A 
ATOM     21  C   UNL     1       4.639   3.425  18.679  0.00  0.00    +0.000 A 
ATOM     22  C   UNL     1       4.452   3.731  17.324  0.00  0.00    +0.000 A 
ATOM     23  C   UNL     1       3.161   4.067  16.895  0.00  0.00    +0.000 A 
ATOM     24  C   UNL     1       2.086   4.084  17.787  0.00  0.00    +0.000 A 
BRANCH  19  26
ATOM     25  C   UNL     1       1.346   2.832  21.259  0.00  0.00    +0.000 C 
ATOM     26  C   UNL     1       1.139   3.868  20.151  0.00  0.00    +0.000 C 
ATOM     27  C   UNL     1       0.961   5.265  20.754  0.00  0.00    +0.000 C 
ENDBRANCH  19  26
ENDBRANCH  18  22
ENDBRANCH  16  18
ENDBRANCH   1  16
TORSDOF 5
ENDMDL
MODEL 2
REMARK VINA RESULT:      -8.2      4.699      7.470
REMARK  Name = 
REMARK  7 active torsions:
REMARK  status: ('A' for Active; 'I' for Inactive)
REMARK    1  A    between atoms: C_1  and  C_2
REMARK    2  A    between atoms: C_2  and  C_3
REMARK    3  A    between atoms: C_2  and  C_4
REMARK    4  A    between atoms: C_7  and  C_8
REMARK    5  A    between atoms: C_8  and  N_9
REMARK    6  A    between atoms: N_9  and  C_10
REMARK    7  A    between atoms: C_13  and  C_14
REMARK                            x       y       z     vdW  Elec       q    Type
REMARK                         _______ _______ _______ _____ _____    ______ ____
ROOT
ATOM      1  C   UNL     1       4.811   5.879  18.099  0.00  0.00    +0.000 A 
ATOM      2  C   UNL     1       4.277   6.988  17.439  0.00  0.00    +0.000 A 
ATOM      3  C   UNL     1       3.205   7.700  17.992  0.00  0.00    +0.000 A 
ATOM      4  C   UNL     1       2.627   7.309  19.207  0.00  0.00    +0.000 A 
ATOM      5  C   UNL     1       3.096   6.137  19.814  0.00  0.00    +0.000 A 
ATOM      6  C   UNL     1       4.163   5.425  19.254  0.00  0.00    +0.000 A 
ENDROOT
BRANCH   4   7
ATOM      7  C   UNL     1       1.623   8.166  19.832  0.00  0.00    +0.000 A 
ATOM      8  N   UNL     1       1.050   9.253  19.342  0.00  0.00    +0.000 NA
ATOM      9  C   UNL     1       0.373   9.776  20.413  0.00  0.00    +0.000 A 
ATOM     10  C   UNL     1      -0.367  10.957  20.544  0.00  0.00    +0.000 A 
ATOM     11  C   UNL     1      -0.909  11.261  21.803  0.00  0.00    +0.000 A 
ATOM     12  C   UNL     1      -0.734  10.399  22.893  0.00  0.00    +0.000 A 
ATOM     13  C   UNL     1      -0.011   9.205  22.771  0.00  0.00    +0.000 A 
ATOM     14  C   UNL     1       0.527   8.953  21.515  0.00  0.00    +0.000 A 
ATOM     15  O   UNL     1       1.314   7.902  21.145  0.00  0.00    +0.000 OA
ENDBRANCH   4   7
BRANCH   1  16
ATOM     16  N   UNL     1       5.909   5.148  17.629  0.00  0.00    +0.000 N 
ATOM     17  H   UNL     1       5.638   4.186  17.431  0.00  0.00    +0.000 HD
BRANCH  16  18
ATOM     18  C   UNL     1       6.664   5.723  16.514  0.00  0.00    +0.000 C 
BRANCH  18  22
ATOM     19  C   UNL     1       5.884   3.650  12.770  0.00  0.00    +0.000 A 
ATOM     20  C   UNL     1       5.001   3.546  13.857  0.00  0.00    +0.000 A 
ATOM     21  C   UNL     1       5.277   4.185  15.071  0.00  0.00    +0.000 A 
ATOM     22  C   UNL     1       6.446   4.939  15.237  0.00  0.00    +0.000 A 
ATOM     23  C   UNL     1       7.323   5.046  14.150  0.00  0.00    +0.000 A 
ATOM     24  C   UNL     1       7.049   4.410  12.936  0.00  0.00    +0.000 A 
BRANCH  19  26
ATOM     25  C   UNL     1       5.970   1.561  11.408  0.00  0.00    +0.000 C 
ATOM     26  C   UNL     1       5.513   3.022  11.437  0.00  0.00    +0.000 C 
ATOM     27  C   UNL     1       4.023   3.121  11.095  0.00  0.00    +0.000 C 
ENDBRANCH  19  26
ENDBRANCH  18  22
ENDBRANCH  16  18
ENDBRANCH   1  16
TORSDOF 5
ENDMDL
MODEL 3
REMARK VINA RESULT:      -8.2      0.798      1.560
REMARK  Name = 
REMARK  7 active torsions:
REMARK  status: ('A' for Active; 'I' for Inactive)
REMARK    1  A    between atoms: C_1  and  C_2
REMARK    2  A    between atoms: C_2  and  C_3
REMARK    3  A    between atoms: C_2  and  C_4
REMARK    4  A    between atoms: C_7  and  C_8
REMARK    5  A    between atoms: C_8  and  N_9
REMARK    6  A    between atoms: N_9  and  C_10
REMARK    7  A    between atoms: C_13  and  C_14
REMARK                            x       y       z     vdW  Elec       q    Type
REMARK                         _______ _______ _______ _____ _____    ______ ____
ROOT
ATOM      1  C   UNL     1       7.258   5.338  17.304  0.00  0.00    +0.000 A 
ATOM      2  C   UNL     1       6.908   6.419  16.491  0.00  0.00    +0.000 A 
ATOM      3  C   UNL     1       7.253   7.726  16.853  0.00  0.00    +0.000 A 
ATOM      4  C   UNL     1       7.938   7.989  18.048  0.00  0.00    +0.000 A 
ATOM      5  C   UNL     1       8.195   6.916  18.909  0.00  0.00    +0.000 A 
ATOM      6  C   UNL     1       7.842   5.611  18.546  0.00  0.00    +0.000 A 
ENDROOT
BRANCH   4   7
ATOM      7  C   UNL     1       8.423   9.341  18.313  0.00  0.00    +0.000 A 
ATOM      8  N   UNL     1       8.248  10.434  17.590  0.00  0.00    +0.000 NA
ATOM      9  C   UNL     1       9.090  11.348  18.171  0.00  0.00    +0.000 A 
ATOM     10  C   UNL     1       9.403  12.665  17.814  0.00  0.00    +0.000 A 
ATOM     11  C   UNL     1      10.360  13.348  18.582  0.00  0.00    +0.000 A 
ATOM     12  C   UNL     1      10.969  12.738  19.686  0.00  0.00    +0.000 A 
ATOM     13  C   UNL     1      10.652  11.427  20.064  0.00  0.00    +0.000 A 
ATOM     14  C   UNL     1       9.718  10.780  19.266  0.00  0.00    +0.000 A 
ATOM     15  O   UNL     1       9.280   9.493  19.378  0.00  0.00    +0.000 OA
ENDBRANCH   4   7
BRANCH   1  16
ATOM     16  N   UNL     1       6.985   4.003  16.983  0.00  0.00    +0.000 N 
ATOM     17  H   UNL     1       7.156   3.401  17.787  0.00  0.00    +0.000 HD
BRANCH  16  18
ATOM     18  C   UNL     1       5.684   3.715  16.377  0.00  0.00    +0.000 C 
BRANCH  18  22
ATOM     19  C   UNL     1       2.399   3.639  19.229  0.00  0.00    +0.000 A 
ATOM     20  C   UNL     1       2.237   4.186  17.946  0.00  0.00    +0.000 A 
ATOM     21  C   UNL     1       3.307   4.242  17.046  0.00  0.00    +0.000 A 
ATOM     22  C   UNL     1       4.573   3.761  17.406  0.00  0.00    +0.000 A 
ATOM     23  C   UNL     1       4.732   3.210  18.684  0.00  0.00    +0.000 A 
ATOM     24  C   UNL     1       3.664   3.152  19.583  0.00  0.00    +0.000 A 
BRANCH  19  26
ATOM     25  C   UNL     1       1.567   2.659  21.367  0.00  0.00    +0.000 C 
ATOM     26  C   UNL     1       1.197   3.509  20.149  0.00  0.00    +0.000 C 
ATOM     27  C   UNL     1       0.605   4.851  20.594  0.00  0.00    +0.000 C 
ENDBRANCH  19  26
ENDBRANCH  18  22
ENDBRANCH  16  18
ENDBRANCH   1  16
TORSDOF 5
ENDMDL
MODEL 4
REMARK VINA RESULT:      -8.2      2.182     10.102
REMARK  Name = 
REMARK  7 active torsions:
REMARK  status: ('A' for Active; 'I' for Inactive)
REMARK    1  A    between atoms: C_1  and  C_2
REMARK    2  A    between atoms: C_2  and  C_3
REMARK    3  A    between atoms: C_2  and  C_4
REMARK    4  A    between atoms: C_7  and  C_8
REMARK    5  A    between atoms: C_8  and  N_9
REMARK    6  A    between atoms: N_9  and  C_10
REMARK    7  A    between atoms: C_13  and  C_14
REMARK                            x       y       z     vdW  Elec       q    Type
REMARK                         _______ _______ _______ _____ _____    ______ ____
ROOT
ATOM      1  C   UNL     1       7.858   8.013  17.901  0.00  0.00    +0.000 A 
ATOM      2  C   UNL     1       6.729   7.882  17.089  0.00  0.00    +0.000 A 
ATOM      3  C   UNL     1       5.895   6.763  17.201  0.00  0.00    +0.000 A 
ATOM      4  C   UNL     1       6.180   5.737  18.113  0.00  0.00    +0.000 A 
ATOM      5  C   UNL     1       7.367   5.822  18.851  0.00  0.00    +0.000 A 
ATOM      6  C   UNL     1       8.201   6.939  18.731  0.00  0.00    +0.000 A 
ENDROOT
BRANCH   4   7
ATOM      7  C   UNL     1       5.205   4.669  18.317  0.00  0.00    +0.000 A 
ATOM      8  N   UNL     1       4.746   3.795  17.437  0.00  0.00    +0.000 NA
ATOM      9  C   UNL     1       3.707   3.186  18.093  0.00  0.00    +0.000 A 
ATOM     10  C   UNL     1       2.787   2.223  17.662  0.00  0.00    +0.000 A 
ATOM     11  C   UNL     1       1.782   1.822  18.557  0.00  0.00    +0.000 A 
ATOM     12  C   UNL     1       1.714   2.352  19.851  0.00  0.00    +0.000 A 
ATOM     13  C   UNL     1       2.639   3.303  20.302  0.00  0.00    +0.000 A 
ATOM     14  C   UNL     1       3.603   3.689  19.378  0.00  0.00    +0.000 A 
ATOM     15  O   UNL     1       4.576   4.631  19.539  0.00  0.00    +0.000 OA
ENDBRANCH   4   7
BRANCH   1  16
ATOM     16  N   UNL     1       8.710   9.123  17.875  0.00  0.00    +0.000 N 
ATOM     17  H   UNL     1       8.391   9.802  17.185  0.00  0.00    +0.000 HD
BRANCH  16  18
ATOM     18  C   UNL     1       8.999   9.772  19.155  0.00  0.00    +0.000 C 
BRANCH  18  22
ATOM     19  C   UNL     1      11.556  13.260  18.687  0.00  0.00    +0.000 A 
ATOM     20  C   UNL     1      10.822  12.746  17.606  0.00  0.00    +0.000 A 
ATOM     21  C   UNL     1      10.030  11.601  17.754  0.00  0.00    +0.000 A 
ATOM     22  C   UNL     1       9.957  10.932  18.983  0.00  0.00    +0.000 A 
ATOM     23  C   UNL     1      10.686  11.451  20.062  0.00  0.00    +0.000 A 
ATOM     24  C   UNL     1      11.475  12.595  19.916  0.00  0.00    +0.000 A 
BRANCH  19  26
ATOM     25  C   UNL     1      12.101  15.120  17.115  0.00  0.00    +0.000 C 
ATOM     26  C   UNL     1      12.332  14.556  18.519  0.00  0.00    +0.000 C 
ATOM     27  C   UNL     1      12.012  15.615  19.579  0.00  0.00    +0.000 C 
ENDBRANCH  19  26
ENDBRANCH  18  22
ENDBRANCH  16  18
ENDBRANCH   1  16
TORSDOF 5
ENDMDL
MODEL 5
REMARK VINA RESULT:      -8.1      4.988      7.584
REMARK  Name = 
REMARK  7 active torsions:
REMARK  status: ('A' for Active; 'I' for Inactive)
REMARK    1  A    between atoms: C_1  and  C_2
REMARK    2  A    between atoms: C_2  and  C_3
REMARK    3  A    between atoms: C_2  and  C_4
REMARK    4  A    between atoms: C_7  and  C_8
REMARK    5  A    between atoms: C_8  and  N_9
REMARK    6  A    between atoms: N_9  and  C_10
REMARK    7  A    between atoms: C_13  and  C_14
REMARK                            x       y       z     vdW  Elec       q    Type
REMARK                         _______ _______ _______ _____ _____    ______ ____
ROOT
ATOM      1  C   UNL     1       3.690   5.414  19.222  0.00  0.00    +0.000 A 
ATOM      2  C   UNL     1       3.522   6.565  18.450  0.00  0.00    +0.000 A 
ATOM      3  C   UNL     1       2.597   7.547  18.825  0.00  0.00    +0.000 A 
ATOM      4  C   UNL     1       1.802   7.392  19.969  0.00  0.00    +0.000 A 
ATOM      5  C   UNL     1       1.899   6.192  20.682  0.00  0.00    +0.000 A 
ATOM      6  C   UNL     1       2.821   5.210  20.300  0.00  0.00    +0.000 A 
ENDROOT
BRANCH   4   7
ATOM      7  C   UNL     1       0.968   8.504  20.417  0.00  0.00    +0.000 A 
ATOM      8  N   UNL     1       0.759   9.668  19.824  0.00  0.00    +0.000 NA
ATOM      9  C   UNL     1       0.093  10.403  20.770  0.00  0.00    +0.000 A 
ATOM     10  C   UNL     1      -0.338  11.735  20.764  0.00  0.00    +0.000 A 
ATOM     11  C   UNL     1      -0.956  12.235  21.921  0.00  0.00    +0.000 A 
ATOM     12  C   UNL     1      -1.156  11.421  23.043  0.00  0.00    +0.000 A 
ATOM     13  C   UNL     1      -0.746  10.082  23.056  0.00  0.00    +0.000 A 
ATOM     14  C   UNL     1      -0.119   9.633  21.901  0.00  0.00    +0.000 A 
ATOM     15  O   UNL     1       0.423   8.402  21.676  0.00  0.00    +0.000 OA
ENDBRANCH   4   7
BRANCH   1  16
ATOM     16  N   UNL     1       4.627   4.414  18.934  0.00  0.00    +0.000 N 
ATOM     17  H   UNL     1       4.208   3.691  18.351  0.00  0.00    +0.000 HD
BRANCH  16  18
ATOM     18  C   UNL     1       5.917   4.845  18.392  0.00  0.00    +0.000 C 
BRANCH  18  22
ATOM     19  C   UNL     1       6.264   4.042  14.130  0.00  0.00    +0.000 A 
ATOM     20  C   UNL     1       7.252   4.765  14.818  0.00  0.00    +0.000 A 
ATOM     21  C   UNL     1       7.117   5.053  16.180  0.00  0.00    +0.000 A 
ATOM     22  C   UNL     1       5.985   4.633  16.894  0.00  0.00    +0.000 A 
ATOM     23  C   UNL     1       5.003   3.907  16.208  0.00  0.00    +0.000 A 
ATOM     24  C   UNL     1       5.138   3.617  14.847  0.00  0.00    +0.000 A 
BRANCH  19  26
ATOM     25  C   UNL     1       5.133   3.427  11.993  0.00  0.00    +0.000 C 
ATOM     26  C   UNL     1       6.483   3.666  12.674  0.00  0.00    +0.000 C 
ATOM     27  C   UNL     1       7.306   4.689  11.884  0.00  0.00    +0.000 C 
ENDBRANCH  19  26
ENDBRANCH  18  22
ENDBRANCH  16  18
ENDBRANCH   1  16
TORSDOF 5
ENDMDL
MODEL 6
REMARK VINA RESULT:      -8.0      2.132      9.944
REMARK  Name = 
REMARK  7 active torsions:
REMARK  status: ('A' for Active; 'I' for Inactive)
REMARK    1  A    between atoms: C_1  and  C_2
REMARK    2  A    between atoms: C_2  and  C_3
REMARK    3  A    between atoms: C_2  and  C_4
REMARK    4  A    between atoms: C_7  and  C_8
REMARK    5  A    between atoms: C_8  and  N_9
REMARK    6  A    between atoms: N_9  and  C_10
REMARK    7  A    between atoms: C_13  and  C_14
REMARK                            x       y       z     vdW  Elec       q    Type
REMARK                         _______ _______ _______ _____ _____    ______ ____
ROOT
ATOM      1  C   UNL     1       7.641   7.874  17.921  0.00  0.00    +0.000 A 
ATOM      2  C   UNL     1       6.466   7.847  17.167  0.00  0.00    +0.000 A 
ATOM      3  C   UNL     1       5.546   6.801  17.316  0.00  0.00    +0.000 A 
ATOM      4  C   UNL     1       5.789   5.746  18.207  0.00  0.00    +0.000 A 
ATOM      5  C   UNL     1       7.014   5.723  18.883  0.00  0.00    +0.000 A 
ATOM      6  C   UNL     1       7.933   6.767  18.727  0.00  0.00    +0.000 A 
ENDROOT
BRANCH   4   7
ATOM      7  C   UNL     1       4.738   4.763  18.454  0.00  0.00    +0.000 A 
ATOM      8  N   UNL     1       4.319   3.789  17.663  0.00  0.00    +0.000 NA
ATOM      9  C   UNL     1       3.186   3.328  18.284  0.00  0.00    +0.000 A 
ATOM     10  C   UNL     1       2.259   2.353  17.898  0.00  0.00    +0.000 A 
ATOM     11  C   UNL     1       1.149   2.132  18.728  0.00  0.00    +0.000 A 
ATOM     12  C   UNL     1       0.982   2.849  19.919  0.00  0.00    +0.000 A 
ATOM     13  C   UNL     1       1.912   3.815  20.326  0.00  0.00    +0.000 A 
ATOM     14  C   UNL     1       2.984   4.019  19.466  0.00  0.00    +0.000 A 
ATOM     15  O   UNL     1       3.989   4.932  19.595  0.00  0.00    +0.000 OA
ENDBRANCH   4   7
BRANCH   1  16
ATOM     16  N   UNL     1       8.583   8.908  17.858  0.00  0.00    +0.000 N 
ATOM     17  H   UNL     1       8.226   9.681  17.298  0.00  0.00    +0.000 HD
BRANCH  16  18
ATOM     18  C   UNL     1       9.132   9.388  19.127  0.00  0.00    +0.000 C 
BRANCH  18  22
ATOM     19  C   UNL     1      10.886  13.358  18.825  0.00  0.00    +0.000 A 
ATOM     20  C   UNL     1      10.498  12.826  20.065  0.00  0.00    +0.000 A 
ATOM     21  C   UNL     1       9.899  11.564  20.152  0.00  0.00    +0.000 A 
ATOM     22  C   UNL     1       9.664  10.800  19.000  0.00  0.00    +0.000 A 
ATOM     23  C   UNL     1      10.058  11.330  17.764  0.00  0.00    +0.000 A 
ATOM     24  C   UNL     1      10.658  12.589  17.676  0.00  0.00    +0.000 A 
BRANCH  19  26
ATOM     25  C   UNL     1      12.333  14.834  17.428  0.00  0.00    +0.000 C 
ATOM     26  C   UNL     1      11.616  14.690  18.772  0.00  0.00    +0.000 C 
ATOM     27  C   UNL     1      10.717  15.903  19.031  0.00  0.00    +0.000 C 
ENDBRANCH  19  26
ENDBRANCH  18  22
ENDBRANCH  16  18
ENDBRANCH   1  16
TORSDOF 5
ENDMDL
MODEL 7
REMARK VINA RESULT:      -7.9      4.944      7.828
REMARK  Name = 
REMARK  7 active torsions:
REMARK  status: ('A' for Active; 'I' for Inactive)
REMARK    1  A    between atoms: C_1  and  C_2
REMARK    2  A    between atoms: C_2  and  C_3
REMARK    3  A    between atoms: C_2  and  C_4
REMARK    4  A    between atoms: C_7  and  C_8
REMARK    5  A    between atoms: C_8  and  N_9
REMARK    6  A    between atoms: N_9  and  C_10
REMARK    7  A    between atoms: C_13  and  C_14
REMARK                            x       y       z     vdW  Elec       q    Type
REMARK                         _______ _______ _______ _____ _____    ______ ____
ROOT
ATOM      1  C   UNL     1       3.377   6.267  18.761  0.00  0.00    +0.000 A 
ATOM      2  C   UNL     1       2.649   6.484  19.933  0.00  0.00    +0.000 A 
ATOM      3  C   UNL     1       1.840   7.619  20.071  0.00  0.00    +0.000 A 
ATOM      4  C   UNL     1       1.757   8.575  19.049  0.00  0.00    +0.000 A 
ATOM      5  C   UNL     1       2.567   8.407  17.920  0.00  0.00    +0.000 A 
ATOM      6  C   UNL     1       3.379   7.274  17.789  0.00  0.00    +0.000 A 
ENDROOT
BRANCH   4   7
ATOM      7  C   UNL     1       0.782   9.658  19.159  0.00  0.00    +0.000 A 
ATOM      8  N   UNL     1       0.617  10.518  20.150  0.00  0.00    +0.000 NA
ATOM      9  C   UNL     1      -0.558  11.152  19.840  0.00  0.00    +0.000 A 
ATOM     10  C   UNL     1      -1.295  12.116  20.540  0.00  0.00    +0.000 A 
ATOM     11  C   UNL     1      -2.511  12.547  19.987  0.00  0.00    +0.000 A 
ATOM     12  C   UNL     1      -2.967  12.045  18.762  0.00  0.00    +0.000 A 
ATOM     13  C   UNL     1      -2.230  11.094  18.042  0.00  0.00    +0.000 A 
ATOM     14  C   UNL     1      -1.044  10.678  18.634  0.00  0.00    +0.000 A 
ATOM     15  O   UNL     1      -0.178   9.730  18.178  0.00  0.00    +0.000 OA
ENDBRANCH   4   7
BRANCH   1  16
ATOM     16  N   UNL     1       4.169   5.134  18.537  0.00  0.00    +0.000 N 
ATOM     17  H   UNL     1       3.721   4.513  17.865  0.00  0.00    +0.000 HD
BRANCH  16  18
ATOM     18  C   UNL     1       5.573   5.361  18.190  0.00  0.00    +0.000 C 
BRANCH  18  22
ATOM     19  C   UNL     1       6.351   4.044  14.117  0.00  0.00    +0.000 A 
ATOM     20  C   UNL     1       5.160   3.702  14.777  0.00  0.00    +0.000 A 
ATOM     21  C   UNL     1       4.932   4.097  16.100  0.00  0.00    +0.000 A 
ATOM     22  C   UNL     1       5.891   4.837  16.805  0.00  0.00    +0.000 A 
ATOM     23  C   UNL     1       7.077   5.182  16.142  0.00  0.00    +0.000 A 
ATOM     24  C   UNL     1       7.305   4.790  14.820  0.00  0.00    +0.000 A 
BRANCH  19  26
ATOM     25  C   UNL     1       5.164   3.415  12.015  0.00  0.00    +0.000 C 
ATOM     26  C   UNL     1       6.530   3.680  12.652  0.00  0.00    +0.000 C 
ATOM     27  C   UNL     1       7.304   4.725  11.841  0.00  0.00    +0.000 C 
ENDBRANCH  19  26
ENDBRANCH  18  22
ENDBRANCH  16  18
ENDBRANCH   1  16
TORSDOF 5
ENDMDL
MODEL 8
REMARK VINA RESULT:      -7.8      6.237      9.682
REMARK  Name = 
REMARK  7 active torsions:
REMARK  status: ('A' for Active; 'I' for Inactive)
REMARK    1  A    between atoms: C_1  and  C_2
REMARK    2  A    between atoms: C_2  and  C_3
REMARK    3  A    between atoms: C_2  and  C_4
REMARK    4  A    between atoms: C_7  and  C_8
REMARK    5  A    between atoms: C_8  and  N_9
REMARK    6  A    between atoms: N_9  and  C_10
REMARK    7  A    between atoms: C_13  and  C_14
REMARK                            x       y       z     vdW  Elec       q    Type
REMARK                         _______ _______ _______ _____ _____    ______ ____
ROOT
ATOM      1  C   UNL     1       0.793  10.089  19.571  0.00  0.00    +0.000 A 
ATOM      2  C   UNL     1       1.381   9.772  18.345  0.00  0.00    +0.000 A 
ATOM      3  C   UNL     1       2.008   8.535  18.152  0.00  0.00    +0.000 A 
ATOM      4  C   UNL     1       2.081   7.593  19.187  0.00  0.00    +0.000 A 
ATOM      5  C   UNL     1       1.584   7.954  20.444  0.00  0.00    +0.000 A 
ATOM      6  C   UNL     1       0.964   9.195  20.635  0.00  0.00    +0.000 A 
ENDROOT
BRANCH   4   7
ATOM      7  C   UNL     1       2.596   6.256  18.903  0.00  0.00    +0.000 A 
ATOM      8  N   UNL     1       2.674   5.634  17.738  0.00  0.00    +0.000 NA
ATOM      9  C   UNL     1       3.015   4.350  18.075  0.00  0.00    +0.000 A 
ATOM     10  C   UNL     1       3.175   3.204  17.286  0.00  0.00    +0.000 A 
ATOM     11  C   UNL     1       3.481   1.995  17.931  0.00  0.00    +0.000 A 
ATOM     12  C   UNL     1       3.641   1.938  19.321  0.00  0.00    +0.000 A 
ATOM     13  C   UNL     1       3.502   3.080  20.120  0.00  0.00    +0.000 A 
ATOM     14  C   UNL     1       3.178   4.250  19.446  0.00  0.00    +0.000 A 
ATOM     15  O   UNL     1       2.930   5.478  19.987  0.00  0.00    +0.000 OA
ENDBRANCH   4   7
BRANCH   1  16
ATOM     16  N   UNL     1       0.111  11.286  19.821  0.00  0.00    +0.000 N 
ATOM     17  H   UNL     1       0.716  11.947  20.306  0.00  0.00    +0.000 HD
BRANCH  16  18
ATOM     18  C   UNL     1      -0.556  11.922  18.683  0.00  0.00    +0.000 C 
BRANCH  18  22
ATOM     19  C   UNL     1      -4.833  11.161  18.441  0.00  0.00    +0.000 A 
ATOM     20  C   UNL     1      -4.316  12.141  19.304  0.00  0.00    +0.000 A 
ATOM     21  C   UNL     1      -2.936  12.355  19.405  0.00  0.00    +0.000 A 
ATOM     22  C   UNL     1      -2.033  11.591  18.654  0.00  0.00    +0.000 A 
ATOM     23  C   UNL     1      -2.551  10.617  17.789  0.00  0.00    +0.000 A 
ATOM     24  C   UNL     1      -3.929  10.403  17.686  0.00  0.00    +0.000 A 
BRANCH  19  26
ATOM     25  C   UNL     1      -6.839   9.867  19.164  0.00  0.00    +0.000 C 
ATOM     26  C   UNL     1      -6.337  11.014  18.285  0.00  0.00    +0.000 C 
ATOM     27  C   UNL     1      -7.122  12.297  18.582  0.00  0.00    +0.000 C 
ENDBRANCH  19  26
ENDBRANCH  18  22
ENDBRANCH  16  18
ENDBRANCH   1  16
TORSDOF 5
ENDMDL
MODEL 9
REMARK VINA RESULT:      -7.8      1.726      2.511
REMARK  Name = 
REMARK  7 active torsions:
REMARK  status: ('A' for Active; 'I' for Inactive)
REMARK    1  A    between atoms: C_1  and  C_2
REMARK    2  A    between atoms: C_2  and  C_3
REMARK    3  A    between atoms: C_2  and  C_4
REMARK    4  A    between atoms: C_7  and  C_8
REMARK    5  A    between atoms: C_8  and  N_9
REMARK    6  A    between atoms: N_9  and  C_10
REMARK    7  A    between atoms: C_13  and  C_14
REMARK                            x       y       z     vdW  Elec       q    Type
REMARK                         _______ _______ _______ _____ _____    ______ ____
ROOT
ATOM      1  C   UNL     1       6.960   5.376  17.876  0.00  0.00    +0.000 A 
ATOM      2  C   UNL     1       7.706   5.725  19.004  0.00  0.00    +0.000 A 
ATOM      3  C   UNL     1       8.254   7.008  19.128  0.00  0.00    +0.000 A 
ATOM      4  C   UNL     1       8.088   7.966  18.118  0.00  0.00    +0.000 A 
ATOM      5  C   UNL     1       7.430   7.580  16.945  0.00  0.00    +0.000 A 
ATOM      6  C   UNL     1       6.889   6.294  16.822  0.00  0.00    +0.000 A 
ENDROOT
BRANCH   4   7
ATOM      7  C   UNL     1       8.532   9.338  18.353  0.00  0.00    +0.000 A 
ATOM      8  N   UNL     1       8.376  10.397  17.577  0.00  0.00    +0.000 NA
ATOM      9  C   UNL     1       9.168  11.351  18.163  0.00  0.00    +0.000 A 
ATOM     10  C   UNL     1       9.475  12.659  17.769  0.00  0.00    +0.000 A 
ATOM     11  C   UNL     1      10.375  13.392  18.558  0.00  0.00    +0.000 A 
ATOM     12  C   UNL     1      10.936  12.841  19.717  0.00  0.00    +0.000 A 
ATOM     13  C   UNL     1      10.623  11.540  20.132  0.00  0.00    +0.000 A 
ATOM     14  C   UNL     1       9.746  10.841  19.312  0.00  0.00    +0.000 A 
ATOM     15  O   UNL     1       9.327   9.551  19.454  0.00  0.00    +0.000 OA
ENDBRANCH   4   7
BRANCH   1  16
ATOM     16  N   UNL     1       6.346   4.129  17.705  0.00  0.00    +0.000 N 
ATOM     17  H   UNL     1       6.392   3.588  18.567  0.00  0.00    +0.000 HD
BRANCH  16  18
ATOM     18  C   UNL     1       4.990   4.125  17.153  0.00  0.00    +0.000 C 
BRANCH  18  22
ATOM     19  C   UNL     1       2.572   6.914  19.455  0.00  0.00    +0.000 A 
ATOM     20  C   UNL     1       3.090   5.747  20.038  0.00  0.00    +0.000 A 
ATOM     21  C   UNL     1       3.835   4.834  19.283  0.00  0.00    +0.000 A 
ATOM     22  C   UNL     1       4.078   5.058  17.921  0.00  0.00    +0.000 A 
ATOM     23  C   UNL     1       3.565   6.227  17.341  0.00  0.00    +0.000 A 
ATOM     24  C   UNL     1       2.822   7.140  18.095  0.00  0.00    +0.000 A 
BRANCH  19  26
ATOM     25  C   UNL     1       1.283   9.050  19.444  0.00  0.00    +0.000 C 
ATOM     26  C   UNL     1       1.846   7.929  20.321  0.00  0.00    +0.000 C 
ATOM     27  C   UNL     1       0.739   7.326  21.193  0.00  0.00    +0.000 C 
ENDBRANCH  19  26
ENDBRANCH  18  22
ENDBRANCH  16  18
ENDBRANCH   1  16
TORSDOF 5
ENDMDL
