MODEL 1
REMARK VINA RESULT:      -7.3      0.000      0.000
REMARK  Name = 
REMARK  7 active torsions:
REMARK  status: ('A' for Active; 'I' for Inactive)
REMARK    1  A    between atoms: C_1  and  C_2
REMARK    2  A    between atoms: C_2  and  C_3
REMARK    3  A    between atoms: C_2  and  C_4
REMARK    4  A    between atoms: C_2  and  C_5
REMARK    5  A    between atoms: C_8  and  C_9
REMARK    6  A    between atoms: C_9  and  N_10
REMARK    7  A    between atoms: N_10  and  C_11
REMARK                            x       y       z     vdW  Elec       q    Type
REMARK                         _______ _______ _______ _____ _____    ______ ____
ROOT
ATOM      1  N   UNL     1       2.796   1.961  19.438  0.00  0.00    +0.000 NA
ATOM      2  H   UNL     1       3.321   2.427  20.184  0.00  0.00    +0.000 HD
ENDROOT
BRANCH   1   3
ATOM      3  C   UNL     1       1.436   2.503  19.299  0.00  0.00    +0.000 C 
ATOM      4  C   UNL     1       0.996   3.057  20.678  0.00  0.00    +0.000 C 
ATOM      5  C   UNL     1       1.822   4.277  21.120  0.00  0.00    +0.000 C 
ATOM      6  C   UNL     1       2.078   5.209  19.990  0.00  0.00    +0.000 A 
ATOM      7  N   UNL     1       2.613   6.411  20.011  0.00  0.00    +0.000 NA
ATOM      8  C   UNL     1       2.659   6.753  18.685  0.00  0.00    +0.000 A 
ATOM      9  N   UNL     1       2.174   5.837  17.841  0.00  0.00    +0.000 NA
ATOM     10  N   UNL     1       1.827   4.863  18.692  0.00  0.00    +0.000 N 
ATOM     11  C   UNL     1       1.240   3.622  18.251  0.00  0.00    +0.000 C 
ENDBRANCH   1   3
BRANCH   1  12
ATOM     12  C   UNL     1       3.629   2.030  18.229  0.00  0.00    +0.000 C 
BRANCH  12  16
ATOM     13  C   UNL     1       5.749   4.838  17.560  0.00  0.00    +0.000 A 
ATOM     14  C   UNL     1       5.943   4.686  18.917  0.00  0.00    +0.000 A 
ATOM     15  N   UNL     1       5.189   3.648  19.394  0.00  0.00    +0.000 NA
ATOM     16  C   UNL     1       4.576   3.188  18.319  0.00  0.00    +0.000 A 
ATOM     17  O   UNL     1       4.869   3.862  17.164  0.00  0.00    +0.000 OA
BRANCH  13  19
ATOM     18  C   UNL     1       5.150   6.545  15.863  0.00  0.00    +0.000 C 
ATOM     19  C   UNL     1       6.304   5.764  16.516  0.00  0.00    +0.000 C 
ATOM     20  C   UNL     1       7.039   4.957  15.427  0.00  0.00    +0.000 C 
ATOM     21  C   UNL     1       7.303   6.760  17.132  0.00  0.00    +0.000 C 
ENDBRANCH  13  19
ENDBRANCH  12  16
ENDBRANCH   1  12
TORSDOF 4
ENDMDL
MODEL 2
REMARK VINA RESULT:      -6.9      1.488      3.363
REMARK  Name = 
REMARK  7 active torsions:
REMARK  status: ('A' for Active; 'I' for Inactive)
REMARK    1  A    between atoms: C_1  and  C_2
REMARK    2  A    between atoms: C_2  and  C_3
REMARK    3  A    between atoms: C_2  and  C_4
REMARK    4  A    between atoms: C_2  and  C_5
REMARK    5  A    between atoms: C_8  and  C_9
REMARK    6  A    between atoms: C_9  and  N_10
REMARK    7  A    between atoms: N_10  and  C_11
REMARK                            x       y       z     vdW  Elec       q    Type
REMARK                         _______ _______ _______ _____ _____    ______ ____
ROOT
ATOM      1  N   UNL     1       1.404   5.081  19.910  0.00  0.00    +0.000 NA
ATOM      2  H   UNL     1       1.416   4.862  18.909  0.00  0.00    +0.000 HD
ENDROOT
BRANCH   1   3
ATOM      3  C   UNL     1       1.188   3.884  20.735  0.00  0.00    +0.000 C 
ATOM      4  C   UNL     1       0.412   2.847  19.882  0.00  0.00    +0.000 C 
ATOM      5  C   UNL     1       1.235   2.317  18.696  0.00  0.00    +0.000 C 
ATOM      6  C   UNL     1       2.649   2.060  19.076  0.00  0.00    +0.000 A 
ATOM      7  N   UNL     1       3.602   1.475  18.381  0.00  0.00    +0.000 NA
ATOM      8  C   UNL     1       4.694   1.585  19.201  0.00  0.00    +0.000 A 
ATOM      9  N   UNL     1       4.474   2.195  20.369  0.00  0.00    +0.000 NA
ATOM     10  N   UNL     1       3.175   2.499  20.258  0.00  0.00    +0.000 N 
ATOM     11  C   UNL     1       2.449   3.190  21.296  0.00  0.00    +0.000 C 
ENDBRANCH   1   3
BRANCH   1  12
ATOM     12  C   UNL     1       2.640   5.825  20.193  0.00  0.00    +0.000 C 
BRANCH  12  16
ATOM     13  C   UNL     1       5.554   5.630  18.121  0.00  0.00    +0.000 A 
ATOM     14  C   UNL     1       4.560   5.417  17.188  0.00  0.00    +0.000 A 
ATOM     15  N   UNL     1       3.330   5.435  17.789  0.00  0.00    +0.000 NA
ATOM     16  C   UNL     1       3.606   5.674  19.058  0.00  0.00    +0.000 A 
ATOM     17  O   UNL     1       4.940   5.806  19.335  0.00  0.00    +0.000 OA
BRANCH  13  19
ATOM     18  C   UNL     1       7.608   4.565  17.229  0.00  0.00    +0.000 C 
ATOM     19  C   UNL     1       7.051   5.737  18.055  0.00  0.00    +0.000 C 
ATOM     20  C   UNL     1       7.650   5.675  19.474  0.00  0.00    +0.000 C 
ATOM     21  C   UNL     1       7.485   7.064  17.408  0.00  0.00    +0.000 C 
ENDBRANCH  13  19
ENDBRANCH  12  16
ENDBRANCH   1  12
TORSDOF 4
ENDMDL
MODEL 3
REMARK VINA RESULT:      -6.9      0.502      1.096
REMARK  Name = 
REMARK  7 active torsions:
REMARK  status: ('A' for Active; 'I' for Inactive)
REMARK    1  A    between atoms: C_1  and  C_2
REMARK    2  A    between atoms: C_2  and  C_3
REMARK    3  A    between atoms: C_2  and  C_4
REMARK    4  A    between atoms: C_2  and  C_5
REMARK    5  A    between atoms: C_8  and  C_9
REMARK    6  A    between atoms: C_9  and  N_10
REMARK    7  A    between atoms: N_10  and  C_11
REMARK                            x       y       z     vdW  Elec       q    Type
REMARK                         _______ _______ _______ _____ _____    ______ ____
ROOT
ATOM      1  N   UNL     1       3.236   2.286  20.106  0.00  0.00    +0.000 NA
ATOM      2  H   UNL     1       3.652   2.958  20.758  0.00  0.00    +0.000 HD
ENDROOT
BRANCH   1   3
ATOM      3  C   UNL     1       1.829   2.596  19.816  0.00  0.00    +0.000 C 
ATOM      4  C   UNL     1       1.237   3.338  21.041  0.00  0.00    +0.000 C 
ATOM      5  C   UNL     1       1.869   4.723  21.261  0.00  0.00    +0.000 C 
ATOM      6  C   UNL     1       2.071   5.447  19.978  0.00  0.00    +0.000 A 
ATOM      7  N   UNL     1       2.443   6.694  19.779  0.00  0.00    +0.000 NA
ATOM      8  C   UNL     1       2.526   6.777  18.414  0.00  0.00    +0.000 A 
ATOM      9  N   UNL     1       2.216   5.658  17.752  0.00  0.00    +0.000 NA
ATOM     10  N   UNL     1       1.946   4.828  18.767  0.00  0.00    +0.000 N 
ATOM     11  C   UNL     1       1.553   3.456  18.561  0.00  0.00    +0.000 C 
ENDBRANCH   1   3
BRANCH   1  12
ATOM     12  C   UNL     1       4.124   2.229  18.936  0.00  0.00    +0.000 C 
BRANCH  12  16
ATOM     13  C   UNL     1       5.907   5.121  17.805  0.00  0.00    +0.000 A 
ATOM     14  C   UNL     1       6.081   5.228  19.169  0.00  0.00    +0.000 A 
ATOM     15  N   UNL     1       5.445   4.202  19.813  0.00  0.00    +0.000 NA
ATOM     16  C   UNL     1       4.921   3.493  18.830  0.00  0.00    +0.000 A 
ATOM     17  O   UNL     1       5.162   3.991  17.578  0.00  0.00    +0.000 OA
BRANCH  13  19
ATOM     18  C   UNL     1       7.069   4.979  15.618  0.00  0.00    +0.000 C 
ATOM     19  C   UNL     1       6.374   5.918  16.620  0.00  0.00    +0.000 C 
ATOM     20  C   UNL     1       7.378   6.998  17.070  0.00  0.00    +0.000 C 
ATOM     21  C   UNL     1       5.195   6.618  15.922  0.00  0.00    +0.000 C 
ENDBRANCH  13  19
ENDBRANCH  12  16
ENDBRANCH   1  12
TORSDOF 4
ENDMDL
MODEL 4
REMARK VINA RESULT:      -6.7      1.480      3.380
REMARK  Name = 
REMARK  7 active torsions:
REMARK  status: ('A' for Active; 'I' for Inactive)
REMARK    1  A    between atoms: C_1  and  C_2
REMARK    2  A    between atoms: C_2  and  C_3
REMARK    3  A    between atoms: C_2  and  C_4
REMARK    4  A    between atoms: C_2  and  C_5
REMARK    5  A    between atoms: C_8  and  C_9
REMARK    6  A    between atoms: C_9  and  N_10
REMARK    7  A    between atoms: N_10  and  C_11
REMARK                            x       y       z     vdW  Elec       q    Type
REMARK                         _______ _______ _______ _____ _____    ______ ____
ROOT
ATOM      1  N   UNL     1       1.438   5.058  19.715  0.00  0.00    +0.000 NA
ATOM      2  H   UNL     1       1.626   4.753  18.755  0.00  0.00    +0.000 HD
ENDROOT
BRANCH   1   3
ATOM      3  C   UNL     1       1.219   3.922  20.622  0.00  0.00    +0.000 C 
ATOM      4  C   UNL     1       0.445   2.827  19.844  0.00  0.00    +0.000 C 
ATOM      5  C   UNL     1       1.272   2.215  18.701  0.00  0.00    +0.000 C 
ATOM      6  C   UNL     1       2.685   1.986  19.103  0.00  0.00    +0.000 A 
ATOM      7  N   UNL     1       3.640   1.353  18.454  0.00  0.00    +0.000 NA
ATOM      8  C   UNL     1       4.730   1.522  19.266  0.00  0.00    +0.000 A 
ATOM      9  N   UNL     1       4.507   2.214  20.388  0.00  0.00    +0.000 NA
ATOM     10  N   UNL     1       3.208   2.509  20.252  0.00  0.00    +0.000 N 
ATOM     11  C   UNL     1       2.479   3.271  21.235  0.00  0.00    +0.000 C 
ENDBRANCH   1   3
BRANCH   1  12
ATOM     12  C   UNL     1       2.533   5.964  20.092  0.00  0.00    +0.000 C 
BRANCH  12  16
ATOM     13  C   UNL     1       5.506   5.984  18.096  0.00  0.00    +0.000 A 
ATOM     14  C   UNL     1       4.558   6.313  17.150  0.00  0.00    +0.000 A 
ATOM     15  N   UNL     1       3.311   6.344  17.713  0.00  0.00    +0.000 NA
ATOM     16  C   UNL     1       3.535   6.053  18.982  0.00  0.00    +0.000 A 
ATOM     17  O   UNL     1       4.849   5.822  19.290  0.00  0.00    +0.000 OA
BRANCH  13  19
ATOM     18  C   UNL     1       7.637   7.075  17.450  0.00  0.00    +0.000 C 
ATOM     19  C   UNL     1       6.999   5.823  18.076  0.00  0.00    +0.000 C 
ATOM     20  C   UNL     1       7.389   4.591  17.234  0.00  0.00    +0.000 C 
ATOM     21  C   UNL     1       7.556   5.628  19.498  0.00  0.00    +0.000 C 
ENDBRANCH  13  19
ENDBRANCH  12  16
ENDBRANCH   1  12
TORSDOF 4
ENDMDL
MODEL 5
REMARK VINA RESULT:      -6.6      3.151      6.096
REMARK  Name = 
REMARK  7 active torsions:
REMARK  status: ('A' for Active; 'I' for Inactive)
REMARK    1  A    between atoms: C_1  and  C_2
REMARK    2  A    between atoms: C_2  and  C_3
REMARK    3  A    between atoms: C_2  and  C_4
REMARK    4  A    between atoms: C_2  and  C_5
REMARK    5  A    between atoms: C_8  and  C_9
REMARK    6  A    between atoms: C_9  and  N_10
REMARK    7  A    between atoms: N_10  and  C_11
REMARK                            x       y       z     vdW  Elec       q    Type
REMARK                         _______ _______ _______ _____ _____    ______ ____
ROOT
ATOM      1  N   UNL     1       3.024   5.450  18.030  0.00  0.00    +0.000 NA
ATOM      2  H   UNL     1       3.481   6.016  17.308  0.00  0.00    +0.000 HD
ENDROOT
BRANCH   1   3
ATOM      3  C   UNL     1       3.697   4.158  18.228  0.00  0.00    +0.000 C 
ATOM      4  C   UNL     1       4.304   3.719  16.870  0.00  0.00    +0.000 C 
ATOM      5  C   UNL     1       5.440   4.644  16.401  0.00  0.00    +0.000 C 
ATOM      6  C   UNL     1       6.332   5.037  17.524  0.00  0.00    +0.000 A 
ATOM      7  N   UNL     1       7.475   5.688  17.486  0.00  0.00    +0.000 NA
ATOM      8  C   UNL     1       7.798   5.822  18.810  0.00  0.00    +0.000 A 
ATOM      9  N   UNL     1       6.928   5.283  19.670  0.00  0.00    +0.000 NA
ATOM     10  N   UNL     1       6.001   4.806  18.829  0.00  0.00    +0.000 N 
ATOM     11  C   UNL     1       4.820   4.116  19.288  0.00  0.00    +0.000 C 
ENDBRANCH   1   3
BRANCH   1  12
ATOM     12  C   UNL     1       2.920   6.297  19.227  0.00  0.00    +0.000 C 
BRANCH  12  16
ATOM     13  C   UNL     1       1.181   9.426  19.166  0.00  0.00    +0.000 A 
ATOM     14  C   UNL     1       1.789   9.445  17.928  0.00  0.00    +0.000 A 
ATOM     15  N   UNL     1       2.540   8.315  17.748  0.00  0.00    +0.000 NA
ATOM     16  C   UNL     1       2.356   7.637  18.865  0.00  0.00    +0.000 A 
ATOM     17  O   UNL     1       1.539   8.250  19.776  0.00  0.00    +0.000 OA
BRANCH  13  19
ATOM     18  C   UNL     1      -1.037  10.530  19.068  0.00  0.00    +0.000 C 
ATOM     19  C   UNL     1       0.249  10.353  19.894  0.00  0.00    +0.000 C 
ATOM     20  C   UNL     1       0.913  11.731  20.085  0.00  0.00    +0.000 C 
ATOM     21  C   UNL     1      -0.114   9.797  21.282  0.00  0.00    +0.000 C 
ENDBRANCH  13  19
ENDBRANCH  12  16
ENDBRANCH   1  12
TORSDOF 4
ENDMDL
MODEL 6
REMARK VINA RESULT:      -6.5      3.184      6.169
REMARK  Name = 
REMARK  7 active torsions:
REMARK  status: ('A' for Active; 'I' for Inactive)
REMARK    1  A    between atoms: C_1  and  C_2
REMARK    2  A    between atoms: C_2  and  C_3
REMARK    3  A    between atoms: C_2  and  C_4
REMARK    4  A    between atoms: C_2  and  C_5
REMARK    5  A    between atoms: C_8  and  C_9
REMARK    6  A    between atoms: C_9  and  N_10
REMARK    7  A    between atoms: N_10  and  C_11
REMARK                            x       y       z     vdW  Elec       q    Type
REMARK                         _______ _______ _______ _____ _____    ______ ____
ROOT
ATOM      1  N   UNL     1       3.222   5.638  17.706  0.00  0.00    +0.000 NA
ATOM      2  H   UNL     1       3.832   6.309  17.228  0.00  0.00    +0.000 HD
ENDROOT
BRANCH   1   3
ATOM      3  C   UNL     1       3.864   4.326  17.869  0.00  0.00    +0.000 C 
ATOM      4  C   UNL     1       4.604   3.986  16.550  0.00  0.00    +0.000 C 
ATOM      5  C   UNL     1       5.787   4.929  16.273  0.00  0.00    +0.000 C 
ATOM      6  C   UNL     1       6.562   5.221  17.507  0.00  0.00    +0.000 A 
ATOM      7  N   UNL     1       7.707   5.857  17.637  0.00  0.00    +0.000 NA
ATOM      8  C   UNL     1       7.894   5.883  18.994  0.00  0.00    +0.000 A 
ATOM      9  N   UNL     1       6.937   5.291  19.716  0.00  0.00    +0.000 NA
ATOM     10  N   UNL     1       6.099   4.894  18.750  0.00  0.00    +0.000 N 
ATOM     11  C   UNL     1       4.874   4.187  19.031  0.00  0.00    +0.000 C 
ENDBRANCH   1   3
BRANCH   1  12
ATOM     12  C   UNL     1       2.783   6.284  18.952  0.00  0.00    +0.000 C 
BRANCH  12  16
ATOM     13  C   UNL     1       1.294   9.537  19.111  0.00  0.00    +0.000 A 
ATOM     14  C   UNL     1       1.801   9.548  17.829  0.00  0.00    +0.000 A 
ATOM     15  N   UNL     1       2.446   8.371  17.559  0.00  0.00    +0.000 NA
ATOM     16  C   UNL     1       2.298   7.674  18.671  0.00  0.00    +0.000 A 
ATOM     17  O   UNL     1       1.606   8.319  19.660  0.00  0.00    +0.000 OA
BRANCH  13  19
ATOM     18  C   UNL     1       0.446  10.017  21.392  0.00  0.00    +0.000 C 
ATOM     19  C   UNL     1       0.497  10.508  19.935  0.00  0.00    +0.000 C 
ATOM     20  C   UNL     1      -0.942  10.609  19.391  0.00  0.00    +0.000 C 
ATOM     21  C   UNL     1       1.124  11.914  19.896  0.00  0.00    +0.000 C 
ENDBRANCH  13  19
ENDBRANCH  12  16
ENDBRANCH   1  12
TORSDOF 4
ENDMDL
MODEL 7
REMARK VINA RESULT:      -6.4      2.395      5.892
REMARK  Name = 
REMARK  7 active torsions:
REMARK  status: ('A' for Active; 'I' for Inactive)
REMARK    1  A    between atoms: C_1  and  C_2
REMARK    2  A    between atoms: C_2  and  C_3
REMARK    3  A    between atoms: C_2  and  C_4
REMARK    4  A    between atoms: C_2  and  C_5
REMARK    5  A    between atoms: C_8  and  C_9
REMARK    6  A    between atoms: C_9  and  N_10
REMARK    7  A    between atoms: N_10  and  C_11
REMARK                            x       y       z     vdW  Elec       q    Type
REMARK                         _______ _______ _______ _____ _____    ______ ____
ROOT
ATOM      1  N   UNL     1       4.277   6.364  17.080  0.00  0.00    +0.000 NA
ATOM      2  H   UNL     1       4.363   6.875  16.196  0.00  0.00    +0.000 HD
ENDROOT
BRANCH   1   3
ATOM      3  C   UNL     1       5.575   5.874  17.564  0.00  0.00    +0.000 C 
ATOM      4  C   UNL     1       5.451   4.349  17.812  0.00  0.00    +0.000 C 
ATOM      5  C   UNL     1       5.231   3.552  16.514  0.00  0.00    +0.000 C 
ATOM      6  C   UNL     1       6.080   4.060  15.404  0.00  0.00    +0.000 A 
ATOM      7  N   UNL     1       6.273   3.549  14.207  0.00  0.00    +0.000 NA
ATOM      8  C   UNL     1       7.083   4.473  13.603  0.00  0.00    +0.000 A 
ATOM      9  N   UNL     1       7.415   5.525  14.358  0.00  0.00    +0.000 NA
ATOM     10  N   UNL     1       6.754   5.245  15.489  0.00  0.00    +0.000 N 
ATOM     11  C   UNL     1       6.793   6.109  16.643  0.00  0.00    +0.000 C 
ENDBRANCH   1   3
BRANCH   1  12
ATOM     12  C   UNL     1       3.550   7.245  18.006  0.00  0.00    +0.000 C 
BRANCH  12  16
ATOM     13  C   UNL     1       2.022   4.616  19.898  0.00  0.00    +0.000 A 
ATOM     14  C   UNL     1       1.662   5.716  20.649  0.00  0.00    +0.000 A 
ATOM     15  N   UNL     1       2.174   6.859  20.096  0.00  0.00    +0.000 NA
ATOM     16  C   UNL     1       2.810   6.429  19.022  0.00  0.00    +0.000 A 
ATOM     17  O   UNL     1       2.760   5.073  18.835  0.00  0.00    +0.000 OA
BRANCH  13  19
ATOM     18  C   UNL     1       0.596   2.777  19.041  0.00  0.00    +0.000 C 
ATOM     19  C   UNL     1       1.746   3.143  19.994  0.00  0.00    +0.000 C 
ATOM     20  C   UNL     1       1.337   2.773  21.434  0.00  0.00    +0.000 C 
ATOM     21  C   UNL     1       2.992   2.319  19.622  0.00  0.00    +0.000 C 
ENDBRANCH  13  19
ENDBRANCH  12  16
ENDBRANCH   1  12
TORSDOF 4
ENDMDL
MODEL 8
REMARK VINA RESULT:      -6.4      2.018      5.472
REMARK  Name = 
REMARK  7 active torsions:
REMARK  status: ('A' for Active; 'I' for Inactive)
REMARK    1  A    between atoms: C_1  and  C_2
REMARK    2  A    between atoms: C_2  and  C_3
REMARK    3  A    between atoms: C_2  and  C_4
REMARK    4  A    between atoms: C_2  and  C_5
REMARK    5  A    between atoms: C_8  and  C_9
REMARK    6  A    between atoms: C_9  and  N_10
REMARK    7  A    between atoms: N_10  and  C_11
REMARK                            x       y       z     vdW  Elec       q    Type
REMARK                         _______ _______ _______ _____ _____    ______ ____
ROOT
ATOM      1  N   UNL     1       4.380   4.314  15.957  0.00  0.00    +0.000 NA
ATOM      2  H   UNL     1       3.882   4.892  16.639  0.00  0.00    +0.000 HD
ENDROOT
BRANCH   1   3
ATOM      3  C   UNL     1       5.507   5.031  15.342  0.00  0.00    +0.000 C 
ATOM      4  C   UNL     1       5.344   6.540  15.655  0.00  0.00    +0.000 C 
ATOM      5  C   UNL     1       5.495   6.857  17.153  0.00  0.00    +0.000 C 
ATOM      6  C   UNL     1       6.605   6.083  17.771  0.00  0.00    +0.000 A 
ATOM      7  N   UNL     1       7.122   6.194  18.976  0.00  0.00    +0.000 NA
ATOM      8  C   UNL     1       8.052   5.188  19.007  0.00  0.00    +0.000 A 
ATOM      9  N   UNL     1       8.150   4.465  17.887  0.00  0.00    +0.000 NA
ATOM     10  N   UNL     1       7.212   5.043  17.126  0.00  0.00    +0.000 N 
ATOM     11  C   UNL     1       6.925   4.603  15.783  0.00  0.00    +0.000 C 
ENDBRANCH   1   3
BRANCH   1  12
ATOM     12  C   UNL     1       4.730   3.061  16.643  0.00  0.00    +0.000 C 
BRANCH  12  16
ATOM     13  C   UNL     1       2.864   3.259  19.693  0.00  0.00    +0.000 A 
ATOM     14  C   UNL     1       4.152   3.187  20.183  0.00  0.00    +0.000 A 
ATOM     15  N   UNL     1       5.049   3.085  19.154  0.00  0.00    +0.000 NA
ATOM     16  C   UNL     1       4.290   3.115  18.074  0.00  0.00    +0.000 A 
ATOM     17  O   UNL     1       2.948   3.222  18.324  0.00  0.00    +0.000 OA
BRANCH  13  19
ATOM     18  C   UNL     1       1.219   4.889  20.580  0.00  0.00    +0.000 C 
ATOM     19  C   UNL     1       1.507   3.400  20.321  0.00  0.00    +0.000 C 
ATOM     20  C   UNL     1       1.463   2.642  21.664  0.00  0.00    +0.000 C 
ATOM     21  C   UNL     1       0.410   2.823  19.409  0.00  0.00    +0.000 C 
ENDBRANCH  13  19
ENDBRANCH  12  16
ENDBRANCH   1  12
TORSDOF 4
ENDMDL
MODEL 9
REMARK VINA RESULT:      -6.4      3.034      5.804
REMARK  Name = 
REMARK  7 active torsions:
REMARK  status: ('A' for Active; 'I' for Inactive)
REMARK    1  A    between atoms: C_1  and  C_2
REMARK    2  A    between atoms: C_2  and  C_3
REMARK    3  A    between atoms: C_2  and  C_4
REMARK    4  A    between atoms: C_2  and  C_5
REMARK    5  A    between atoms: C_8  and  C_9
REMARK    6  A    between atoms: C_9  and  N_10
REMARK    7  A    between atoms: N_10  and  C_11
REMARK                            x       y       z     vdW  Elec       q    Type
REMARK                         _______ _______ _______ _____ _____    ______ ____
ROOT
ATOM      1  N   UNL     1       3.290   6.020  18.580  0.00  0.00    +0.000 NA
ATOM      2  H   UNL     1       2.697   6.240  19.385  0.00  0.00    +0.000 HD
ENDROOT
BRANCH   1   3
ATOM      3  C   UNL     1       2.895   4.763  17.929  0.00  0.00    +0.000 C 
ATOM      4  C   UNL     1       4.089   3.778  18.022  0.00  0.00    +0.000 C 
ATOM      5  C   UNL     1       4.395   3.349  19.467  0.00  0.00    +0.000 C 
ATOM      6  C   UNL     1       3.152   3.089  20.240  0.00  0.00    +0.000 A 
ATOM      7  N   UNL     1       3.016   2.571  21.443  0.00  0.00    +0.000 NA
ATOM      8  C   UNL     1       1.665   2.640  21.658  0.00  0.00    +0.000 A 
ATOM      9  N   UNL     1       0.951   3.161  20.655  0.00  0.00    +0.000 NA
ATOM     10  N   UNL     1       1.919   3.450  19.776  0.00  0.00    +0.000 N 
ATOM     11  C   UNL     1       1.645   4.052  18.494  0.00  0.00    +0.000 C 
ENDBRANCH   1   3
BRANCH   1  12
ATOM     12  C   UNL     1       3.282   7.208  17.714  0.00  0.00    +0.000 C 
BRANCH  12  16
ATOM     13  C   UNL     1       1.143   9.189  19.793  0.00  0.00    +0.000 A 
ATOM     14  C   UNL     1       1.087   9.902  18.613  0.00  0.00    +0.000 A 
ATOM     15  N   UNL     1       1.872   9.310  17.660  0.00  0.00    +0.000 NA
ATOM     16  C   UNL     1       2.365   8.252  18.276  0.00  0.00    +0.000 A 
ATOM     17  O   UNL     1       1.965   8.111  19.578  0.00  0.00    +0.000 OA
BRANCH  13  19
ATOM     18  C   UNL     1      -0.561   8.233  21.320  0.00  0.00    +0.000 C 
ATOM     19  C   UNL     1       0.496   9.336  21.141  0.00  0.00    +0.000 C 
ATOM     20  C   UNL     1      -0.193  10.710  21.251  0.00  0.00    +0.000 C 
ATOM     21  C   UNL     1       1.536   9.228  22.270  0.00  0.00    +0.000 C 
ENDBRANCH  13  19
ENDBRANCH  12  16
ENDBRANCH   1  12
TORSDOF 4
ENDMDL
