MODEL 1
REMARK VINA RESULT:      -9.3      0.000      0.000
REMARK  Name = 
REMARK  7 active torsions:
REMARK  status: ('A' for Active; 'I' for Inactive)
REMARK    1  A    between atoms: C_1  and  C_2
REMARK    2  A    between atoms: C_4  and  C_5
REMARK    3  A    between atoms: C_11  and  N_12
REMARK    4  A    between atoms: C_16  and  O_17
REMARK    5  A    between atoms: O_17  and  C_18
REMARK    6  A    between atoms: C_21  and  C_22
REMARK    7  A    between atoms: C_25  and  C_26
REMARK                            x       y       z     vdW  Elec       q    Type
REMARK                         _______ _______ _______ _____ _____    ______ ____
ROOT
ATOM      1  O   UNL     1       7.254   4.905  17.546  0.00  0.00    +0.000 OA
ENDROOT
BRANCH   1   2
ATOM      2  C   UNL     1       7.614   6.208  17.806  0.00  0.00    +0.000 A 
ATOM      3  C   UNL     1       7.288   7.257  16.946  0.00  0.00    +0.000 A 
ATOM      4  C   UNL     1       7.652   8.573  17.260  0.00  0.00    +0.000 A 
ATOM      5  C   UNL     1       8.315   8.871  18.455  0.00  0.00    +0.000 A 
ATOM      6  C   UNL     1       8.621   7.796  19.320  0.00  0.00    +0.000 A 
ATOM      7  C   UNL     1       8.263   6.481  19.005  0.00  0.00    +0.000 A 
BRANCH   5   8
ATOM      8  C   UNL     1       8.721  10.274  18.870  0.00  0.00    +0.000 C 
ATOM      9  C   UNL     1       9.671  10.462  20.066  0.00  0.00    +0.000 C 
ATOM     10  C   UNL     1      10.636  11.577  19.669  0.00  0.00    +0.000 C 
ATOM     11  C   UNL     1      10.071  12.129  18.375  0.00  0.00    +0.000 C 
ATOM     12  N   UNL     1       9.413  10.951  17.755  0.00  0.00    +0.000 NA
ATOM     13  H   UNL     1      10.159  10.317  17.453  0.00  0.00    +0.000 HD
BRANCH  11  14
ATOM     14  C   UNL     1      11.150  12.698  17.445  0.00  0.00    +0.000 C 
ATOM     15  N   UNL     1      12.267  11.916  17.327  0.00  0.00    +0.000 N 
ATOM     16  O   UNL     1      11.044  13.755  16.836  0.00  0.00    +0.000 OA
ATOM     17  H   UNL     1      12.223  10.959  17.666  0.00  0.00    +0.000 HD
ATOM     18  H   UNL     1      12.974  12.177  16.654  0.00  0.00    +0.000 HD
ENDBRANCH  11  14
ENDBRANCH   5   8
ENDBRANCH   1   2
BRANCH   1  23
ATOM     19  N   UNL     1       5.305   4.283  16.260  0.00  0.00    +0.000 N 
ATOM     20  N   UNL     1       5.059   4.149  14.934  0.00  0.00    +0.000 NA
ATOM     21  N   UNL     1       6.211   4.349  14.313  0.00  0.00    +0.000 NA
ATOM     22  N   UNL     1       7.210   4.621  15.202  0.00  0.00    +0.000 NA
ATOM     23  C   UNL     1       6.653   4.593  16.395  0.00  0.00    +0.000 A 
BRANCH  19  30
ATOM     24  C   UNL     1       3.932   6.736  17.416  0.00  0.00    +0.000 C 
ATOM     25  C   UNL     1       3.663   5.308  17.823  0.00  0.00    +0.000 A 
ATOM     26  C   UNL     1       2.738   5.116  18.871  0.00  0.00    +0.000 A 
ATOM     27  C   UNL     1       2.414   3.840  19.350  0.00  0.00    +0.000 A 
ATOM     28  C   UNL     1       2.976   2.727  18.719  0.00  0.00    +0.000 A 
ATOM     29  C   UNL     1       3.904   2.889  17.685  0.00  0.00    +0.000 A 
ATOM     30  C   UNL     1       4.283   4.172  17.248  0.00  0.00    +0.000 A 
BRANCH  27  31
ATOM     31  C   UNL     1       1.496   3.660  20.535  0.00  0.00    +0.000 C 
ATOM     32  F   UNL     1       1.194   2.358  20.799  0.00  0.00    +0.000 F 
ATOM     33  F   UNL     1       2.017   4.167  21.685  0.00  0.00    +0.000 F 
ATOM     34  F   UNL     1       0.299   4.287  20.357  0.00  0.00    +0.000 F 
ENDBRANCH  27  31
ENDBRANCH  19  30
ENDBRANCH   1  23
TORSDOF 6
ENDMDL
MODEL 2
REMARK VINA RESULT:      -8.8      7.218      9.945
REMARK  Name = 
REMARK  7 active torsions:
REMARK  status: ('A' for Active; 'I' for Inactive)
REMARK    1  A    between atoms: C_1  and  C_2
REMARK    2  A    between atoms: C_4  and  C_5
REMARK    3  A    between atoms: C_11  and  N_12
REMARK    4  A    between atoms: C_16  and  O_17
REMARK    5  A    between atoms: O_17  and  C_18
REMARK    6  A    between atoms: C_21  and  C_22
REMARK    7  A    between atoms: C_25  and  C_26
REMARK                            x       y       z     vdW  Elec       q    Type
REMARK                         _______ _______ _______ _____ _____    ______ ____
ROOT
ATOM      1  O   UNL     1       0.145  10.392  19.872  0.00  0.00    +0.000 OA
ENDROOT
BRANCH   1   2
ATOM      2  C   UNL     1       0.961   9.353  19.485  0.00  0.00    +0.000 A 
ATOM      3  C   UNL     1       1.349   8.342  20.365  0.00  0.00    +0.000 A 
ATOM      4  C   UNL     1       2.161   7.289  19.924  0.00  0.00    +0.000 A 
ATOM      5  C   UNL     1       2.571   7.206  18.589  0.00  0.00    +0.000 A 
ATOM      6  C   UNL     1       2.154   8.232  17.711  0.00  0.00    +0.000 A 
ATOM      7  C   UNL     1       1.347   9.287  18.151  0.00  0.00    +0.000 A 
BRANCH   5   8
ATOM      8  C   UNL     1       3.432   6.084  18.037  0.00  0.00    +0.000 C 
ATOM      9  C   UNL     1       4.938   6.065  18.351  0.00  0.00    +0.000 C 
ATOM     10  C   UNL     1       5.295   4.606  18.627  0.00  0.00    +0.000 C 
ATOM     11  C   UNL     1       4.049   3.830  18.247  0.00  0.00    +0.000 C 
ATOM     12  N   UNL     1       2.947   4.782  18.536  0.00  0.00    +0.000 NA
ATOM     13  H   UNL     1       2.887   4.869  19.555  0.00  0.00    +0.000 HD
BRANCH  11  14
ATOM     14  C   UNL     1       3.877   2.540  19.059  0.00  0.00    +0.000 C 
ATOM     15  N   UNL     1       4.928   2.244  19.885  0.00  0.00    +0.000 N 
ATOM     16  O   UNL     1       2.888   1.821  19.005  0.00  0.00    +0.000 OA
ATOM     17  H   UNL     1       5.618   2.969  20.064  0.00  0.00    +0.000 HD
ATOM     18  H   UNL     1       4.841   1.467  20.523  0.00  0.00    +0.000 HD
ENDBRANCH  11  14
ENDBRANCH   5   8
ENDBRANCH   1   2
BRANCH   1  23
ATOM     19  N   UNL     1      -0.918  12.235  18.728  0.00  0.00    +0.000 N 
ATOM     20  N   UNL     1      -0.475  13.424  18.250  0.00  0.00    +0.000 NA
ATOM     21  N   UNL     1       0.836  13.441  18.431  0.00  0.00    +0.000 NA
ATOM     22  N   UNL     1       1.266  12.292  19.027  0.00  0.00    +0.000 NA
ATOM     23  C   UNL     1       0.190  11.557  19.222  0.00  0.00    +0.000 A 
BRANCH  19  30
ATOM     24  C   UNL     1      -2.020  10.103  16.864  0.00  0.00    +0.000 C 
ATOM     25  C   UNL     1      -2.831  10.911  17.847  0.00  0.00    +0.000 A 
ATOM     26  C   UNL     1      -4.224  10.690  17.846  0.00  0.00    +0.000 A 
ATOM     27  C   UNL     1      -5.087  11.388  18.701  0.00  0.00    +0.000 A 
ATOM     28  C   UNL     1      -4.534  12.278  19.626  0.00  0.00    +0.000 A 
ATOM     29  C   UNL     1      -3.158  12.525  19.641  0.00  0.00    +0.000 A 
ATOM     30  C   UNL     1      -2.297  11.875  18.737  0.00  0.00    +0.000 A 
BRANCH  27  31
ATOM     31  C   UNL     1      -6.584  11.207  18.619  0.00  0.00    +0.000 C 
ATOM     32  F   UNL     1      -7.252  11.689  19.703  0.00  0.00    +0.000 F 
ATOM     33  F   UNL     1      -7.128  11.824  17.536  0.00  0.00    +0.000 F 
ATOM     34  F   UNL     1      -6.938   9.895  18.520  0.00  0.00    +0.000 F 
ENDBRANCH  27  31
ENDBRANCH  19  30
ENDBRANCH   1  23
TORSDOF 6
ENDMDL
MODEL 3
REMARK VINA RESULT:      -8.7      7.140      9.434
REMARK  Name = 
REMARK  7 active torsions:
REMARK  status: ('A' for Active; 'I' for Inactive)
REMARK    1  A    between atoms: C_1  and  C_2
REMARK    2  A    between atoms: C_4  and  C_5
REMARK    3  A    between atoms: C_11  and  N_12
REMARK    4  A    between atoms: C_16  and  O_17
REMARK    5  A    between atoms: O_17  and  C_18
REMARK    6  A    between atoms: C_21  and  C_22
REMARK    7  A    between atoms: C_25  and  C_26
REMARK                            x       y       z     vdW  Elec       q    Type
REMARK                         _______ _______ _______ _____ _____    ______ ____
ROOT
ATOM      1  O   UNL     1       0.046  10.298  19.759  0.00  0.00    +0.000 OA
ENDROOT
BRANCH   1   2
ATOM      2  C   UNL     1       0.887   9.266  19.406  0.00  0.00    +0.000 A 
ATOM      3  C   UNL     1       1.410   9.138  18.119  0.00  0.00    +0.000 A 
ATOM      4  C   UNL     1       2.283   8.088  17.808  0.00  0.00    +0.000 A 
ATOM      5  C   UNL     1       2.680   7.167  18.784  0.00  0.00    +0.000 A 
ATOM      6  C   UNL     1       2.151   7.326  20.086  0.00  0.00    +0.000 A 
ATOM      7  C   UNL     1       1.275   8.371  20.396  0.00  0.00    +0.000 A 
BRANCH   5   8
ATOM      8  C   UNL     1       3.638   6.018  18.525  0.00  0.00    +0.000 C 
ATOM      9  C   UNL     1       3.120   4.747  17.831  0.00  0.00    +0.000 C 
ATOM     10  C   UNL     1       4.216   4.321  16.855  0.00  0.00    +0.000 C 
ATOM     11  C   UNL     1       5.391   5.220  17.185  0.00  0.00    +0.000 C 
ATOM     12  N   UNL     1       4.747   6.471  17.661  0.00  0.00    +0.000 NA
ATOM     13  H   UNL     1       4.313   6.913  16.846  0.00  0.00    +0.000 HD
BRANCH  11  14
ATOM     14  C   UNL     1       6.287   5.501  15.972  0.00  0.00    +0.000 C 
ATOM     15  N   UNL     1       5.740   5.149  14.768  0.00  0.00    +0.000 N 
ATOM     16  O   UNL     1       7.399   6.010  16.043  0.00  0.00    +0.000 OA
ATOM     17  H   UNL     1       4.746   4.941  14.734  0.00  0.00    +0.000 HD
ATOM     18  H   UNL     1       6.230   5.398  13.921  0.00  0.00    +0.000 HD
ENDBRANCH  11  14
ENDBRANCH   5   8
ENDBRANCH   1   2
BRANCH   1  23
ATOM     19  N   UNL     1      -0.982  12.171  18.632  0.00  0.00    +0.000 N 
ATOM     20  N   UNL     1      -0.516  13.353  18.160  0.00  0.00    +0.000 NA
ATOM     21  N   UNL     1       0.795  13.340  18.334  0.00  0.00    +0.000 NA
ATOM     22  N   UNL     1       1.203  12.178  18.921  0.00  0.00    +0.000 NA
ATOM     23  C   UNL     1       0.113  11.466  19.116  0.00  0.00    +0.000 A 
BRANCH  19  30
ATOM     24  C   UNL     1      -2.141  10.085  16.749  0.00  0.00    +0.000 C 
ATOM     25  C   UNL     1      -2.928  10.899  17.747  0.00  0.00    +0.000 A 
ATOM     26  C   UNL     1      -4.326  10.707  17.751  0.00  0.00    +0.000 A 
ATOM     27  C   UNL     1      -5.169  11.413  18.620  0.00  0.00    +0.000 A 
ATOM     28  C   UNL     1      -4.592  12.280  19.552  0.00  0.00    +0.000 A 
ATOM     29  C   UNL     1      -3.211  12.497  19.562  0.00  0.00    +0.000 A 
ATOM     30  C   UNL     1      -2.369  11.840  18.645  0.00  0.00    +0.000 A 
BRANCH  27  31
ATOM     31  C   UNL     1      -6.670  11.266  18.545  0.00  0.00    +0.000 C 
ATOM     32  F   UNL     1      -7.323  11.772  19.628  0.00  0.00    +0.000 F 
ATOM     33  F   UNL     1      -7.204  11.886  17.458  0.00  0.00    +0.000 F 
ATOM     34  F   UNL     1      -7.053   9.961  18.458  0.00  0.00    +0.000 F 
ENDBRANCH  27  31
ENDBRANCH  19  30
ENDBRANCH   1  23
TORSDOF 6
ENDMDL
MODEL 4
REMARK VINA RESULT:      -8.6      6.999      9.878
REMARK  Name = 
REMARK  7 active torsions:
REMARK  status: ('A' for Active; 'I' for Inactive)
REMARK    1  A    between atoms: C_1  and  C_2
REMARK    2  A    between atoms: C_4  and  C_5
REMARK    3  A    between atoms: C_11  and  N_12
REMARK    4  A    between atoms: C_16  and  O_17
REMARK    5  A    between atoms: O_17  and  C_18
REMARK    6  A    between atoms: C_21  and  C_22
REMARK    7  A    between atoms: C_25  and  C_26
REMARK                            x       y       z     vdW  Elec       q    Type
REMARK                         _______ _______ _______ _____ _____    ______ ____
ROOT
ATOM      1  O   UNL     1       0.347  10.095  20.843  0.00  0.00    +0.000 OA
ENDROOT
BRANCH   1   2
ATOM      2  C   UNL     1       1.017   9.174  20.069  0.00  0.00    +0.000 A 
ATOM      3  C   UNL     1       1.322   9.409  18.728  0.00  0.00    +0.000 A 
ATOM      4  C   UNL     1       2.027   8.455  17.983  0.00  0.00    +0.000 A 
ATOM      5  C   UNL     1       2.473   7.266  18.571  0.00  0.00    +0.000 A 
ATOM      6  C   UNL     1       2.166   7.056  19.934  0.00  0.00    +0.000 A 
ATOM      7  C   UNL     1       1.458   8.005  20.679  0.00  0.00    +0.000 A 
BRANCH   5   8
ATOM      8  C   UNL     1       3.259   6.199  17.831  0.00  0.00    +0.000 C 
ATOM      9  C   UNL     1       4.797   6.221  17.886  0.00  0.00    +0.000 C 
ATOM     10  C   UNL     1       5.236   4.765  18.031  0.00  0.00    +0.000 C 
ATOM     11  C   UNL     1       3.966   3.961  17.831  0.00  0.00    +0.000 C 
ATOM     12  N   UNL     1       2.903   4.861  18.345  0.00  0.00    +0.000 NA
ATOM     13  H   UNL     1       3.014   4.905  19.362  0.00  0.00    +0.000 HD
BRANCH  11  14
ATOM     14  C   UNL     1       3.972   2.635  18.601  0.00  0.00    +0.000 C 
ATOM     15  N   UNL     1       4.907   2.560  19.597  0.00  0.00    +0.000 N 
ATOM     16  O   UNL     1       3.206   1.707  18.375  0.00  0.00    +0.000 OA
ATOM     17  H   UNL     1       5.364   3.418  19.894  0.00  0.00    +0.000 HD
ATOM     18  H   UNL     1       4.900   1.758  20.210  0.00  0.00    +0.000 HD
ENDBRANCH  11  14
ENDBRANCH   5   8
ENDBRANCH   1   2
BRANCH   1  23
ATOM     19  N   UNL     1      -0.132  12.354  20.132  0.00  0.00    +0.000 N 
ATOM     20  N   UNL     1       0.453  13.554  20.364  0.00  0.00    +0.000 NA
ATOM     21  N   UNL     1       1.545  13.314  21.072  0.00  0.00    +0.000 NA
ATOM     22  N   UNL     1       1.688  11.980  21.320  0.00  0.00    +0.000 NA
ATOM     23  C   UNL     1       0.653  11.392  20.756  0.00  0.00    +0.000 A 
BRANCH  19  30
ATOM     24  C   UNL     1      -2.809  12.851  21.483  0.00  0.00    +0.000 C 
ATOM     25  C   UNL     1      -2.618  12.411  20.053  0.00  0.00    +0.000 A 
ATOM     26  C   UNL     1      -3.791  12.154  19.311  0.00  0.00    +0.000 A 
ATOM     27  C   UNL     1      -3.747  11.726  17.978  0.00  0.00    +0.000 A 
ATOM     28  C   UNL     1      -2.502  11.618  17.352  0.00  0.00    +0.000 A 
ATOM     29  C   UNL     1      -1.323  11.855  18.067  0.00  0.00    +0.000 A 
ATOM     30  C   UNL     1      -1.363  12.220  19.425  0.00  0.00    +0.000 A 
BRANCH  27  31
ATOM     31  C   UNL     1      -5.008  11.364  17.231  0.00  0.00    +0.000 C 
ATOM     32  F   UNL     1      -5.767  12.442  16.888  0.00  0.00    +0.000 F 
ATOM     33  F   UNL     1      -4.758  10.695  16.073  0.00  0.00    +0.000 F 
ATOM     34  F   UNL     1      -5.824  10.555  17.963  0.00  0.00    +0.000 F 
ENDBRANCH  27  31
ENDBRANCH  19  30
ENDBRANCH   1  23
TORSDOF 6
ENDMDL
MODEL 5
REMARK VINA RESULT:      -8.6      7.304     10.122
REMARK  Name = 
REMARK  7 active torsions:
REMARK  status: ('A' for Active; 'I' for Inactive)
REMARK    1  A    between atoms: C_1  and  C_2
REMARK    2  A    between atoms: C_4  and  C_5
REMARK    3  A    between atoms: C_11  and  N_12
REMARK    4  A    between atoms: C_16  and  O_17
REMARK    5  A    between atoms: O_17  and  C_18
REMARK    6  A    between atoms: C_21  and  C_22
REMARK    7  A    between atoms: C_25  and  C_26
REMARK                            x       y       z     vdW  Elec       q    Type
REMARK                         _______ _______ _______ _____ _____    ______ ____
ROOT
ATOM      1  O   UNL     1       0.172  10.385  19.954  0.00  0.00    +0.000 OA
ENDROOT
BRANCH   1   2
ATOM      2  C   UNL     1       0.943   9.341  19.495  0.00  0.00    +0.000 A 
ATOM      3  C   UNL     1       1.359   9.248  18.167  0.00  0.00    +0.000 A 
ATOM      4  C   UNL     1       2.164   8.182  17.746  0.00  0.00    +0.000 A 
ATOM      5  C   UNL     1       2.600   7.207  18.651  0.00  0.00    +0.000 A 
ATOM      6  C   UNL     1       2.180   7.329  19.996  0.00  0.00    +0.000 A 
ATOM      7  C   UNL     1       1.372   8.391  20.416  0.00  0.00    +0.000 A 
BRANCH   5   8
ATOM      8  C   UNL     1       3.490   6.037  18.272  0.00  0.00    +0.000 C 
ATOM      9  C   UNL     1       4.499   5.494  19.298  0.00  0.00    +0.000 C 
ATOM     10  C   UNL     1       4.456   3.972  19.168  0.00  0.00    +0.000 C 
ATOM     11  C   UNL     1       3.605   3.717  17.940  0.00  0.00    +0.000 C 
ATOM     12  N   UNL     1       2.662   4.864  17.929  0.00  0.00    +0.000 NA
ATOM     13  H   UNL     1       2.017   4.728  18.713  0.00  0.00    +0.000 HD
BRANCH  11  14
ATOM     14  C   UNL     1       2.842   2.388  18.007  0.00  0.00    +0.000 C 
ATOM     15  N   UNL     1       3.629   1.292  18.236  0.00  0.00    +0.000 N 
ATOM     16  O   UNL     1       1.628   2.287  17.885  0.00  0.00    +0.000 OA
ATOM     17  H   UNL     1       4.584   1.442  18.549  0.00  0.00    +0.000 HD
ATOM     18  H   UNL     1       3.184   0.400  18.394  0.00  0.00    +0.000 HD
ENDBRANCH  11  14
ENDBRANCH   5   8
ENDBRANCH   1   2
BRANCH   1  23
ATOM     19  N   UNL     1      -0.828  12.348  18.963  0.00  0.00    +0.000 N 
ATOM     20  N   UNL     1      -0.339  13.540  18.542  0.00  0.00    +0.000 NA
ATOM     21  N   UNL     1       0.976  13.479  18.676  0.00  0.00    +0.000 NA
ATOM     22  N   UNL     1       1.364  12.274  19.186  0.00  0.00    +0.000 NA
ATOM     23  C   UNL     1       0.258  11.585  19.374  0.00  0.00    +0.000 A 
BRANCH  19  30
ATOM     24  C   UNL     1      -2.101  10.387  17.021  0.00  0.00    +0.000 C 
ATOM     25  C   UNL     1      -2.836  11.177  18.076  0.00  0.00    +0.000 A 
ATOM     26  C   UNL     1      -4.238  11.027  18.112  0.00  0.00    +0.000 A 
ATOM     27  C   UNL     1      -5.035  11.717  19.035  0.00  0.00    +0.000 A 
ATOM     28  C   UNL     1      -4.407  12.522  19.989  0.00  0.00    +0.000 A 
ATOM     29  C   UNL     1      -3.020  12.698  19.969  0.00  0.00    +0.000 A 
ATOM     30  C   UNL     1      -2.224  12.058  19.000  0.00  0.00    +0.000 A 
BRANCH  27  31
ATOM     31  C   UNL     1      -6.541  11.618  18.996  0.00  0.00    +0.000 C 
ATOM     32  F   UNL     1      -7.014  10.899  17.940  0.00  0.00    +0.000 F 
ATOM     33  F   UNL     1      -7.058  11.034  20.111  0.00  0.00    +0.000 F 
ATOM     34  F   UNL     1      -7.134  12.841  18.904  0.00  0.00    +0.000 F 
ENDBRANCH  27  31
ENDBRANCH  19  30
ENDBRANCH   1  23
TORSDOF 6
ENDMDL
MODEL 6
REMARK VINA RESULT:      -8.6      6.934      9.227
REMARK  Name = 
REMARK  7 active torsions:
REMARK  status: ('A' for Active; 'I' for Inactive)
REMARK    1  A    between atoms: C_1  and  C_2
REMARK    2  A    between atoms: C_4  and  C_5
REMARK    3  A    between atoms: C_11  and  N_12
REMARK    4  A    between atoms: C_16  and  O_17
REMARK    5  A    between atoms: O_17  and  C_18
REMARK    6  A    between atoms: C_21  and  C_22
REMARK    7  A    between atoms: C_25  and  C_26
REMARK                            x       y       z     vdW  Elec       q    Type
REMARK                         _______ _______ _______ _____ _____    ______ ____
ROOT
ATOM      1  O   UNL     1       0.374  10.228  20.050  0.00  0.00    +0.000 OA
ENDROOT
BRANCH   1   2
ATOM      2  C   UNL     1       1.083   9.101  19.702  0.00  0.00    +0.000 A 
ATOM      3  C   UNL     1       1.619   8.921  18.426  0.00  0.00    +0.000 A 
ATOM      4  C   UNL     1       2.355   7.770  18.121  0.00  0.00    +0.000 A 
ATOM      5  C   UNL     1       2.603   6.793  19.092  0.00  0.00    +0.000 A 
ATOM      6  C   UNL     1       2.065   7.003  20.382  0.00  0.00    +0.000 A 
ATOM      7  C   UNL     1       1.324   8.150  20.687  0.00  0.00    +0.000 A 
BRANCH   5   8
ATOM      8  C   UNL     1       3.410   5.532  18.838  0.00  0.00    +0.000 C 
ATOM      9  C   UNL     1       3.387   4.892  17.439  0.00  0.00    +0.000 C 
ATOM     10  C   UNL     1       4.820   4.445  17.155  0.00  0.00    +0.000 C 
ATOM     11  C   UNL     1       5.549   4.641  18.470  0.00  0.00    +0.000 C 
ATOM     12  N   UNL     1       4.842   5.790  19.089  0.00  0.00    +0.000 NA
ATOM     13  H   UNL     1       5.085   6.621  18.541  0.00  0.00    +0.000 HD
BRANCH  11  14
ATOM     14  C   UNL     1       7.039   4.957  18.286  0.00  0.00    +0.000 C 
ATOM     15  N   UNL     1       7.657   5.450  19.403  0.00  0.00    +0.000 N 
ATOM     16  O   UNL     1       7.654   4.779  17.242  0.00  0.00    +0.000 OA
ATOM     17  H   UNL     1       7.174   5.373  20.294  0.00  0.00    +0.000 HD
ATOM     18  H   UNL     1       8.658   5.584  19.384  0.00  0.00    +0.000 HD
ENDBRANCH  11  14
ENDBRANCH   5   8
ENDBRANCH   1   2
BRANCH   1  23
ATOM     19  N   UNL     1      -0.567  12.041  18.759  0.00  0.00    +0.000 N 
ATOM     20  N   UNL     1      -0.053  13.172  18.217  0.00  0.00    +0.000 NA
ATOM     21  N   UNL     1       1.252  13.137  18.433  0.00  0.00    +0.000 NA
ATOM     22  N   UNL     1       1.609  12.011  19.114  0.00  0.00    +0.000 NA
ATOM     23  C   UNL     1       0.493  11.344  19.327  0.00  0.00    +0.000 A 
BRANCH  19  30
ATOM     24  C   UNL     1      -1.738   9.893  16.955  0.00  0.00    +0.000 C 
ATOM     25  C   UNL     1      -2.526  10.778  17.890  0.00  0.00    +0.000 A 
ATOM     26  C   UNL     1      -3.929  10.625  17.868  0.00  0.00    +0.000 A 
ATOM     27  C   UNL     1      -4.771  11.398  18.678  0.00  0.00    +0.000 A 
ATOM     28  C   UNL     1      -4.193  12.295  19.579  0.00  0.00    +0.000 A 
ATOM     29  C   UNL     1      -2.807  12.475  19.613  0.00  0.00    +0.000 A 
ATOM     30  C   UNL     1      -1.962  11.748  18.753  0.00  0.00    +0.000 A 
BRANCH  27  31
ATOM     31  C   UNL     1      -6.274  11.288  18.572  0.00  0.00    +0.000 C 
ATOM     32  F   UNL     1      -6.731  10.005  18.608  0.00  0.00    +0.000 F 
ATOM     33  F   UNL     1      -6.920  11.947  19.571  0.00  0.00    +0.000 F 
ATOM     34  F   UNL     1      -6.746  11.815  17.408  0.00  0.00    +0.000 F 
ENDBRANCH  27  31
ENDBRANCH  19  30
ENDBRANCH   1  23
TORSDOF 6
ENDMDL
MODEL 7
REMARK VINA RESULT:      -8.6      1.694      2.049
REMARK  Name = 
REMARK  7 active torsions:
REMARK  status: ('A' for Active; 'I' for Inactive)
REMARK    1  A    between atoms: C_1  and  C_2
REMARK    2  A    between atoms: C_4  and  C_5
REMARK    3  A    between atoms: C_11  and  N_12
REMARK    4  A    between atoms: C_16  and  O_17
REMARK    5  A    between atoms: O_17  and  C_18
REMARK    6  A    between atoms: C_21  and  C_22
REMARK    7  A    between atoms: C_25  and  C_26
REMARK                            x       y       z     vdW  Elec       q    Type
REMARK                         _______ _______ _______ _____ _____    ______ ____
ROOT
ATOM      1  O   UNL     1       6.861   5.584  17.782  0.00  0.00    +0.000 OA
ENDROOT
BRANCH   1   2
ATOM      2  C   UNL     1       7.450   6.817  17.954  0.00  0.00    +0.000 A 
ATOM      3  C   UNL     1       7.104   7.923  17.177  0.00  0.00    +0.000 A 
ATOM      4  C   UNL     1       7.710   9.166  17.401  0.00  0.00    +0.000 A 
ATOM      5  C   UNL     1       8.645   9.338  18.428  0.00  0.00    +0.000 A 
ATOM      6  C   UNL     1       8.968   8.208  19.214  0.00  0.00    +0.000 A 
ATOM      7  C   UNL     1       8.368   6.965  18.988  0.00  0.00    +0.000 A 
BRANCH   5   8
ATOM      8  C   UNL     1       9.324  10.659  18.742  0.00  0.00    +0.000 C 
ATOM      9  C   UNL     1       8.829  11.943  18.055  0.00  0.00    +0.000 C 
ATOM     10  C   UNL     1       8.854  13.032  19.126  0.00  0.00    +0.000 C 
ATOM     11  C   UNL     1       9.564  12.393  20.304  0.00  0.00    +0.000 C 
ATOM     12  N   UNL     1       9.208  10.956  20.183  0.00  0.00    +0.000 NA
ATOM     13  H   UNL     1       8.214  10.874  20.414  0.00  0.00    +0.000 HD
BRANCH  11  14
ATOM     14  C   UNL     1       9.102  12.954  21.655  0.00  0.00    +0.000 C 
ATOM     15  N   UNL     1       9.111  12.046  22.680  0.00  0.00    +0.000 N 
ATOM     16  O   UNL     1       8.761  14.116  21.835  0.00  0.00    +0.000 OA
ATOM     17  H   UNL     1       9.603  11.168  22.540  0.00  0.00    +0.000 HD
ATOM     18  H   UNL     1       8.917  12.370  23.616  0.00  0.00    +0.000 HD
ENDBRANCH  11  14
ENDBRANCH   5   8
ENDBRANCH   1   2
BRANCH   1  23
ATOM     19  N   UNL     1       5.329   4.587  16.203  0.00  0.00    +0.000 N 
ATOM     20  N   UNL     1       5.351   4.406  14.860  0.00  0.00    +0.000 NA
ATOM     21  N   UNL     1       6.533   4.829  14.440  0.00  0.00    +0.000 NA
ATOM     22  N   UNL     1       7.287   5.295  15.477  0.00  0.00    +0.000 NA
ATOM     23  C   UNL     1       6.545   5.158  16.557  0.00  0.00    +0.000 A 
BRANCH  19  30
ATOM     24  C   UNL     1       3.637   6.764  17.481  0.00  0.00    +0.000 C 
ATOM     25  C   UNL     1       3.417   5.280  17.636  0.00  0.00    +0.000 A 
ATOM     26  C   UNL     1       2.372   4.885  18.498  0.00  0.00    +0.000 A 
ATOM     27  C   UNL     1       2.077   3.536  18.737  0.00  0.00    +0.000 A 
ATOM     28  C   UNL     1       2.800   2.562  18.044  0.00  0.00    +0.000 A 
ATOM     29  C   UNL     1       3.848   2.924  17.193  0.00  0.00    +0.000 A 
ATOM     30  C   UNL     1       4.191   4.276  17.003  0.00  0.00    +0.000 A 
BRANCH  27  31
ATOM     31  C   UNL     1       1.019   3.133  19.736  0.00  0.00    +0.000 C 
ATOM     32  F   UNL     1      -0.024   2.454  19.182  0.00  0.00    +0.000 F 
ATOM     33  F   UNL     1       1.507   2.334  20.723  0.00  0.00    +0.000 F 
ATOM     34  F   UNL     1       0.468   4.209  20.363  0.00  0.00    +0.000 F 
ENDBRANCH  27  31
ENDBRANCH  19  30
ENDBRANCH   1  23
TORSDOF 6
ENDMDL
MODEL 8
REMARK VINA RESULT:      -8.6      5.693      7.894
REMARK  Name = 
REMARK  7 active torsions:
REMARK  status: ('A' for Active; 'I' for Inactive)
REMARK    1  A    between atoms: C_1  and  C_2
REMARK    2  A    between atoms: C_4  and  C_5
REMARK    3  A    between atoms: C_11  and  N_12
REMARK    4  A    between atoms: C_16  and  O_17
REMARK    5  A    between atoms: O_17  and  C_18
REMARK    6  A    between atoms: C_21  and  C_22
REMARK    7  A    between atoms: C_25  and  C_26
REMARK                            x       y       z     vdW  Elec       q    Type
REMARK                         _______ _______ _______ _____ _____    ______ ____
ROOT
ATOM      1  O   UNL     1       4.124   5.068  18.542  0.00  0.00    +0.000 OA
ENDROOT
BRANCH   1   2
ATOM      2  C   UNL     1       3.449   6.266  18.611  0.00  0.00    +0.000 A 
ATOM      3  C   UNL     1       3.483   7.201  17.576  0.00  0.00    +0.000 A 
ATOM      4  C   UNL     1       2.762   8.398  17.675  0.00  0.00    +0.000 A 
ATOM      5  C   UNL     1       1.965   8.668  18.793  0.00  0.00    +0.000 A 
ATOM      6  C   UNL     1       1.932   7.700  19.822  0.00  0.00    +0.000 A 
ATOM      7  C   UNL     1       2.656   6.507  19.727  0.00  0.00    +0.000 A 
BRANCH   5   8
ATOM      8  C   UNL     1       1.141   9.933  18.959  0.00  0.00    +0.000 C 
ATOM      9  C   UNL     1      -0.231  10.034  18.270  0.00  0.00    +0.000 C 
ATOM     10  C   UNL     1      -1.159  10.714  19.274  0.00  0.00    +0.000 C 
ATOM     11  C   UNL     1      -0.243  11.170  20.393  0.00  0.00    +0.000 C 
ATOM     12  N   UNL     1       0.841  10.156  20.387  0.00  0.00    +0.000 NA
ATOM     13  H   UNL     1       0.435   9.282  20.735  0.00  0.00    +0.000 HD
BRANCH  11  14
ATOM     14  C   UNL     1      -0.941  11.209  21.759  0.00  0.00    +0.000 C 
ATOM     15  N   UNL     1      -0.433  10.334  22.681  0.00  0.00    +0.000 N 
ATOM     16  O   UNL     1      -1.870  11.958  22.034  0.00  0.00    +0.000 OA
ATOM     17  H   UNL     1       0.463   9.898  22.487  0.00  0.00    +0.000 HD
ATOM     18  H   UNL     1      -0.776  10.377  23.630  0.00  0.00    +0.000 HD
ENDBRANCH  11  14
ENDBRANCH   5   8
ENDBRANCH   1   2
BRANCH   1  23
ATOM     19  N   UNL     1       6.422   4.825  17.839  0.00  0.00    +0.000 N 
ATOM     20  N   UNL     1       7.615   4.966  18.467  0.00  0.00    +0.000 NA
ATOM     21  N   UNL     1       7.348   5.211  19.739  0.00  0.00    +0.000 NA
ATOM     22  N   UNL     1       6.003   5.245  19.963  0.00  0.00    +0.000 NA
ATOM     23  C   UNL     1       5.434   5.021  18.796  0.00  0.00    +0.000 A 
BRANCH  19  30
ATOM     24  C   UNL     1       4.273   3.007  16.694  0.00  0.00    +0.000 C 
ATOM     25  C   UNL     1       5.341   3.713  15.895  0.00  0.00    +0.000 A 
ATOM     26  C   UNL     1       5.368   3.448  14.509  0.00  0.00    +0.000 A 
ATOM     27  C   UNL     1       6.320   4.030  13.661  0.00  0.00    +0.000 A 
ATOM     28  C   UNL     1       7.221   4.951  14.202  0.00  0.00    +0.000 A 
ATOM     29  C   UNL     1       7.224   5.222  15.573  0.00  0.00    +0.000 A 
ATOM     30  C   UNL     1       6.313   4.588  16.438  0.00  0.00    +0.000 A 
BRANCH  27  31
ATOM     31  C   UNL     1       6.393   3.661  12.199  0.00  0.00    +0.000 C 
ATOM     32  F   UNL     1       6.872   2.406  11.976  0.00  0.00    +0.000 F 
ATOM     33  F   UNL     1       5.182   3.718  11.582  0.00  0.00    +0.000 F 
ATOM     34  F   UNL     1       7.210   4.498  11.499  0.00  0.00    +0.000 F 
ENDBRANCH  27  31
ENDBRANCH  19  30
ENDBRANCH   1  23
TORSDOF 6
ENDMDL
MODEL 9
REMARK VINA RESULT:      -8.5      5.795      7.972
REMARK  Name = 
REMARK  7 active torsions:
REMARK  status: ('A' for Active; 'I' for Inactive)
REMARK    1  A    between atoms: C_1  and  C_2
REMARK    2  A    between atoms: C_4  and  C_5
REMARK    3  A    between atoms: C_11  and  N_12
REMARK    4  A    between atoms: C_16  and  O_17
REMARK    5  A    between atoms: O_17  and  C_18
REMARK    6  A    between atoms: C_21  and  C_22
REMARK    7  A    between atoms: C_25  and  C_26
REMARK                            x       y       z     vdW  Elec       q    Type
REMARK                         _______ _______ _______ _____ _____    ______ ____
ROOT
ATOM      1  O   UNL     1       3.783   5.403  18.324  0.00  0.00    +0.000 OA
ENDROOT
BRANCH   1   2
ATOM      2  C   UNL     1       3.119   6.582  18.577  0.00  0.00    +0.000 A 
ATOM      3  C   UNL     1       3.053   7.616  17.643  0.00  0.00    +0.000 A 
ATOM      4  C   UNL     1       2.346   8.790  17.931  0.00  0.00    +0.000 A 
ATOM      5  C   UNL     1       1.661   8.941  19.141  0.00  0.00    +0.000 A 
ATOM      6  C   UNL     1       1.727   7.875  20.067  0.00  0.00    +0.000 A 
ATOM      7  C   UNL     1       2.437   6.703  19.783  0.00  0.00    +0.000 A 
BRANCH   5   8
ATOM      8  C   UNL     1       0.857  10.175  19.512  0.00  0.00    +0.000 C 
ATOM      9  C   UNL     1       1.384  11.564  19.114  0.00  0.00    +0.000 C 
ATOM     10  C   UNL     1       0.166  12.362  18.652  0.00  0.00    +0.000 C 
ATOM     11  C   UNL     1      -1.021  11.489  19.009  0.00  0.00    +0.000 C 
ATOM     12  N   UNL     1      -0.482  10.110  18.893  0.00  0.00    +0.000 NA
ATOM     13  H   UNL     1      -0.330   9.931  17.897  0.00  0.00    +0.000 HD
BRANCH  11  14
ATOM     14  C   UNL     1      -2.213  11.685  18.065  0.00  0.00    +0.000 C 
ATOM     15  N   UNL     1      -1.884  11.736  16.737  0.00  0.00    +0.000 N 
ATOM     16  O   UNL     1      -3.376  11.778  18.437  0.00  0.00    +0.000 OA
ATOM     17  H   UNL     1      -0.953  11.437  16.461  0.00  0.00    +0.000 HD
ATOM     18  H   UNL     1      -2.626  11.762  16.054  0.00  0.00    +0.000 HD
ENDBRANCH  11  14
ENDBRANCH   5   8
ENDBRANCH   1   2
BRANCH   1  23
ATOM     19  N   UNL     1       6.103   4.962  17.816  0.00  0.00    +0.000 N 
ATOM     20  N   UNL     1       7.251   5.030  18.534  0.00  0.00    +0.000 NA
ATOM     21  N   UNL     1       6.904   5.336  19.774  0.00  0.00    +0.000 NA
ATOM     22  N   UNL     1       5.553   5.480  19.887  0.00  0.00    +0.000 NA
ATOM     23  C   UNL     1       5.061   5.264  18.684  0.00  0.00    +0.000 A 
BRANCH  19  30
ATOM     24  C   UNL     1       4.082   3.052  16.589  0.00  0.00    +0.000 C 
ATOM     25  C   UNL     1       5.174   3.772  15.838  0.00  0.00    +0.000 A 
ATOM     26  C   UNL     1       5.293   3.477  14.463  0.00  0.00    +0.000 A 
ATOM     27  C   UNL     1       6.277   4.069  13.660  0.00  0.00    +0.000 A 
ATOM     28  C   UNL     1       7.116   5.029  14.230  0.00  0.00    +0.000 A 
ATOM     29  C   UNL     1       7.028   5.332  15.592  0.00  0.00    +0.000 A 
ATOM     30  C   UNL     1       6.085   4.689  16.416  0.00  0.00    +0.000 A 
BRANCH  27  31
ATOM     31  C   UNL     1       6.449   3.669  12.214  0.00  0.00    +0.000 C 
ATOM     32  F   UNL     1       5.276   3.586  11.527  0.00  0.00    +0.000 F 
ATOM     33  F   UNL     1       7.232   4.538  11.519  0.00  0.00    +0.000 F 
ATOM     34  F   UNL     1       7.039   2.448  12.086  0.00  0.00    +0.000 F 
ENDBRANCH  27  31
ENDBRANCH  19  30
ENDBRANCH   1  23
TORSDOF 6
ENDMDL
