MODEL 1
REMARK VINA RESULT:      -7.5      0.000      0.000
REMARK  Name = 
REMARK  7 active torsions:
REMARK  status: ('A' for Active; 'I' for Inactive)
REMARK    1  A    between atoms: C_1  and  O_2
REMARK    2  A    between atoms: O_2  and  C_3
REMARK    3  A    between atoms: C_5  and  N_6
REMARK    4  A    between atoms: C_10  and  C_11
REMARK    5  A    between atoms: N_13  and  C_14
REMARK    6  A    between atoms: C_14  and  C_15
REMARK    7  A    between atoms: C_15  and  C_16
REMARK                            x       y       z     vdW  Elec       q    Type
REMARK                         _______ _______ _______ _____ _____    ______ ____
ROOT
ATOM      1  C   UNL     1       1.305   9.223  18.449  0.00  0.00    +0.000 C 
ATOM      2  O   UNL     1       2.057   9.462  17.508  0.00  0.00    +0.000 OA
ATOM      3  N   UNL     1       1.506   8.164  19.305  0.00  0.00    +0.000 N 
ATOM      4  H   UNL     1       0.961   8.149  20.162  0.00  0.00    +0.000 HD
ENDROOT
BRANCH   1  11
ATOM      5  C   UNL     1      -0.162  10.789  19.881  0.00  0.00    +0.000 A 
ATOM      6  C   UNL     1      -1.332  11.553  19.983  0.00  0.00    +0.000 A 
ATOM      7  C   UNL     1      -2.272  11.603  18.947  0.00  0.00    +0.000 A 
ATOM      8  C   UNL     1      -1.971  10.946  17.748  0.00  0.00    +0.000 A 
ATOM      9 CL   UNL     1      -3.055  11.028  16.405  0.00  0.00    +0.000 Cl
ATOM     10  C   UNL     1      -0.807  10.187  17.622  0.00  0.00    +0.000 A 
ATOM     11  C   UNL     1       0.108  10.095  18.686  0.00  0.00    +0.000 A 
BRANCH   7  12
ATOM     12  N   UNL     1      -3.358  12.490  19.064  0.00  0.00    +0.000 N 
ATOM     13  H   UNL     1      -3.164  13.337  19.586  0.00  0.00    +0.000 HD
ATOM     14  H   UNL     1      -4.213  12.025  19.370  0.00  0.00    +0.000 HD
ENDBRANCH   7  12
BRANCH   5  16
ATOM     15  C   UNL     1       0.345  10.149  22.120  0.00  0.00    +0.000 C 
ATOM     16  O   UNL     1       0.772  10.740  20.894  0.00  0.00    +0.000 OA
ENDBRANCH   5  16
ENDBRANCH   1  11
BRANCH   3  17
ATOM     17  C   UNL     1       2.666   7.310  19.195  0.00  0.00    +0.000 C 
BRANCH  17  18
ATOM     18  C   UNL     1       2.424   6.155  18.223  0.00  0.00    +0.000 C 
BRANCH  18  19
ATOM     19  C   UNL     1       2.220   4.805  18.922  0.00  0.00    +0.000 C 
ATOM     20  C   UNL     1       1.424   4.902  20.232  0.00  0.00    +0.000 C 
ATOM     21  C   UNL     1       1.251   3.417  20.559  0.00  0.00    +0.000 C 
ATOM     22  C   UNL     1       2.593   2.922  21.106  0.00  0.00    +0.000 C 
ATOM     23  N   UNL     1       3.369   2.706  19.865  0.00  0.00    +0.000 NA
ATOM     24  C   UNL     1       2.419   1.888  19.083  0.00  0.00    +0.000 C 
ATOM     25  C   UNL     1       1.140   2.722  19.163  0.00  0.00    +0.000 C 
ATOM     26  C   UNL     1       1.278   3.866  18.149  0.00  0.00    +0.000 C 
ATOM     27  C   UNL     1       3.563   4.028  19.184  0.00  0.00    +0.000 C 
ENDBRANCH  18  19
ENDBRANCH  17  18
ENDBRANCH   3  17
TORSDOF 6
ENDMDL
MODEL 2
REMARK VINA RESULT:      -7.4      6.990     10.132
REMARK  Name = 
REMARK  7 active torsions:
REMARK  status: ('A' for Active; 'I' for Inactive)
REMARK    1  A    between atoms: C_1  and  O_2
REMARK    2  A    between atoms: O_2  and  C_3
REMARK    3  A    between atoms: C_5  and  N_6
REMARK    4  A    between atoms: C_10  and  C_11
REMARK    5  A    between atoms: N_13  and  C_14
REMARK    6  A    between atoms: C_14  and  C_15
REMARK    7  A    between atoms: C_15  and  C_16
REMARK                            x       y       z     vdW  Elec       q    Type
REMARK                         _______ _______ _______ _____ _____    ______ ____
ROOT
ATOM      1  C   UNL     1       7.395   6.575  18.351  0.00  0.00    +0.000 C 
ATOM      2  O   UNL     1       8.241   6.107  19.108  0.00  0.00    +0.000 OA
ATOM      3  N   UNL     1       7.465   7.862  17.868  0.00  0.00    +0.000 N 
ATOM      4  H   UNL     1       6.843   8.106  17.104  0.00  0.00    +0.000 HD
ENDROOT
BRANCH   1  11
ATOM      5  C   UNL     1       5.913   5.385  16.607  0.00  0.00    +0.000 A 
ATOM      6  C   UNL     1       4.772   4.613  16.349  0.00  0.00    +0.000 A 
ATOM      7  C   UNL     1       3.897   4.226  17.371  0.00  0.00    +0.000 A 
ATOM      8  C   UNL     1       4.240   4.543  18.691  0.00  0.00    +0.000 A 
ATOM      9 CL   UNL     1       3.242   4.033  20.005  0.00  0.00    +0.000 Cl
ATOM     10  C   UNL     1       5.377   5.303  18.970  0.00  0.00    +0.000 A 
ATOM     11  C   UNL     1       6.224   5.736  17.934  0.00  0.00    +0.000 A 
BRANCH   7  12
ATOM     12  N   UNL     1       2.844   3.347  17.061  0.00  0.00    +0.000 N 
ATOM     13  H   UNL     1       1.926   3.656  17.361  0.00  0.00    +0.000 HD
ATOM     14  H   UNL     1       3.044   2.384  17.332  0.00  0.00    +0.000 HD
ENDBRANCH   7  12
BRANCH   5  16
ATOM     15  C   UNL     1       6.965   4.833  14.541  0.00  0.00    +0.000 C 
ATOM     16  O   UNL     1       6.783   5.764  15.607  0.00  0.00    +0.000 OA
ENDBRANCH   5  16
ENDBRANCH   1  11
BRANCH   3  17
ATOM     17  C   UNL     1       8.589   8.721  18.162  0.00  0.00    +0.000 C 
BRANCH  17  18
ATOM     18  C   UNL     1       8.272  10.186  17.857  0.00  0.00    +0.000 C 
BRANCH  18  19
ATOM     19  C   UNL     1       9.273  11.167  18.482  0.00  0.00    +0.000 C 
ATOM     20  C   UNL     1       9.694  10.792  19.911  0.00  0.00    +0.000 C 
ATOM     21  C   UNL     1      10.791  11.832  20.154  0.00  0.00    +0.000 C 
ATOM     22  C   UNL     1      10.089  13.164  20.430  0.00  0.00    +0.000 C 
ATOM     23  N   UNL     1       9.756  13.625  19.064  0.00  0.00    +0.000 NA
ATOM     24  C   UNL     1      11.066  13.479  18.396  0.00  0.00    +0.000 C 
ATOM     25  C   UNL     1      11.447  12.041  18.750  0.00  0.00    +0.000 C 
ATOM     26  C   UNL     1      10.656  11.117  17.813  0.00  0.00    +0.000 C 
ATOM     27  C   UNL     1       8.780  12.661  18.456  0.00  0.00    +0.000 C 
ENDBRANCH  18  19
ENDBRANCH  17  18
ENDBRANCH   3  17
TORSDOF 6
ENDMDL
MODEL 3
REMARK VINA RESULT:      -7.3      6.952     10.060
REMARK  Name = 
REMARK  7 active torsions:
REMARK  status: ('A' for Active; 'I' for Inactive)
REMARK    1  A    between atoms: C_1  and  O_2
REMARK    2  A    between atoms: O_2  and  C_3
REMARK    3  A    between atoms: C_5  and  N_6
REMARK    4  A    between atoms: C_10  and  C_11
REMARK    5  A    between atoms: N_13  and  C_14
REMARK    6  A    between atoms: C_14  and  C_15
REMARK    7  A    between atoms: C_15  and  C_16
REMARK                            x       y       z     vdW  Elec       q    Type
REMARK                         _______ _______ _______ _____ _____    ______ ____
ROOT
ATOM      1  C   UNL     1       7.357   6.590  18.368  0.00  0.00    +0.000 C 
ATOM      2  O   UNL     1       8.189   6.129  19.144  0.00  0.00    +0.000 OA
ATOM      3  N   UNL     1       7.448   7.865  17.858  0.00  0.00    +0.000 N 
ATOM      4  H   UNL     1       6.837   8.100  17.082  0.00  0.00    +0.000 HD
ENDROOT
BRANCH   1  11
ATOM      5  C   UNL     1       5.866   5.400  16.632  0.00  0.00    +0.000 A 
ATOM      6  C   UNL     1       4.720   4.634  16.379  0.00  0.00    +0.000 A 
ATOM      7  C   UNL     1       3.844   4.258  17.404  0.00  0.00    +0.000 A 
ATOM      8  C   UNL     1       4.190   4.580  18.722  0.00  0.00    +0.000 A 
ATOM      9 CL   UNL     1       3.190   4.083  20.040  0.00  0.00    +0.000 Cl
ATOM     10  C   UNL     1       5.332   5.333  18.996  0.00  0.00    +0.000 A 
ATOM     11  C   UNL     1       6.180   5.756  17.957  0.00  0.00    +0.000 A 
BRANCH   7  12
ATOM     12  N   UNL     1       2.785   3.383  17.099  0.00  0.00    +0.000 N 
ATOM     13  H   UNL     1       2.926   2.814  16.272  0.00  0.00    +0.000 HD
ATOM     14  H   UNL     1       1.878   3.847  17.109  0.00  0.00    +0.000 HD
ENDBRANCH   7  12
BRANCH   5  16
ATOM     15  C   UNL     1       6.998   4.787  14.626  0.00  0.00    +0.000 C 
ATOM     16  O   UNL     1       6.737   5.768  15.629  0.00  0.00    +0.000 OA
ENDBRANCH   5  16
ENDBRANCH   1  11
BRANCH   3  17
ATOM     17  C   UNL     1       8.579   8.717  18.146  0.00  0.00    +0.000 C 
BRANCH  17  18
ATOM     18  C   UNL     1       8.277  10.181  17.824  0.00  0.00    +0.000 C 
BRANCH  18  19
ATOM     19  C   UNL     1       9.253  11.163  18.485  0.00  0.00    +0.000 C 
ATOM     20  C   UNL     1      10.605  11.268  17.764  0.00  0.00    +0.000 C 
ATOM     21  C   UNL     1      11.243  12.421  18.544  0.00  0.00    +0.000 C 
ATOM     22  C   UNL     1      11.706  11.848  19.886  0.00  0.00    +0.000 C 
ATOM     23  N   UNL     1      10.447  11.828  20.663  0.00  0.00    +0.000 NA
ATOM     24  C   UNL     1       9.970  13.210  20.450  0.00  0.00    +0.000 C 
ATOM     25  C   UNL     1      10.039  13.342  18.929  0.00  0.00    +0.000 C 
ATOM     26  C   UNL     1       8.807  12.629  18.354  0.00  0.00    +0.000 C 
ATOM     27  C   UNL     1       9.495  10.869  20.012  0.00  0.00    +0.000 C 
ENDBRANCH  18  19
ENDBRANCH  17  18
ENDBRANCH   3  17
TORSDOF 6
ENDMDL
MODEL 4
REMARK VINA RESULT:      -7.2      7.069     10.123
REMARK  Name = 
REMARK  7 active torsions:
REMARK  status: ('A' for Active; 'I' for Inactive)
REMARK    1  A    between atoms: C_1  and  O_2
REMARK    2  A    between atoms: O_2  and  C_3
REMARK    3  A    between atoms: C_5  and  N_6
REMARK    4  A    between atoms: C_10  and  C_11
REMARK    5  A    between atoms: N_13  and  C_14
REMARK    6  A    between atoms: C_14  and  C_15
REMARK    7  A    between atoms: C_15  and  C_16
REMARK                            x       y       z     vdW  Elec       q    Type
REMARK                         _______ _______ _______ _____ _____    ______ ____
ROOT
ATOM      1  C   UNL     1       7.406   6.680  18.274  0.00  0.00    +0.000 C 
ATOM      2  O   UNL     1       8.214   6.275  19.104  0.00  0.00    +0.000 OA
ATOM      3  N   UNL     1       7.509   7.918  17.681  0.00  0.00    +0.000 N 
ATOM      4  H   UNL     1       6.922   8.097  16.873  0.00  0.00    +0.000 HD
ENDROOT
BRANCH   1  11
ATOM      5  C   UNL     1       5.937   5.418  16.569  0.00  0.00    +0.000 A 
ATOM      6  C   UNL     1       4.804   4.627  16.337  0.00  0.00    +0.000 A 
ATOM      7  C   UNL     1       3.933   4.264  17.370  0.00  0.00    +0.000 A 
ATOM      8  C   UNL     1       4.272   4.627  18.679  0.00  0.00    +0.000 A 
ATOM      9 CL   UNL     1       3.279   4.150  20.010  0.00  0.00    +0.000 Cl
ATOM     10  C   UNL     1       5.401   5.407  18.934  0.00  0.00    +0.000 A 
ATOM     11  C   UNL     1       6.243   5.815  17.884  0.00  0.00    +0.000 A 
BRANCH   7  12
ATOM     12  N   UNL     1       2.890   3.363  17.089  0.00  0.00    +0.000 N 
ATOM     13  H   UNL     1       3.088   2.395  17.314  0.00  0.00    +0.000 HD
ATOM     14  H   UNL     1       2.513   3.481  16.148  0.00  0.00    +0.000 HD
ENDBRANCH   7  12
BRANCH   5  16
ATOM     15  C   UNL     1       6.951   4.835  14.493  0.00  0.00    +0.000 C 
ATOM     16  O   UNL     1       6.803   5.773  15.558  0.00  0.00    +0.000 OA
ENDBRANCH   5  16
ENDBRANCH   1  11
BRANCH   3  17
ATOM     17  C   UNL     1       8.630   8.792  17.945  0.00  0.00    +0.000 C 
BRANCH  17  18
ATOM     18  C   UNL     1       8.186  10.247  18.091  0.00  0.00    +0.000 C 
BRANCH  18  19
ATOM     19  C   UNL     1       9.286  11.167  18.636  0.00  0.00    +0.000 C 
ATOM     20  C   UNL     1       8.815  12.606  18.896  0.00  0.00    +0.000 C 
ATOM     21  C   UNL     1      10.057  13.182  19.580  0.00  0.00    +0.000 C 
ATOM     22  C   UNL     1      11.091  13.441  18.481  0.00  0.00    +0.000 C 
ATOM     23  N   UNL     1      11.657  12.090  18.268  0.00  0.00    +0.000 NA
ATOM     24  C   UNL     1      11.976  11.702  19.658  0.00  0.00    +0.000 C 
ATOM     25  C   UNL     1      10.656  11.977  20.377  0.00  0.00    +0.000 C 
ATOM     26  C   UNL     1       9.715  10.803  20.067  0.00  0.00    +0.000 C 
ATOM     27  C   UNL     1      10.578  11.194  17.739  0.00  0.00    +0.000 C 
ENDBRANCH  18  19
ENDBRANCH  17  18
ENDBRANCH   3  17
TORSDOF 6
ENDMDL
MODEL 5
REMARK VINA RESULT:      -7.2      1.775      2.357
REMARK  Name = 
REMARK  7 active torsions:
REMARK  status: ('A' for Active; 'I' for Inactive)
REMARK    1  A    between atoms: C_1  and  O_2
REMARK    2  A    between atoms: O_2  and  C_3
REMARK    3  A    between atoms: C_5  and  N_6
REMARK    4  A    between atoms: C_10  and  C_11
REMARK    5  A    between atoms: N_13  and  C_14
REMARK    6  A    between atoms: C_14  and  C_15
REMARK    7  A    between atoms: C_15  and  C_16
REMARK                            x       y       z     vdW  Elec       q    Type
REMARK                         _______ _______ _______ _____ _____    ______ ____
ROOT
ATOM      1  C   UNL     1       1.483   9.337  18.517  0.00  0.00    +0.000 C 
ATOM      2  O   UNL     1       2.118   9.399  17.468  0.00  0.00    +0.000 OA
ATOM      3  N   UNL     1       1.638   8.306  19.416  0.00  0.00    +0.000 N 
ATOM      4  H   UNL     1       1.228   8.426  20.336  0.00  0.00    +0.000 HD
ENDROOT
BRANCH   1  11
ATOM      5  C   UNL     1      -0.767  10.562  18.218  0.00  0.00    +0.000 A 
ATOM      6  C   UNL     1      -1.601  11.620  18.603  0.00  0.00    +0.000 A 
ATOM      7  C   UNL     1      -1.204  12.563  19.558  0.00  0.00    +0.000 A 
ATOM      8  C   UNL     1       0.022  12.370  20.207  0.00  0.00    +0.000 A 
ATOM      9 CL   UNL     1       0.540  13.456  21.448  0.00  0.00    +0.000 Cl
ATOM     10  C   UNL     1       0.864  11.318  19.846  0.00  0.00    +0.000 A 
ATOM     11  C   UNL     1       0.483  10.405  18.846  0.00  0.00    +0.000 A 
BRANCH   7  12
ATOM     12  N   UNL     1      -2.138  13.521  19.990  0.00  0.00    +0.000 N 
ATOM     13  H   UNL     1      -2.046  13.802  20.960  0.00  0.00    +0.000 HD
ATOM     14  H   UNL     1      -3.096  13.276  19.740  0.00  0.00    +0.000 HD
ENDBRANCH   7  12
BRANCH   5  16
ATOM     15  C   UNL     1      -2.355   9.909  16.566  0.00  0.00    +0.000 C 
ATOM     16  O   UNL     1      -1.155   9.627  17.283  0.00  0.00    +0.000 OA
ENDBRANCH   5  16
ENDBRANCH   1  11
BRANCH   3  17
ATOM     17  C   UNL     1       2.624   7.269  19.215  0.00  0.00    +0.000 C 
BRANCH  17  18
ATOM     18  C   UNL     1       2.101   6.167  18.293  0.00  0.00    +0.000 C 
BRANCH  18  19
ATOM     19  C   UNL     1       2.065   4.785  18.958  0.00  0.00    +0.000 C 
ATOM     20  C   UNL     1       1.193   4.730  20.221  0.00  0.00    +0.000 C 
ATOM     21  C   UNL     1       1.228   3.227  20.514  0.00  0.00    +0.000 C 
ATOM     22  C   UNL     1       2.597   2.925  21.128  0.00  0.00    +0.000 C 
ATOM     23  N   UNL     1       3.464   2.859  19.931  0.00  0.00    +0.000 NA
ATOM     24  C   UNL     1       2.691   1.928  19.082  0.00  0.00    +0.000 C 
ATOM     25  C   UNL     1       1.299   2.558  19.102  0.00  0.00    +0.000 C 
ATOM     26  C   UNL     1       1.318   3.735  18.117  0.00  0.00    +0.000 C 
ATOM     27  C   UNL     1       3.494   4.211  19.283  0.00  0.00    +0.000 C 
ENDBRANCH  18  19
ENDBRANCH  17  18
ENDBRANCH   3  17
TORSDOF 6
ENDMDL
MODEL 6
REMARK VINA RESULT:      -7.2      0.870      1.561
REMARK  Name = 
REMARK  7 active torsions:
REMARK  status: ('A' for Active; 'I' for Inactive)
REMARK    1  A    between atoms: C_1  and  O_2
REMARK    2  A    between atoms: O_2  and  C_3
REMARK    3  A    between atoms: C_5  and  N_6
REMARK    4  A    between atoms: C_10  and  C_11
REMARK    5  A    between atoms: N_13  and  C_14
REMARK    6  A    between atoms: C_14  and  C_15
REMARK    7  A    between atoms: C_15  and  C_16
REMARK                            x       y       z     vdW  Elec       q    Type
REMARK                         _______ _______ _______ _____ _____    ______ ____
ROOT
ATOM      1  C   UNL     1       1.298   9.359  18.339  0.00  0.00    +0.000 C 
ATOM      2  O   UNL     1       2.056   9.627  17.410  0.00  0.00    +0.000 OA
ATOM      3  N   UNL     1       1.515   8.299  19.189  0.00  0.00    +0.000 N 
ATOM      4  H   UNL     1       0.959   8.262  20.037  0.00  0.00    +0.000 HD
ENDROOT
BRANCH   1  11
ATOM      5  C   UNL     1      -0.075  11.144  19.596  0.00  0.00    +0.000 A 
ATOM      6  C   UNL     1      -1.283  11.846  19.714  0.00  0.00    +0.000 A 
ATOM      7  C   UNL     1      -2.369  11.592  18.868  0.00  0.00    +0.000 A 
ATOM      8  C   UNL     1      -2.192  10.680  17.820  0.00  0.00    +0.000 A 
ATOM      9 CL   UNL     1      -3.468  10.374  16.696  0.00  0.00    +0.000 Cl
ATOM     10  C   UNL     1      -0.994   9.978  17.679  0.00  0.00    +0.000 A 
ATOM     11  C   UNL     1       0.075  10.197  18.566  0.00  0.00    +0.000 A 
BRANCH   7  12
ATOM     12  N   UNL     1      -3.502  12.420  18.958  0.00  0.00    +0.000 N 
ATOM     13  H   UNL     1      -3.498  13.220  18.335  0.00  0.00    +0.000 HD
ATOM     14  H   UNL     1      -3.730  12.670  19.920  0.00  0.00    +0.000 HD
ENDBRANCH   7  12
BRANCH   5  16
ATOM     15  C   UNL     1       1.612  12.676  20.291  0.00  0.00    +0.000 C 
ATOM     16  O   UNL     1       1.000  11.394  20.420  0.00  0.00    +0.000 OA
ENDBRANCH   5  16
ENDBRANCH   1  11
BRANCH   3  17
ATOM     17  C   UNL     1       2.700   7.478  19.088  0.00  0.00    +0.000 C 
BRANCH  17  18
ATOM     18  C   UNL     1       2.467   6.263  18.190  0.00  0.00    +0.000 C 
BRANCH  18  19
ATOM     19  C   UNL     1       2.438   4.935  18.958  0.00  0.00    +0.000 C 
ATOM     20  C   UNL     1       3.817   4.273  19.099  0.00  0.00    +0.000 C 
ATOM     21  C   UNL     1       3.469   3.114  20.037  0.00  0.00    +0.000 C 
ATOM     22  C   UNL     1       2.757   2.055  19.191  0.00  0.00    +0.000 C 
ATOM     23  N   UNL     1       1.382   2.596  19.116  0.00  0.00    +0.000 NA
ATOM     24  C   UNL     1       1.112   2.863  20.544  0.00  0.00    +0.000 C 
ATOM     25  C   UNL     1       2.337   3.681  20.953  0.00  0.00    +0.000 C 
ATOM     26  C   UNL     1       2.115   5.115  20.451  0.00  0.00    +0.000 C 
ATOM     27  C   UNL     1       1.416   3.894  18.367  0.00  0.00    +0.000 C 
ENDBRANCH  18  19
ENDBRANCH  17  18
ENDBRANCH   3  17
TORSDOF 6
ENDMDL
MODEL 7
REMARK VINA RESULT:      -7.1      1.060      1.444
REMARK  Name = 
REMARK  7 active torsions:
REMARK  status: ('A' for Active; 'I' for Inactive)
REMARK    1  A    between atoms: C_1  and  O_2
REMARK    2  A    between atoms: O_2  and  C_3
REMARK    3  A    between atoms: C_5  and  N_6
REMARK    4  A    between atoms: C_10  and  C_11
REMARK    5  A    between atoms: N_13  and  C_14
REMARK    6  A    between atoms: C_14  and  C_15
REMARK    7  A    between atoms: C_15  and  C_16
REMARK                            x       y       z     vdW  Elec       q    Type
REMARK                         _______ _______ _______ _____ _____    ______ ____
ROOT
ATOM      1  C   UNL     1       0.860   9.360  18.843  0.00  0.00    +0.000 C 
ATOM      2  O   UNL     1       1.398   9.302  17.741  0.00  0.00    +0.000 OA
ATOM      3  N   UNL     1       1.194   8.514  19.876  0.00  0.00    +0.000 N 
ATOM      4  H   UNL     1       0.849   8.751  20.801  0.00  0.00    +0.000 HD
ENDROOT
BRANCH   1  11
ATOM      5  C   UNL     1      -0.164  11.385  20.071  0.00  0.00    +0.000 A 
ATOM      6  C   UNL     1      -1.251  12.257  20.219  0.00  0.00    +0.000 A 
ATOM      7  C   UNL     1      -2.416  12.117  19.457  0.00  0.00    +0.000 A 
ATOM      8  C   UNL     1      -2.440  11.138  18.457  0.00  0.00    +0.000 A 
ATOM      9 CL   UNL     1      -3.820  10.961  17.432  0.00  0.00    +0.000 Cl
ATOM     10  C   UNL     1      -1.364  10.265  18.286  0.00  0.00    +0.000 A 
ATOM     11  C   UNL     1      -0.217  10.375  19.092  0.00  0.00    +0.000 A 
BRANCH   7  12
ATOM     12  N   UNL     1      -3.415  13.103  19.565  0.00  0.00    +0.000 N 
ATOM     13  H   UNL     1      -4.083  12.953  20.313  0.00  0.00    +0.000 HD
ATOM     14  H   UNL     1      -3.862  13.308  18.672  0.00  0.00    +0.000 HD
ENDBRANCH   7  12
BRANCH   5  16
ATOM     15  C   UNL     1       1.760  12.697  20.576  0.00  0.00    +0.000 C 
ATOM     16  O   UNL     1       0.990  11.520  20.813  0.00  0.00    +0.000 OA
ENDBRANCH   5  16
ENDBRANCH   1  11
BRANCH   3  17
ATOM     17  C   UNL     1       2.264   7.551  19.749  0.00  0.00    +0.000 C 
BRANCH  17  18
ATOM     18  C   UNL     1       1.922   6.236  20.451  0.00  0.00    +0.000 C 
BRANCH  18  19
ATOM     19  C   UNL     1       2.156   5.000  19.574  0.00  0.00    +0.000 C 
ATOM     20  C   UNL     1       1.118   3.887  19.786  0.00  0.00    +0.000 C 
ATOM     21  C   UNL     1       1.521   2.920  18.670  0.00  0.00    +0.000 C 
ATOM     22  C   UNL     1       2.783   2.193  19.144  0.00  0.00    +0.000 C 
ATOM     23  N   UNL     1       3.838   3.190  18.858  0.00  0.00    +0.000 NA
ATOM     24  C   UNL     1       3.529   3.523  17.451  0.00  0.00    +0.000 C 
ATOM     25  C   UNL     1       2.036   3.846  17.520  0.00  0.00    +0.000 C 
ATOM     26  C   UNL     1       1.904   5.269  18.081  0.00  0.00    +0.000 C 
ATOM     27  C   UNL     1       3.603   4.398  19.715  0.00  0.00    +0.000 C 
ENDBRANCH  18  19
ENDBRANCH  17  18
ENDBRANCH   3  17
TORSDOF 6
ENDMDL
MODEL 8
REMARK VINA RESULT:      -7.1      1.031      1.665
REMARK  Name = 
REMARK  7 active torsions:
REMARK  status: ('A' for Active; 'I' for Inactive)
REMARK    1  A    between atoms: C_1  and  O_2
REMARK    2  A    between atoms: O_2  and  C_3
REMARK    3  A    between atoms: C_5  and  N_6
REMARK    4  A    between atoms: C_10  and  C_11
REMARK    5  A    between atoms: N_13  and  C_14
REMARK    6  A    between atoms: C_14  and  C_15
REMARK    7  A    between atoms: C_15  and  C_16
REMARK                            x       y       z     vdW  Elec       q    Type
REMARK                         _______ _______ _______ _____ _____    ______ ____
ROOT
ATOM      1  C   UNL     1       1.347   9.441  18.203  0.00  0.00    +0.000 C 
ATOM      2  O   UNL     1       2.153   9.830  17.363  0.00  0.00    +0.000 OA
ATOM      3  N   UNL     1       1.492   8.247  18.871  0.00  0.00    +0.000 N 
ATOM      4  H   UNL     1       0.898   8.090  19.679  0.00  0.00    +0.000 HD
ENDROOT
BRANCH   1  11
ATOM      5  C   UNL     1       0.084  11.262  19.524  0.00  0.00    +0.000 A 
ATOM      6  C   UNL     1      -1.115  11.956  19.736  0.00  0.00    +0.000 A 
ATOM      7  C   UNL     1      -2.277  11.660  19.015  0.00  0.00    +0.000 A 
ATOM      8  C   UNL     1      -2.195  10.709  17.990  0.00  0.00    +0.000 A 
ATOM      9 CL   UNL     1      -3.574  10.348  17.013  0.00  0.00    +0.000 Cl
ATOM     10  C   UNL     1      -1.008  10.013  17.756  0.00  0.00    +0.000 A 
ATOM     11  C   UNL     1       0.142  10.276  18.521  0.00  0.00    +0.000 A 
BRANCH   7  12
ATOM     12  N   UNL     1      -3.406  12.481  19.187  0.00  0.00    +0.000 N 
ATOM     13  H   UNL     1      -3.274  13.451  18.922  0.00  0.00    +0.000 HD
ATOM     14  H   UNL     1      -3.828  12.378  20.110  0.00  0.00    +0.000 HD
ENDBRANCH   7  12
BRANCH   5  16
ATOM     15  C   UNL     1       1.495  12.935  20.465  0.00  0.00    +0.000 C 
ATOM     16  O   UNL     1       1.233  11.553  20.225  0.00  0.00    +0.000 OA
ENDBRANCH   5  16
ENDBRANCH   1  11
BRANCH   3  17
ATOM     17  C   UNL     1       2.654   7.408  18.679  0.00  0.00    +0.000 C 
BRANCH  17  18
ATOM     18  C   UNL     1       2.730   6.304  19.733  0.00  0.00    +0.000 C 
BRANCH  18  19
ATOM     19  C   UNL     1       2.769   4.893  19.133  0.00  0.00    +0.000 C 
ATOM     20  C   UNL     1       1.868   4.720  17.901  0.00  0.00    +0.000 C 
ATOM     21  C   UNL     1       2.270   3.310  17.461  0.00  0.00    +0.000 C 
ATOM     22  C   UNL     1       1.588   2.332  18.422  0.00  0.00    +0.000 C 
ATOM     23  N   UNL     1       2.487   2.379  19.597  0.00  0.00    +0.000 NA
ATOM     24  C   UNL     1       3.797   2.158  18.951  0.00  0.00    +0.000 C 
ATOM     25  C   UNL     1       3.785   3.204  17.836  0.00  0.00    +0.000 C 
ATOM     26  C   UNL     1       4.120   4.558  18.479  0.00  0.00    +0.000 C 
ATOM     27  C   UNL     1       2.448   3.760  20.178  0.00  0.00    +0.000 C 
ENDBRANCH  18  19
ENDBRANCH  17  18
ENDBRANCH   3  17
TORSDOF 6
ENDMDL
MODEL 9
REMARK VINA RESULT:      -7.0      2.115      3.017
REMARK  Name = 
REMARK  7 active torsions:
REMARK  status: ('A' for Active; 'I' for Inactive)
REMARK    1  A    between atoms: C_1  and  O_2
REMARK    2  A    between atoms: O_2  and  C_3
REMARK    3  A    between atoms: C_5  and  N_6
REMARK    4  A    between atoms: C_10  and  C_11
REMARK    5  A    between atoms: N_13  and  C_14
REMARK    6  A    between atoms: C_14  and  C_15
REMARK    7  A    between atoms: C_15  and  C_16
REMARK                            x       y       z     vdW  Elec       q    Type
REMARK                         _______ _______ _______ _____ _____    ______ ____
ROOT
ATOM      1  C   UNL     1       0.231   9.058  20.845  0.00  0.00    +0.000 C 
ATOM      2  O   UNL     1      -0.452   8.409  21.633  0.00  0.00    +0.000 OA
ATOM      3  N   UNL     1       1.385   8.561  20.282  0.00  0.00    +0.000 N 
ATOM      4  H   UNL     1       1.781   9.076  19.502  0.00  0.00    +0.000 HD
ENDROOT
BRANCH   1  11
ATOM      5  C   UNL     1      -0.467  10.893  19.172  0.00  0.00    +0.000 A 
ATOM      6  C   UNL     1      -0.817  12.233  18.960  0.00  0.00    +0.000 A 
ATOM      7  C   UNL     1      -0.836  13.164  20.004  0.00  0.00    +0.000 A 
ATOM      8  C   UNL     1      -0.592  12.706  21.304  0.00  0.00    +0.000 A 
ATOM      9 CL   UNL     1      -0.671  13.789  22.648  0.00  0.00    +0.000 Cl
ATOM     10  C   UNL     1      -0.251  11.373  21.539  0.00  0.00    +0.000 A 
ATOM     11  C   UNL     1      -0.180  10.453  20.478  0.00  0.00    +0.000 A 
BRANCH   7  12
ATOM     12  N   UNL     1      -1.320  14.460  19.745  0.00  0.00    +0.000 N 
ATOM     13  H   UNL     1      -1.968  14.820  20.436  0.00  0.00    +0.000 HD
ATOM     14  H   UNL     1      -1.662  14.567  18.790  0.00  0.00    +0.000 HD
ENDBRANCH   7  12
BRANCH   5  16
ATOM     15  C   UNL     1      -1.621   9.912  17.332  0.00  0.00    +0.000 C 
ATOM     16  O   UNL     1      -0.453   9.969  18.150  0.00  0.00    +0.000 OA
ENDBRANCH   5  16
ENDBRANCH   1  11
BRANCH   3  17
ATOM     17  C   UNL     1       1.823   7.205  20.526  0.00  0.00    +0.000 C 
BRANCH  17  18
ATOM     18  C   UNL     1       2.376   6.557  19.256  0.00  0.00    +0.000 C 
BRANCH  18  19
ATOM     19  C   UNL     1       2.233   5.030  19.241  0.00  0.00    +0.000 C 
ATOM     20  C   UNL     1       3.487   4.288  19.728  0.00  0.00    +0.000 C 
ATOM     21  C   UNL     1       2.960   2.851  19.760  0.00  0.00    +0.000 C 
ATOM     22  C   UNL     1       2.914   2.361  18.310  0.00  0.00    +0.000 C 
ATOM     23  N   UNL     1       1.654   2.965  17.822  0.00  0.00    +0.000 NA
ATOM     24  C   UNL     1       0.718   2.550  18.888  0.00  0.00    +0.000 C 
ATOM     25  C   UNL     1       1.453   2.998  20.151  0.00  0.00    +0.000 C 
ATOM     26  C   UNL     1       1.236   4.512  20.291  0.00  0.00    +0.000 C 
ATOM     27  C   UNL     1       1.797   4.457  17.842  0.00  0.00    +0.000 C 
ENDBRANCH  18  19
ENDBRANCH  17  18
ENDBRANCH   3  17
TORSDOF 6
ENDMDL
