MODEL 1
REMARK VINA RESULT:      -8.2      0.000      0.000
REMARK  Name = 
REMARK  3 active torsions:
REMARK  status: ('A' for Active; 'I' for Inactive)
REMARK    1  A    between atoms: C_2  and  C_22
REMARK    2  A    between atoms: N_3  and  C_4
REMARK    3  A    between atoms: C_11  and  C_13
REMARK                            x       y       z     vdW  Elec       q    Type
REMARK                         _______ _______ _______ _____ _____    ______ ____
ROOT
ATOM      1  C   UNL     1       3.918   5.013  17.227  0.00  0.00    +0.000 A 
ATOM      2  C   UNL     1       3.673   3.932  18.066  0.00  0.00    +0.000 A 
ATOM      3  C   UNL     1       3.000   4.117  19.267  0.00  0.00    +0.000 A 
ATOM      4  C   UNL     1       2.538   5.385  19.644  0.00  0.00    +0.000 A 
ATOM      5  C   UNL     1       2.740   6.496  18.795  0.00  0.00    +0.000 A 
ATOM      6  C   UNL     1       3.463   6.289  17.605  0.00  0.00    +0.000 A 
ATOM      7  N   UNL     1       2.202   7.791  19.166  0.00  0.00    +0.000 N 
ATOM      8  C   UNL     1       1.914   8.780  18.194  0.00  0.00    +0.000 C 
ATOM      9  O   UNL     1       2.028   8.623  16.974  0.00  0.00    +0.000 OA
ATOM     10  C   UNL     1       1.868   7.926  20.596  0.00  0.00    +0.000 C 
ATOM     11  C   UNL     1       1.061   6.760  21.122  0.00  0.00    +0.000 C 
ATOM     12  C   UNL     1       1.852   5.482  20.977  0.00  0.00    +0.000 C 
ENDROOT
BRANCH   8  13
ATOM     13  C   UNL     1       1.342  10.102  18.601  0.00  0.00    +0.000 A 
ATOM     14  C   UNL     1       0.063  10.237  19.150  0.00  0.00    +0.000 A 
ATOM     15  C   UNL     1      -0.471  11.508  19.378  0.00  0.00    +0.000 A 
ATOM     16  C   UNL     1       0.307  12.644  19.159  0.00  0.00    +0.000 A 
ATOM     17  C   UNL     1       1.624  12.512  18.724  0.00  0.00    +0.000 A 
ATOM     18  C   UNL     1       2.138  11.245  18.435  0.00  0.00    +0.000 A 
ENDBRANCH   8  13
BRANCH   1  21
ATOM     19  O   UNL     1       6.783   4.424  16.770  0.00  0.00    +0.000 OA
ATOM     20  C   UNL     1       5.978   4.638  15.872  0.00  0.00    +0.000 C 
ATOM     21  N   UNL     1       4.620   4.886  16.007  0.00  0.00    +0.000 N 
ATOM     22  H   UNL     1       4.054   4.852  15.168  0.00  0.00    +0.000 HD
BRANCH  20  23
ATOM     23  C   UNL     1       6.477   4.568  14.476  0.00  0.00    +0.000 A 
ATOM     24  C   UNL     1       5.886   3.641  13.607  0.00  0.00    +0.000 A 
ATOM     25  C   UNL     1       6.342   3.526  12.295  0.00  0.00    +0.000 A 
ATOM     26  C   UNL     1       7.395   4.327  11.855  0.00  0.00    +0.000 A 
ATOM     27  C   UNL     1       8.000   5.236  12.725  0.00  0.00    +0.000 A 
ATOM     28  C   UNL     1       7.545   5.359  14.039  0.00  0.00    +0.000 A 
ENDBRANCH  20  23
ENDBRANCH   1  21
TORSDOF 3
ENDMDL
MODEL 2
REMARK VINA RESULT:      -8.2      0.134      1.318
REMARK  Name = 
REMARK  3 active torsions:
REMARK  status: ('A' for Active; 'I' for Inactive)
REMARK    1  A    between atoms: C_2  and  C_22
REMARK    2  A    between atoms: N_3  and  C_4
REMARK    3  A    between atoms: C_11  and  C_13
REMARK                            x       y       z     vdW  Elec       q    Type
REMARK                         _______ _______ _______ _____ _____    ______ ____
ROOT
ATOM      1  C   UNL     1       3.902   5.000  17.272  0.00  0.00    +0.000 A 
ATOM      2  C   UNL     1       3.659   3.945  18.144  0.00  0.00    +0.000 A 
ATOM      3  C   UNL     1       2.988   4.164  19.340  0.00  0.00    +0.000 A 
ATOM      4  C   UNL     1       2.526   5.443  19.680  0.00  0.00    +0.000 A 
ATOM      5  C   UNL     1       2.726   6.528  18.798  0.00  0.00    +0.000 A 
ATOM      6  C   UNL     1       3.448   6.286  17.613  0.00  0.00    +0.000 A 
ATOM      7  N   UNL     1       2.189   7.834  19.131  0.00  0.00    +0.000 N 
ATOM      8  C   UNL     1       1.899   8.793  18.130  0.00  0.00    +0.000 C 
ATOM      9  O   UNL     1       2.011   8.600  16.916  0.00  0.00    +0.000 OA
ATOM     10  C   UNL     1       1.857   8.011  20.557  0.00  0.00    +0.000 C 
ATOM     11  C   UNL     1       1.051   6.861  21.119  0.00  0.00    +0.000 C 
ATOM     12  C   UNL     1       1.842   5.580  21.011  0.00  0.00    +0.000 C 
ENDROOT
BRANCH   8  13
ATOM     13  C   UNL     1       1.328  10.127  18.499  0.00  0.00    +0.000 A 
ATOM     14  C   UNL     1       2.093  11.297  18.529  0.00  0.00    +0.000 A 
ATOM     15  C   UNL     1       1.540  12.484  19.018  0.00  0.00    +0.000 A 
ATOM     16  C   UNL     1       0.194  12.533  19.378  0.00  0.00    +0.000 A 
ATOM     17  C   UNL     1      -0.604  11.400  19.239  0.00  0.00    +0.000 A 
ATOM     18  C   UNL     1      -0.038  10.197  18.811  0.00  0.00    +0.000 A 
ENDBRANCH   8  13
BRANCH   1  21
ATOM     19  O   UNL     1       6.776   4.450  16.827  0.00  0.00    +0.000 OA
ATOM     20  C   UNL     1       5.964   4.610  15.925  0.00  0.00    +0.000 C 
ATOM     21  N   UNL     1       4.602   4.837  16.055  0.00  0.00    +0.000 N 
ATOM     22  H   UNL     1       4.034   4.757  15.221  0.00  0.00    +0.000 HD
BRANCH  20  23
ATOM     23  C   UNL     1       6.459   4.494  14.530  0.00  0.00    +0.000 A 
ATOM     24  C   UNL     1       7.499   5.340  14.124  0.00  0.00    +0.000 A 
ATOM     25  C   UNL     1       7.977   5.280  12.816  0.00  0.00    +0.000 A 
ATOM     26  C   UNL     1       7.407   4.386  11.911  0.00  0.00    +0.000 A 
ATOM     27  C   UNL     1       6.356   3.556  12.307  0.00  0.00    +0.000 A 
ATOM     28  C   UNL     1       5.876   3.609  13.617  0.00  0.00    +0.000 A 
ENDBRANCH  20  23
ENDBRANCH   1  21
TORSDOF 3
ENDMDL
MODEL 3
REMARK VINA RESULT:      -8.0      1.292      2.064
REMARK  Name = 
REMARK  3 active torsions:
REMARK  status: ('A' for Active; 'I' for Inactive)
REMARK    1  A    between atoms: C_2  and  C_22
REMARK    2  A    between atoms: N_3  and  C_4
REMARK    3  A    between atoms: C_11  and  C_13
REMARK                            x       y       z     vdW  Elec       q    Type
REMARK                         _______ _______ _______ _____ _____    ______ ____
ROOT
ATOM      1  C   UNL     1       4.131   3.552  16.986  0.00  0.00    +0.000 A 
ATOM      2  C   UNL     1       3.865   2.269  17.451  0.00  0.00    +0.000 A 
ATOM      3  C   UNL     1       3.203   2.084  18.657  0.00  0.00    +0.000 A 
ATOM      4  C   UNL     1       2.772   3.181  19.416  0.00  0.00    +0.000 A 
ATOM      5  C   UNL     1       2.995   4.497  18.952  0.00  0.00    +0.000 A 
ATOM      6  C   UNL     1       3.707   4.656  17.747  0.00  0.00    +0.000 A 
ATOM      7  N   UNL     1       2.490   5.623  19.714  0.00  0.00    +0.000 N 
ATOM      8  C   UNL     1       2.219   6.871  19.100  0.00  0.00    +0.000 C 
ATOM      9  O   UNL     1       2.323   7.099  17.891  0.00  0.00    +0.000 OA
ATOM     10  C   UNL     1       2.166   5.313  21.118  0.00  0.00    +0.000 C 
ATOM     11  C   UNL     1       1.336   4.058  21.266  0.00  0.00    +0.000 C 
ATOM     12  C   UNL     1       2.096   2.873  20.721  0.00  0.00    +0.000 C 
ENDROOT
BRANCH   8  13
ATOM     13  C   UNL     1       1.680   8.012  19.906  0.00  0.00    +0.000 A 
ATOM     14  C   UNL     1       1.503   7.945  21.291  0.00  0.00    +0.000 A 
ATOM     15  C   UNL     1       0.864   8.987  21.968  0.00  0.00    +0.000 A 
ATOM     16  C   UNL     1       0.496  10.144  21.283  0.00  0.00    +0.000 A 
ATOM     17  C   UNL     1       0.776  10.266  19.924  0.00  0.00    +0.000 A 
ATOM     18  C   UNL     1       1.357   9.200  19.234  0.00  0.00    +0.000 A 
ENDBRANCH   8  13
BRANCH   1  21
ATOM     19  O   UNL     1       6.967   4.290  16.573  0.00  0.00    +0.000 OA
ATOM     20  C   UNL     1       6.153   4.170  15.666  0.00  0.00    +0.000 C 
ATOM     21  N   UNL     1       4.823   3.797  15.778  0.00  0.00    +0.000 N 
ATOM     22  H   UNL     1       4.332   3.556  14.926  0.00  0.00    +0.000 HD
BRANCH  20  23
ATOM     23  C   UNL     1       6.639   4.386  14.279  0.00  0.00    +0.000 A 
ATOM     24  C   UNL     1       6.146   3.552  13.268  0.00  0.00    +0.000 A 
ATOM     25  C   UNL     1       6.594   3.704  11.957  0.00  0.00    +0.000 A 
ATOM     26  C   UNL     1       7.545   4.680  11.660  0.00  0.00    +0.000 A 
ATOM     27  C   UNL     1       8.053   5.499  12.670  0.00  0.00    +0.000 A 
ATOM     28  C   UNL     1       7.604   5.354  13.983  0.00  0.00    +0.000 A 
ENDBRANCH  20  23
ENDBRANCH   1  21
TORSDOF 3
ENDMDL
MODEL 4
REMARK VINA RESULT:      -7.9      3.060      5.651
REMARK  Name = 
REMARK  3 active torsions:
REMARK  status: ('A' for Active; 'I' for Inactive)
REMARK    1  A    between atoms: C_2  and  C_22
REMARK    2  A    between atoms: N_3  and  C_4
REMARK    3  A    between atoms: C_11  and  C_13
REMARK                            x       y       z     vdW  Elec       q    Type
REMARK                         _______ _______ _______ _____ _____    ______ ____
ROOT
ATOM      1  C   UNL     1       1.079   8.816  20.677  0.00  0.00    +0.000 A 
ATOM      2  C   UNL     1       0.232   8.395  21.695  0.00  0.00    +0.000 A 
ATOM      3  C   UNL     1      -0.491   9.321  22.435  0.00  0.00    +0.000 A 
ATOM      4  C   UNL     1      -0.398  10.692  22.157  0.00  0.00    +0.000 A 
ATOM      5  C   UNL     1       0.426  11.149  21.105  0.00  0.00    +0.000 A 
ATOM      6  C   UNL     1       1.181  10.192  20.400  0.00  0.00    +0.000 A 
ATOM      7  N   UNL     1       0.466  12.563  20.785  0.00  0.00    +0.000 N 
ATOM      8  C   UNL     1       0.828  13.021  19.495  0.00  0.00    +0.000 C 
ATOM      9  O   UNL     1       1.076  12.290  18.531  0.00  0.00    +0.000 OA
ATOM     10  C   UNL     1      -0.023  13.445  21.861  0.00  0.00    +0.000 C 
ATOM     11  C   UNL     1      -1.344  12.990  22.438  0.00  0.00    +0.000 C 
ATOM     12  C   UNL     1      -1.195  11.612  23.038  0.00  0.00    +0.000 C 
ENDROOT
BRANCH   8  13
ATOM     13  C   UNL     1       0.843  14.486  19.186  0.00  0.00    +0.000 A 
ATOM     14  C   UNL     1      -0.308  15.199  18.838  0.00  0.00    +0.000 A 
ATOM     15  C   UNL     1      -0.211  16.530  18.421  0.00  0.00    +0.000 A 
ATOM     16  C   UNL     1       1.020  17.184  18.453  0.00  0.00    +0.000 A 
ATOM     17  C   UNL     1       2.152  16.514  18.911  0.00  0.00    +0.000 A 
ATOM     18  C   UNL     1       2.068  15.166  19.267  0.00  0.00    +0.000 A 
ENDBRANCH   8  13
BRANCH   1  21
ATOM     19  O   UNL     1       1.726   8.898  17.790  0.00  0.00    +0.000 OA
ATOM     20  C   UNL     1       2.090   8.007  18.547  0.00  0.00    +0.000 C 
ATOM     21  N   UNL     1       1.856   7.919  19.910  0.00  0.00    +0.000 N 
ATOM     22  H   UNL     1       2.381   7.228  20.431  0.00  0.00    +0.000 HD
BRANCH  20  23
ATOM     23  C   UNL     1       2.928   6.924  17.974  0.00  0.00    +0.000 A 
ATOM     24  C   UNL     1       2.515   5.598  18.161  0.00  0.00    +0.000 A 
ATOM     25  C   UNL     1       3.285   4.550  17.660  0.00  0.00    +0.000 A 
ATOM     26  C   UNL     1       4.474   4.825  16.987  0.00  0.00    +0.000 A 
ATOM     27  C   UNL     1       4.899   6.144  16.817  0.00  0.00    +0.000 A 
ATOM     28  C   UNL     1       4.130   7.198  17.312  0.00  0.00    +0.000 A 
ENDBRANCH  20  23
ENDBRANCH   1  21
TORSDOF 3
ENDMDL
MODEL 5
REMARK VINA RESULT:      -7.9      3.035      5.736
REMARK  Name = 
REMARK  3 active torsions:
REMARK  status: ('A' for Active; 'I' for Inactive)
REMARK    1  A    between atoms: C_2  and  C_22
REMARK    2  A    between atoms: N_3  and  C_4
REMARK    3  A    between atoms: C_11  and  C_13
REMARK                            x       y       z     vdW  Elec       q    Type
REMARK                         _______ _______ _______ _____ _____    ______ ____
ROOT
ATOM      1  C   UNL     1       1.078   8.763  20.699  0.00  0.00    +0.000 A 
ATOM      2  C   UNL     1       0.213   8.363  21.711  0.00  0.00    +0.000 A 
ATOM      3  C   UNL     1      -0.505   9.307  22.433  0.00  0.00    +0.000 A 
ATOM      4  C   UNL     1      -0.390  10.673  22.144  0.00  0.00    +0.000 A 
ATOM      5  C   UNL     1       0.454  11.108  21.097  0.00  0.00    +0.000 A 
ATOM      6  C   UNL     1       1.203  10.134  20.411  0.00  0.00    +0.000 A 
ATOM      7  N   UNL     1       0.517  12.519  20.765  0.00  0.00    +0.000 N 
ATOM      8  C   UNL     1       0.902  12.960  19.475  0.00  0.00    +0.000 C 
ATOM      9  O   UNL     1       1.151  12.216  18.522  0.00  0.00    +0.000 OA
ATOM     10  C   UNL     1       0.028  13.418  21.826  0.00  0.00    +0.000 C 
ATOM     11  C   UNL     1      -1.307  12.987  22.392  0.00  0.00    +0.000 C 
ATOM     12  C   UNL     1      -1.184  11.613  23.006  0.00  0.00    +0.000 C 
ENDROOT
BRANCH   8  13
ATOM     13  C   UNL     1       0.941  14.421  19.153  0.00  0.00    +0.000 A 
ATOM     14  C   UNL     1       2.114  15.180  19.218  0.00  0.00    +0.000 A 
ATOM     15  C   UNL     1       2.063  16.566  19.045  0.00  0.00    +0.000 A 
ATOM     16  C   UNL     1       0.862  17.184  18.701  0.00  0.00    +0.000 A 
ATOM     17  C   UNL     1      -0.287  16.418  18.518  0.00  0.00    +0.000 A 
ATOM     18  C   UNL     1      -0.252  15.042  18.753  0.00  0.00    +0.000 A 
ENDBRANCH   8  13
BRANCH   1  21
ATOM     19  O   UNL     1       1.774   8.817  17.823  0.00  0.00    +0.000 OA
ATOM     20  C   UNL     1       2.110   7.924  18.591  0.00  0.00    +0.000 C 
ATOM     21  N   UNL     1       1.851   7.847  19.951  0.00  0.00    +0.000 N 
ATOM     22  H   UNL     1       2.356   7.150  20.484  0.00  0.00    +0.000 HD
BRANCH  20  23
ATOM     23  C   UNL     1       2.938   6.822  18.038  0.00  0.00    +0.000 A 
ATOM     24  C   UNL     1       4.112   7.157  17.351  0.00  0.00    +0.000 A 
ATOM     25  C   UNL     1       4.905   6.155  16.795  0.00  0.00    +0.000 A 
ATOM     26  C   UNL     1       4.517   4.821  16.911  0.00  0.00    +0.000 A 
ATOM     27  C   UNL     1       3.336   4.486  17.577  0.00  0.00    +0.000 A 
ATOM     28  C   UNL     1       2.541   5.485  18.140  0.00  0.00    +0.000 A 
ENDBRANCH  20  23
ENDBRANCH   1  21
TORSDOF 3
ENDMDL
MODEL 6
REMARK VINA RESULT:      -7.9      1.165      7.949
REMARK  Name = 
REMARK  3 active torsions:
REMARK  status: ('A' for Active; 'I' for Inactive)
REMARK    1  A    between atoms: C_2  and  C_22
REMARK    2  A    between atoms: N_3  and  C_4
REMARK    3  A    between atoms: C_11  and  C_13
REMARK                            x       y       z     vdW  Elec       q    Type
REMARK                         _______ _______ _______ _____ _____    ______ ____
ROOT
ATOM      1  C   UNL     1       1.939   7.379  19.711  0.00  0.00    +0.000 A 
ATOM      2  C   UNL     1       1.658   6.573  20.808  0.00  0.00    +0.000 A 
ATOM      3  C   UNL     1       2.060   5.244  20.823  0.00  0.00    +0.000 A 
ATOM      4  C   UNL     1       2.773   4.697  19.748  0.00  0.00    +0.000 A 
ATOM      5  C   UNL     1       3.105   5.500  18.634  0.00  0.00    +0.000 A 
ATOM      6  C   UNL     1       2.647   6.832  18.625  0.00  0.00    +0.000 A 
ATOM      7  N   UNL     1       3.898   4.941  17.556  0.00  0.00    +0.000 N 
ATOM      8  C   UNL     1       4.678   5.763  16.706  0.00  0.00    +0.000 C 
ATOM      9  O   UNL     1       4.807   6.985  16.831  0.00  0.00    +0.000 OA
ATOM     10  C   UNL     1       3.919   3.468  17.515  0.00  0.00    +0.000 C 
ATOM     11  C   UNL     1       4.206   2.847  18.864  0.00  0.00    +0.000 C 
ATOM     12  C   UNL     1       3.132   3.242  19.849  0.00  0.00    +0.000 C 
ENDROOT
BRANCH   8  13
ATOM     13  C   UNL     1       5.501   5.159  15.611  0.00  0.00    +0.000 A 
ATOM     14  C   UNL     1       6.894   5.277  15.557  0.00  0.00    +0.000 A 
ATOM     15  C   UNL     1       7.594   4.817  14.439  0.00  0.00    +0.000 A 
ATOM     16  C   UNL     1       6.921   4.142  13.422  0.00  0.00    +0.000 A 
ATOM     17  C   UNL     1       5.551   3.917  13.524  0.00  0.00    +0.000 A 
ATOM     18  C   UNL     1       4.839   4.432  14.610  0.00  0.00    +0.000 A 
ENDBRANCH   8  13
BRANCH   1  21
ATOM     19  O   UNL     1       1.997   9.218  17.392  0.00  0.00    +0.000 OA
ATOM     20  C   UNL     1       1.618   9.541  18.511  0.00  0.00    +0.000 C 
ATOM     21  N   UNL     1       1.531   8.730  19.632  0.00  0.00    +0.000 N 
ATOM     22  H   UNL     1       1.021   9.088  20.429  0.00  0.00    +0.000 HD
BRANCH  20  23
ATOM     23  C   UNL     1       1.137  10.933  18.694  0.00  0.00    +0.000 A 
ATOM     24  C   UNL     1      -0.209  11.130  19.027  0.00  0.00    +0.000 A 
ATOM     25  C   UNL     1      -0.707  12.423  19.183  0.00  0.00    +0.000 A 
ATOM     26  C   UNL     1       0.136  13.517  18.994  0.00  0.00    +0.000 A 
ATOM     27  C   UNL     1       1.473  13.324  18.642  0.00  0.00    +0.000 A 
ATOM     28  C   UNL     1       1.978  12.032  18.489  0.00  0.00    +0.000 A 
ENDBRANCH  20  23
ENDBRANCH   1  21
TORSDOF 3
ENDMDL
MODEL 7
REMARK VINA RESULT:      -7.8      3.914      6.719
REMARK  Name = 
REMARK  3 active torsions:
REMARK  status: ('A' for Active; 'I' for Inactive)
REMARK    1  A    between atoms: C_2  and  C_22
REMARK    2  A    between atoms: N_3  and  C_4
REMARK    3  A    between atoms: C_11  and  C_13
REMARK                            x       y       z     vdW  Elec       q    Type
REMARK                         _______ _______ _______ _____ _____    ______ ____
ROOT
ATOM      1  C   UNL     1       1.506   8.897  19.566  0.00  0.00    +0.000 A 
ATOM      2  C   UNL     1       2.079   9.472  18.437  0.00  0.00    +0.000 A 
ATOM      3  C   UNL     1       1.761  10.775  18.077  0.00  0.00    +0.000 A 
ATOM      4  C   UNL     1       0.878  11.540  18.851  0.00  0.00    +0.000 A 
ATOM      5  C   UNL     1       0.307  10.995  20.023  0.00  0.00    +0.000 A 
ATOM      6  C   UNL     1       0.613   9.658  20.341  0.00  0.00    +0.000 A 
ATOM      7  N   UNL     1      -0.556  11.816  20.850  0.00  0.00    +0.000 N 
ATOM      8  C   UNL     1      -0.736  11.546  22.229  0.00  0.00    +0.000 C 
ATOM      9  O   UNL     1      -0.150  10.658  22.856  0.00  0.00    +0.000 OA
ATOM     10  C   UNL     1      -1.104  13.003  20.170  0.00  0.00    +0.000 C 
ATOM     11  C   UNL     1      -0.051  13.790  19.422  0.00  0.00    +0.000 C 
ATOM     12  C   UNL     1       0.575  12.925  18.355  0.00  0.00    +0.000 C 
ENDROOT
BRANCH   8  13
ATOM     13  C   UNL     1      -1.618  12.420  23.065  0.00  0.00    +0.000 A 
ATOM     14  C   UNL     1      -2.901  12.038  23.468  0.00  0.00    +0.000 A 
ATOM     15  C   UNL     1      -3.731  12.951  24.125  0.00  0.00    +0.000 A 
ATOM     16  C   UNL     1      -3.246  14.209  24.477  0.00  0.00    +0.000 A 
ATOM     17  C   UNL     1      -1.929  14.555  24.183  0.00  0.00    +0.000 A 
ATOM     18  C   UNL     1      -1.119  13.668  23.470  0.00  0.00    +0.000 A 
ENDBRANCH   8  13
BRANCH   1  21
ATOM     19  O   UNL     1       3.081   6.812  18.176  0.00  0.00    +0.000 OA
ATOM     20  C   UNL     1       2.500   6.634  19.240  0.00  0.00    +0.000 C 
ATOM     21  N   UNL     1       1.775   7.568  19.964  0.00  0.00    +0.000 N 
ATOM     22  H   UNL     1       1.518   7.326  20.912  0.00  0.00    +0.000 HD
BRANCH  20  23
ATOM     23  C   UNL     1       2.624   5.296  19.871  0.00  0.00    +0.000 A 
ATOM     24  C   UNL     1       3.628   4.436  19.408  0.00  0.00    +0.000 A 
ATOM     25  C   UNL     1       3.763   3.162  19.956  0.00  0.00    +0.000 A 
ATOM     26  C   UNL     1       2.887   2.742  20.956  0.00  0.00    +0.000 A 
ATOM     27  C   UNL     1       1.871   3.589  21.404  0.00  0.00    +0.000 A 
ATOM     28  C   UNL     1       1.734   4.868  20.862  0.00  0.00    +0.000 A 
ENDBRANCH  20  23
ENDBRANCH   1  21
TORSDOF 3
ENDMDL
MODEL 8
REMARK VINA RESULT:      -7.8      7.575      8.799
REMARK  Name = 
REMARK  3 active torsions:
REMARK  status: ('A' for Active; 'I' for Inactive)
REMARK    1  A    between atoms: C_2  and  C_22
REMARK    2  A    between atoms: N_3  and  C_4
REMARK    3  A    between atoms: C_11  and  C_13
REMARK                            x       y       z     vdW  Elec       q    Type
REMARK                         _______ _______ _______ _____ _____    ______ ____
ROOT
ATOM      1  C   UNL     1       9.534  10.615  19.622  0.00  0.00    +0.000 A 
ATOM      2  C   UNL     1      10.500  11.319  18.913  0.00  0.00    +0.000 A 
ATOM      3  C   UNL     1      10.856  12.604  19.300  0.00  0.00    +0.000 A 
ATOM      4  C   UNL     1      10.267  13.206  20.420  0.00  0.00    +0.000 A 
ATOM      5  C   UNL     1       9.308  12.502  21.182  0.00  0.00    +0.000 A 
ATOM      6  C   UNL     1       8.934  11.218  20.742  0.00  0.00    +0.000 A 
ATOM      7  N   UNL     1       8.752  13.110  22.376  0.00  0.00    +0.000 N 
ATOM      8  C   UNL     1       8.217  12.325  23.427  0.00  0.00    +0.000 C 
ATOM      9  O   UNL     1       8.228  11.091  23.461  0.00  0.00    +0.000 OA
ATOM     10  C   UNL     1       8.913  14.574  22.447  0.00  0.00    +0.000 C 
ATOM     11  C   UNL     1      10.323  15.024  22.136  0.00  0.00    +0.000 C 
ATOM     12  C   UNL     1      10.697  14.611  20.733  0.00  0.00    +0.000 C 
ENDROOT
BRANCH   8  13
ATOM     13  C   UNL     1       7.666  12.977  24.657  0.00  0.00    +0.000 A 
ATOM     14  C   UNL     1       8.447  13.255  25.783  0.00  0.00    +0.000 A 
ATOM     15  C   UNL     1       7.848  13.732  26.952  0.00  0.00    +0.000 A 
ATOM     16  C   UNL     1       6.488  14.035  26.967  0.00  0.00    +0.000 A 
ATOM     17  C   UNL     1       5.725  13.872  25.813  0.00  0.00    +0.000 A 
ATOM     18  C   UNL     1       6.309  13.335  24.663  0.00  0.00    +0.000 A 
ENDBRANCH   8  13
BRANCH   1  21
ATOM     19  O   UNL     1       7.744   9.775  17.420  0.00  0.00    +0.000 OA
ATOM     20  C   UNL     1       8.246   9.001  18.225  0.00  0.00    +0.000 C 
ATOM     21  N   UNL     1       9.117   9.315  19.257  0.00  0.00    +0.000 N 
ATOM     22  H   UNL     1       9.595   8.548  19.713  0.00  0.00    +0.000 HD
BRANCH  20  23
ATOM     23  C   UNL     1       7.951   7.555  18.057  0.00  0.00    +0.000 A 
ATOM     24  C   UNL     1       7.362   7.135  16.859  0.00  0.00    +0.000 A 
ATOM     25  C   UNL     1       7.046   5.790  16.671  0.00  0.00    +0.000 A 
ATOM     26  C   UNL     1       7.306   4.870  17.685  0.00  0.00    +0.000 A 
ATOM     27  C   UNL     1       7.874   5.290  18.889  0.00  0.00    +0.000 A 
ATOM     28  C   UNL     1       8.197   6.635  19.081  0.00  0.00    +0.000 A 
ENDBRANCH  20  23
ENDBRANCH   1  21
TORSDOF 3
ENDMDL
MODEL 9
REMARK VINA RESULT:      -7.7      1.893      8.436
REMARK  Name = 
REMARK  3 active torsions:
REMARK  status: ('A' for Active; 'I' for Inactive)
REMARK    1  A    between atoms: C_2  and  C_22
REMARK    2  A    between atoms: N_3  and  C_4
REMARK    3  A    between atoms: C_11  and  C_13
REMARK                            x       y       z     vdW  Elec       q    Type
REMARK                         _______ _______ _______ _____ _____    ______ ____
ROOT
ATOM      1  C   UNL     1       1.814   6.775  20.274  0.00  0.00    +0.000 A 
ATOM      2  C   UNL     1       1.417   5.772  21.151  0.00  0.00    +0.000 A 
ATOM      3  C   UNL     1       1.711   4.443  20.874  0.00  0.00    +0.000 A 
ATOM      4  C   UNL     1       2.429   4.090  19.723  0.00  0.00    +0.000 A 
ATOM      5  C   UNL     1       2.877   5.090  18.831  0.00  0.00    +0.000 A 
ATOM      6  C   UNL     1       2.527   6.424  19.113  0.00  0.00    +0.000 A 
ATOM      7  N   UNL     1       3.672   4.718  17.677  0.00  0.00    +0.000 N 
ATOM      8  C   UNL     1       4.555   5.637  17.059  0.00  0.00    +0.000 C 
ATOM      9  O   UNL     1       4.775   6.783  17.462  0.00  0.00    +0.000 OA
ATOM     10  C   UNL     1       3.577   3.295  17.303  0.00  0.00    +0.000 C 
ATOM     11  C   UNL     1       3.749   2.365  18.483  0.00  0.00    +0.000 C 
ATOM     12  C   UNL     1       2.664   2.623  19.501  0.00  0.00    +0.000 C 
ENDROOT
BRANCH   8  13
ATOM     13  C   UNL     1       5.379   5.224  15.879  0.00  0.00    +0.000 A 
ATOM     14  C   UNL     1       4.822   4.662  14.726  0.00  0.00    +0.000 A 
ATOM     15  C   UNL     1       5.652   4.164  13.717  0.00  0.00    +0.000 A 
ATOM     16  C   UNL     1       7.034   4.322  13.808  0.00  0.00    +0.000 A 
ATOM     17  C   UNL     1       7.589   4.986  14.899  0.00  0.00    +0.000 A 
ATOM     18  C   UNL     1       6.765   5.427  15.938  0.00  0.00    +0.000 A 
ENDBRANCH   8  13
BRANCH   1  21
ATOM     19  O   UNL     1      -0.528   7.990  21.613  0.00  0.00    +0.000 OA
ATOM     20  C   UNL     1       0.380   8.636  21.105  0.00  0.00    +0.000 C 
ATOM     21  N   UNL     1       1.520   8.139  20.493  0.00  0.00    +0.000 N 
ATOM     22  H   UNL     1       2.266   8.794  20.295  0.00  0.00    +0.000 HD
BRANCH  20  23
ATOM     23  C   UNL     1       0.300  10.116  21.197  0.00  0.00    +0.000 A 
ATOM     24  C   UNL     1      -0.491  10.674  22.210  0.00  0.00    +0.000 A 
ATOM     25  C   UNL     1      -0.613  12.059  22.316  0.00  0.00    +0.000 A 
ATOM     26  C   UNL     1       0.043  12.884  21.403  0.00  0.00    +0.000 A 
ATOM     27  C   UNL     1       0.815  12.329  20.381  0.00  0.00    +0.000 A 
ATOM     28  C   UNL     1       0.944  10.944  20.272  0.00  0.00    +0.000 A 
ENDBRANCH  20  23
ENDBRANCH   1  21
TORSDOF 3
ENDMDL
