MODEL 1
REMARK VINA RESULT:      -6.9      0.000      0.000
REMARK  Name = 
REMARK  14 active torsions:
REMARK  status: ('A' for Active; 'I' for Inactive)
REMARK    1  A    between atoms: C_1  and  C_2
REMARK    2  A    between atoms: C_2  and  C_3
REMARK    3  A    between atoms: C_3  and  C_4
REMARK    4  A    between atoms: C_4  and  C_5
REMARK    5  A    between atoms: C_5  and  C_6
REMARK    6  A    between atoms: C_6  and  C_7
REMARK    7  A    between atoms: C_7  and  C_8
REMARK    8  A    between atoms: C_8  and  O_9
REMARK    9  A    between atoms: O_9  and  C_10
REMARK   10  A    between atoms: C_10  and  C_12
REMARK   11  A    between atoms: C_12  and  C_13
REMARK   12  A    between atoms: C_13  and  C_14
REMARK   13  A    between atoms: C_17  and  O_18
REMARK   14  A    between atoms: C_20  and  O_21
REMARK                            x       y       z     vdW  Elec       q    Type
REMARK                         _______ _______ _______ _____ _____    ______ ____
ROOT
ATOM      1  C   UNL     1       4.723   5.116  17.538  0.00  0.00    +0.000 C 
ENDROOT
BRANCH   1   2
ATOM      2  C   UNL     1       6.045   4.439  17.813  0.00  0.00    +0.000 C 
ATOM      3  O   UNL     1       6.573   4.423  18.918  0.00  0.00    +0.000 OA
BRANCH   2   4
ATOM      4  O   UNL     1       6.619   3.994  16.663  0.00  0.00    +0.000 OA
BRANCH   4   5
ATOM      5  C   UNL     1       6.879   4.975  15.654  0.00  0.00    +0.000 C 
BRANCH   5   6
ATOM      6  C   UNL     1       5.965   4.786  14.449  0.00  0.00    +0.000 C 
BRANCH   6   7
ATOM      7  C   UNL     1       6.346   3.497  13.723  0.00  0.00    +0.000 C 
BRANCH   7   8
ATOM      8  C   UNL     1       6.381   3.665  12.207  0.00  0.00    +0.000 C 
BRANCH   8   9
ATOM      9  C   UNL     1       5.332   2.769  11.546  0.00  0.00    +0.000 C 
BRANCH   9  10
ATOM     10  C   UNL     1       3.955   3.429  11.552  0.00  0.00    +0.000 C 
BRANCH  10  12
ATOM     11  C   UNL     1       2.885   4.459   9.524  0.00  0.00    +0.000 C 
ATOM     12  C   UNL     1       3.204   3.161  10.249  0.00  0.00    +0.000 C 
ENDBRANCH  10  12
ENDBRANCH   9  10
ENDBRANCH   8   9
ENDBRANCH   7   8
ENDBRANCH   6   7
ENDBRANCH   5   6
ENDBRANCH   4   5
ENDBRANCH   2   4
ENDBRANCH   1   2
BRANCH   1  13
ATOM     13  C   UNL     1       3.571   4.136  17.340  0.00  0.00    +0.000 C 
BRANCH  13  14
ATOM     14  C   UNL     1       2.907   3.758  18.642  0.00  0.00    +0.000 A 
ATOM     15  C   UNL     1       3.057   4.580  19.768  0.00  0.00    +0.000 A 
ATOM     16  C   UNL     1       2.481   4.225  20.989  0.00  0.00    +0.000 A 
ATOM     17  C   UNL     1       1.745   3.048  21.082  0.00  0.00    +0.000 A 
ATOM     18  C   UNL     1       1.563   2.229  19.975  0.00  0.00    +0.000 A 
ATOM     19  C   UNL     1       2.140   2.591  18.760  0.00  0.00    +0.000 A 
BRANCH  17  20
ATOM     20  O   UNL     1       1.177   2.658  22.260  0.00  0.00    +0.000 OA
ATOM     21  H   UNL     1       0.288   3.045  22.319  0.00  0.00    +0.000 HD
ENDBRANCH  17  20
BRANCH  19  22
ATOM     22  O   UNL     1       1.968   1.799  17.659  0.00  0.00    +0.000 OA
ATOM     23  H   UNL     1       2.594   1.057  17.711  0.00  0.00    +0.000 HD
ENDBRANCH  19  22
ENDBRANCH  13  14
ENDBRANCH   1  13
TORSDOF 13
ENDMDL
MODEL 2
REMARK VINA RESULT:      -6.8      1.642      2.453
REMARK  Name = 
REMARK  14 active torsions:
REMARK  status: ('A' for Active; 'I' for Inactive)
REMARK    1  A    between atoms: C_1  and  C_2
REMARK    2  A    between atoms: C_2  and  C_3
REMARK    3  A    between atoms: C_3  and  C_4
REMARK    4  A    between atoms: C_4  and  C_5
REMARK    5  A    between atoms: C_5  and  C_6
REMARK    6  A    between atoms: C_6  and  C_7
REMARK    7  A    between atoms: C_7  and  C_8
REMARK    8  A    between atoms: C_8  and  O_9
REMARK    9  A    between atoms: O_9  and  C_10
REMARK   10  A    between atoms: C_10  and  C_12
REMARK   11  A    between atoms: C_12  and  C_13
REMARK   12  A    between atoms: C_13  and  C_14
REMARK   13  A    between atoms: C_17  and  O_18
REMARK   14  A    between atoms: C_20  and  O_21
REMARK                            x       y       z     vdW  Elec       q    Type
REMARK                         _______ _______ _______ _____ _____    ______ ____
ROOT
ATOM      1  C   UNL     1       5.549   6.077  16.109  0.00  0.00    +0.000 C 
ENDROOT
BRANCH   1   2
ATOM      2  C   UNL     1       7.046   5.943  16.266  0.00  0.00    +0.000 C 
ATOM      3  O   UNL     1       7.756   6.837  16.710  0.00  0.00    +0.000 OA
BRANCH   2   4
ATOM      4  O   UNL     1       7.496   4.781  15.721  0.00  0.00    +0.000 OA
BRANCH   4   5
ATOM      5  C   UNL     1       6.530   3.976  15.038  0.00  0.00    +0.000 C 
BRANCH   5   6
ATOM      6  C   UNL     1       6.616   4.171  13.528  0.00  0.00    +0.000 C 
BRANCH   6   7
ATOM      7  C   UNL     1       5.293   3.751  12.889  0.00  0.00    +0.000 C 
BRANCH   7   8
ATOM      8  C   UNL     1       5.457   2.596  11.906  0.00  0.00    +0.000 C 
BRANCH   8   9
ATOM      9  C   UNL     1       4.267   2.539  10.945  0.00  0.00    +0.000 C 
BRANCH   9  10
ATOM     10  C   UNL     1       3.653   3.923  10.739  0.00  0.00    +0.000 C 
BRANCH  10  12
ATOM     11  C   UNL     1       2.842   4.994   8.615  0.00  0.00    +0.000 C 
ATOM     12  C   UNL     1       2.591   3.901   9.642  0.00  0.00    +0.000 C 
ENDBRANCH  10  12
ENDBRANCH   9  10
ENDBRANCH   8   9
ENDBRANCH   7   8
ENDBRANCH   6   7
ENDBRANCH   5   6
ENDBRANCH   4   5
ENDBRANCH   2   4
ENDBRANCH   1   2
BRANCH   1  13
ATOM     13  C   UNL     1       4.808   6.166  17.439  0.00  0.00    +0.000 C 
BRANCH  13  14
ATOM     14  C   UNL     1       4.155   4.859  17.823  0.00  0.00    +0.000 A 
ATOM     15  C   UNL     1       2.914   4.510  17.272  0.00  0.00    +0.000 A 
ATOM     16  C   UNL     1       2.280   3.323  17.645  0.00  0.00    +0.000 A 
ATOM     17  C   UNL     1       2.893   2.479  18.565  0.00  0.00    +0.000 A 
ATOM     18  C   UNL     1       4.133   2.793  19.108  0.00  0.00    +0.000 A 
ATOM     19  C   UNL     1       4.760   3.978  18.730  0.00  0.00    +0.000 A 
BRANCH  17  20
ATOM     20  O   UNL     1       2.301   1.318  18.968  0.00  0.00    +0.000 OA
ATOM     21  H   UNL     1       2.243   1.319  19.937  0.00  0.00    +0.000 HD
ENDBRANCH  17  20
BRANCH  19  22
ATOM     22  O   UNL     1       5.983   4.302  19.249  0.00  0.00    +0.000 OA
ATOM     23  H   UNL     1       6.672   3.941  18.666  0.00  0.00    +0.000 HD
ENDBRANCH  19  22
ENDBRANCH  13  14
ENDBRANCH   1  13
TORSDOF 13
ENDMDL
MODEL 3
REMARK VINA RESULT:      -6.7      1.733      2.277
REMARK  Name = 
REMARK  14 active torsions:
REMARK  status: ('A' for Active; 'I' for Inactive)
REMARK    1  A    between atoms: C_1  and  C_2
REMARK    2  A    between atoms: C_2  and  C_3
REMARK    3  A    between atoms: C_3  and  C_4
REMARK    4  A    between atoms: C_4  and  C_5
REMARK    5  A    between atoms: C_5  and  C_6
REMARK    6  A    between atoms: C_6  and  C_7
REMARK    7  A    between atoms: C_7  and  C_8
REMARK    8  A    between atoms: C_8  and  O_9
REMARK    9  A    between atoms: O_9  and  C_10
REMARK   10  A    between atoms: C_10  and  C_12
REMARK   11  A    between atoms: C_12  and  C_13
REMARK   12  A    between atoms: C_13  and  C_14
REMARK   13  A    between atoms: C_17  and  O_18
REMARK   14  A    between atoms: C_20  and  O_21
REMARK                            x       y       z     vdW  Elec       q    Type
REMARK                         _______ _______ _______ _____ _____    ______ ____
ROOT
ATOM      1  C   UNL     1       5.407   6.722  17.390  0.00  0.00    +0.000 C 
ENDROOT
BRANCH   1   2
ATOM      2  C   UNL     1       6.735   6.518  16.699  0.00  0.00    +0.000 C 
ATOM      3  O   UNL     1       7.767   7.073  17.054  0.00  0.00    +0.000 OA
BRANCH   2   4
ATOM      4  O   UNL     1       6.594   5.772  15.571  0.00  0.00    +0.000 OA
BRANCH   4   5
ATOM      5  C   UNL     1       6.689   4.353  15.724  0.00  0.00    +0.000 C 
BRANCH   5   6
ATOM      6  C   UNL     1       5.873   3.626  14.661  0.00  0.00    +0.000 C 
BRANCH   6   7
ATOM      7  C   UNL     1       6.322   4.088  13.276  0.00  0.00    +0.000 C 
BRANCH   7   8
ATOM      8  C   UNL     1       5.816   3.178  12.161  0.00  0.00    +0.000 C 
BRANCH   8   9
ATOM      9  C   UNL     1       4.500   3.712  11.590  0.00  0.00    +0.000 C 
BRANCH   9  10
ATOM     10  C   UNL     1       3.656   2.586  10.997  0.00  0.00    +0.000 C 
BRANCH  10  12
ATOM     11  C   UNL     1       3.027   4.566   9.582  0.00  0.00    +0.000 C 
ATOM     12  C   UNL     1       2.752   3.100   9.878  0.00  0.00    +0.000 C 
ENDBRANCH  10  12
ENDBRANCH   9  10
ENDBRANCH   8   9
ENDBRANCH   7   8
ENDBRANCH   6   7
ENDBRANCH   5   6
ENDBRANCH   4   5
ENDBRANCH   2   4
ENDBRANCH   1   2
BRANCH   1  13
ATOM     13  C   UNL     1       5.228   5.845  18.626  0.00  0.00    +0.000 C 
BRANCH  13  14
ATOM     14  C   UNL     1       4.123   4.830  18.456  0.00  0.00    +0.000 A 
ATOM     15  C   UNL     1       2.883   5.229  17.937  0.00  0.00    +0.000 A 
ATOM     16  C   UNL     1       1.838   4.310  17.809  0.00  0.00    +0.000 A 
ATOM     17  C   UNL     1       2.038   2.988  18.194  0.00  0.00    +0.000 A 
ATOM     18  C   UNL     1       3.265   2.566  18.690  0.00  0.00    +0.000 A 
ATOM     19  C   UNL     1       4.303   3.487  18.813  0.00  0.00    +0.000 A 
BRANCH  17  20
ATOM     20  O   UNL     1       1.040   2.063  18.100  0.00  0.00    +0.000 OA
ATOM     21  H   UNL     1       1.432   1.177  18.164  0.00  0.00    +0.000 HD
ENDBRANCH  17  20
BRANCH  19  22
ATOM     22  O   UNL     1       5.518   3.089  19.295  0.00  0.00    +0.000 OA
ATOM     23  H   UNL     1       6.179   3.764  19.064  0.00  0.00    +0.000 HD
ENDBRANCH  19  22
ENDBRANCH  13  14
ENDBRANCH   1  13
TORSDOF 13
ENDMDL
MODEL 4
REMARK VINA RESULT:      -6.7      3.029      5.638
REMARK  Name = 
REMARK  14 active torsions:
REMARK  status: ('A' for Active; 'I' for Inactive)
REMARK    1  A    between atoms: C_1  and  C_2
REMARK    2  A    between atoms: C_2  and  C_3
REMARK    3  A    between atoms: C_3  and  C_4
REMARK    4  A    between atoms: C_4  and  C_5
REMARK    5  A    between atoms: C_5  and  C_6
REMARK    6  A    between atoms: C_6  and  C_7
REMARK    7  A    between atoms: C_7  and  C_8
REMARK    8  A    between atoms: C_8  and  O_9
REMARK    9  A    between atoms: O_9  and  C_10
REMARK   10  A    between atoms: C_10  and  C_12
REMARK   11  A    between atoms: C_12  and  C_13
REMARK   12  A    between atoms: C_13  and  C_14
REMARK   13  A    between atoms: C_17  and  O_18
REMARK   14  A    between atoms: C_20  and  O_21
REMARK                            x       y       z     vdW  Elec       q    Type
REMARK                         _______ _______ _______ _____ _____    ______ ____
ROOT
ATOM      1  C   UNL     1       1.428   4.669  20.648  0.00  0.00    +0.000 C 
ENDROOT
BRANCH   1   2
ATOM      2  C   UNL     1       1.776   3.256  21.056  0.00  0.00    +0.000 C 
ATOM      3  O   UNL     1       1.386   2.745  22.098  0.00  0.00    +0.000 OA
BRANCH   2   4
ATOM      4  O   UNL     1       2.676   2.704  20.200  0.00  0.00    +0.000 OA
BRANCH   4   5
ATOM      5  C   UNL     1       2.144   2.002  19.072  0.00  0.00    +0.000 C 
BRANCH   5   6
ATOM      6  C   UNL     1       3.157   1.933  17.935  0.00  0.00    +0.000 C 
BRANCH   6   7
ATOM      7  C   UNL     1       4.096   3.134  18.021  0.00  0.00    +0.000 C 
BRANCH   7   8
ATOM      8  C   UNL     1       4.061   3.999  16.765  0.00  0.00    +0.000 C 
BRANCH   8   9
ATOM      9  C   UNL     1       5.346   4.822  16.646  0.00  0.00    +0.000 C 
BRANCH   9  10
ATOM     10  C   UNL     1       6.406   4.081  15.835  0.00  0.00    +0.000 C 
BRANCH  10  12
ATOM     11  C   UNL     1       6.079   3.781  13.361  0.00  0.00    +0.000 C 
ATOM     12  C   UNL     1       6.587   4.708  14.453  0.00  0.00    +0.000 C 
ENDBRANCH  10  12
ENDBRANCH   9  10
ENDBRANCH   8   9
ENDBRANCH   7   8
ENDBRANCH   6   7
ENDBRANCH   5   6
ENDBRANCH   4   5
ENDBRANCH   2   4
ENDBRANCH   1   2
BRANCH   1  13
ATOM     13  C   UNL     1       2.650   5.567  20.478  0.00  0.00    +0.000 C 
BRANCH  13  14
ATOM     14  C   UNL     1       2.349   6.799  19.658  0.00  0.00    +0.000 A 
ATOM     15  C   UNL     1       2.639   6.814  18.287  0.00  0.00    +0.000 A 
ATOM     16  C   UNL     1       2.402   7.959  17.523  0.00  0.00    +0.000 A 
ATOM     17  C   UNL     1       1.865   9.089  18.132  0.00  0.00    +0.000 A 
ATOM     18  C   UNL     1       1.548   9.090  19.484  0.00  0.00    +0.000 A 
ATOM     19  C   UNL     1       1.786   7.944  20.239  0.00  0.00    +0.000 A 
BRANCH  17  20
ATOM     20  O   UNL     1       1.631  10.232  17.425  0.00  0.00    +0.000 OA
ATOM     21  H   UNL     1       2.031  10.978  17.901  0.00  0.00    +0.000 HD
ENDBRANCH  17  20
BRANCH  19  22
ATOM     22  O   UNL     1       1.477   7.924  21.571  0.00  0.00    +0.000 OA
ATOM     23  H   UNL     1       1.893   8.694  21.996  0.00  0.00    +0.000 HD
ENDBRANCH  19  22
ENDBRANCH  13  14
ENDBRANCH   1  13
TORSDOF 13
ENDMDL
MODEL 5
REMARK VINA RESULT:      -6.5      1.520      1.867
REMARK  Name = 
REMARK  14 active torsions:
REMARK  status: ('A' for Active; 'I' for Inactive)
REMARK    1  A    between atoms: C_1  and  C_2
REMARK    2  A    between atoms: C_2  and  C_3
REMARK    3  A    between atoms: C_3  and  C_4
REMARK    4  A    between atoms: C_4  and  C_5
REMARK    5  A    between atoms: C_5  and  C_6
REMARK    6  A    between atoms: C_6  and  C_7
REMARK    7  A    between atoms: C_7  and  C_8
REMARK    8  A    between atoms: C_8  and  O_9
REMARK    9  A    between atoms: O_9  and  C_10
REMARK   10  A    between atoms: C_10  and  C_12
REMARK   11  A    between atoms: C_12  and  C_13
REMARK   12  A    between atoms: C_13  and  C_14
REMARK   13  A    between atoms: C_17  and  O_18
REMARK   14  A    between atoms: C_20  and  O_21
REMARK                            x       y       z     vdW  Elec       q    Type
REMARK                         _______ _______ _______ _____ _____    ______ ____
ROOT
ATOM      1  C   UNL     1       5.163   5.306  17.108  0.00  0.00    +0.000 C 
ENDROOT
BRANCH   1   2
ATOM      2  C   UNL     1       6.482   5.703  16.486  0.00  0.00    +0.000 C 
ATOM      3  O   UNL     1       7.462   6.028  17.143  0.00  0.00    +0.000 OA
BRANCH   2   4
ATOM      4  O   UNL     1       6.380   5.791  15.133  0.00  0.00    +0.000 OA
BRANCH   4   5
ATOM      5  C   UNL     1       5.518   4.846  14.491  0.00  0.00    +0.000 C 
BRANCH   5   6
ATOM      6  C   UNL     1       6.296   3.942  13.542  0.00  0.00    +0.000 C 
BRANCH   6   7
ATOM      7  C   UNL     1       5.602   3.922  12.181  0.00  0.00    +0.000 C 
BRANCH   7   8
ATOM      8  C   UNL     1       5.131   2.527  11.782  0.00  0.00    +0.000 C 
BRANCH   8   9
ATOM      9  C   UNL     1       3.874   2.614  10.915  0.00  0.00    +0.000 C 
BRANCH   9  10
ATOM     10  C   UNL     1       3.506   4.066  10.615  0.00  0.00    +0.000 C 
BRANCH  10  12
ATOM     11  C   UNL     1       1.967   5.158   8.955  0.00  0.00    +0.000 C 
ATOM     12  C   UNL     1       3.182   4.262   9.135  0.00  0.00    +0.000 C 
ENDBRANCH  10  12
ENDBRANCH   9  10
ENDBRANCH   8   9
ENDBRANCH   7   8
ENDBRANCH   6   7
ENDBRANCH   5   6
ENDBRANCH   4   5
ENDBRANCH   2   4
ENDBRANCH   1   2
BRANCH   1  13
ATOM     13  C   UNL     1       5.108   5.550  18.613  0.00  0.00    +0.000 C 
BRANCH  13  14
ATOM     14  C   UNL     1       3.951   4.835  19.270  0.00  0.00    +0.000 A 
ATOM     15  C   UNL     1       2.715   5.483  19.404  0.00  0.00    +0.000 A 
ATOM     16  C   UNL     1       1.646   4.849  20.042  0.00  0.00    +0.000 A 
ATOM     17  C   UNL     1       1.813   3.561  20.540  0.00  0.00    +0.000 A 
ATOM     18  C   UNL     1       3.021   2.890  20.398  0.00  0.00    +0.000 A 
ATOM     19  C   UNL     1       4.082   3.528  19.759  0.00  0.00    +0.000 A 
BRANCH  17  20
ATOM     20  O   UNL     1       0.800   2.911  21.182  0.00  0.00    +0.000 OA
ATOM     21  H   UNL     1      -0.026   3.067  20.696  0.00  0.00    +0.000 HD
ENDBRANCH  17  20
BRANCH  19  22
ATOM     22  O   UNL     1       5.278   2.883  19.607  0.00  0.00    +0.000 OA
ATOM     23  H   UNL     1       5.128   2.073  19.089  0.00  0.00    +0.000 HD
ENDBRANCH  19  22
ENDBRANCH  13  14
ENDBRANCH   1  13
TORSDOF 13
ENDMDL
MODEL 6
REMARK VINA RESULT:      -6.4      1.196      1.405
REMARK  Name = 
REMARK  14 active torsions:
REMARK  status: ('A' for Active; 'I' for Inactive)
REMARK    1  A    between atoms: C_1  and  C_2
REMARK    2  A    between atoms: C_2  and  C_3
REMARK    3  A    between atoms: C_3  and  C_4
REMARK    4  A    between atoms: C_4  and  C_5
REMARK    5  A    between atoms: C_5  and  C_6
REMARK    6  A    between atoms: C_6  and  C_7
REMARK    7  A    between atoms: C_7  and  C_8
REMARK    8  A    between atoms: C_8  and  O_9
REMARK    9  A    between atoms: O_9  and  C_10
REMARK   10  A    between atoms: C_10  and  C_12
REMARK   11  A    between atoms: C_12  and  C_13
REMARK   12  A    between atoms: C_13  and  C_14
REMARK   13  A    between atoms: C_17  and  O_18
REMARK   14  A    between atoms: C_20  and  O_21
REMARK                            x       y       z     vdW  Elec       q    Type
REMARK                         _______ _______ _______ _____ _____    ______ ____
ROOT
ATOM      1  C   UNL     1       4.211   5.408  17.263  0.00  0.00    +0.000 C 
ENDROOT
BRANCH   1   2
ATOM      2  C   UNL     1       5.550   5.729  17.884  0.00  0.00    +0.000 C 
ATOM      3  O   UNL     1       5.794   5.562  19.072  0.00  0.00    +0.000 OA
BRANCH   2   4
ATOM      4  O   UNL     1       6.370   6.350  16.994  0.00  0.00    +0.000 OA
BRANCH   4   5
ATOM      5  C   UNL     1       6.197   6.008  15.616  0.00  0.00    +0.000 C 
BRANCH   5   6
ATOM      6  C   UNL     1       7.017   4.778  15.244  0.00  0.00    +0.000 C 
BRANCH   6   7
ATOM      7  C   UNL     1       6.144   3.809  14.449  0.00  0.00    +0.000 C 
BRANCH   7   8
ATOM      8  C   UNL     1       6.089   4.151  12.963  0.00  0.00    +0.000 C 
BRANCH   8   9
ATOM      9  C   UNL     1       6.444   2.925  12.119  0.00  0.00    +0.000 C 
BRANCH   9  10
ATOM     10  C   UNL     1       5.227   2.404  11.359  0.00  0.00    +0.000 C 
BRANCH  10  12
ATOM     11  C   UNL     1       3.318   3.517  10.161  0.00  0.00    +0.000 C 
ATOM     12  C   UNL     1       4.041   3.358  11.489  0.00  0.00    +0.000 C 
ENDBRANCH  10  12
ENDBRANCH   9  10
ENDBRANCH   8   9
ENDBRANCH   7   8
ENDBRANCH   6   7
ENDBRANCH   5   6
ENDBRANCH   4   5
ENDBRANCH   2   4
ENDBRANCH   1   2
BRANCH   1  13
ATOM     13  C   UNL     1       3.036   6.052  17.992  0.00  0.00    +0.000 C 
BRANCH  13  14
ATOM     14  C   UNL     1       2.415   5.128  19.012  0.00  0.00    +0.000 A 
ATOM     15  C   UNL     1       2.759   5.251  20.366  0.00  0.00    +0.000 A 
ATOM     16  C   UNL     1       2.222   4.379  21.317  0.00  0.00    +0.000 A 
ATOM     17  C   UNL     1       1.334   3.389  20.912  0.00  0.00    +0.000 A 
ATOM     18  C   UNL     1       0.961   3.262  19.580  0.00  0.00    +0.000 A 
ATOM     19  C   UNL     1       1.499   4.136  18.638  0.00  0.00    +0.000 A 
BRANCH  17  20
ATOM     20  O   UNL     1       0.798   2.508  21.806  0.00  0.00    +0.000 OA
ATOM     21  H   UNL     1       1.202   2.665  22.676  0.00  0.00    +0.000 HD
ENDBRANCH  17  20
BRANCH  19  22
ATOM     22  O   UNL     1       1.141   4.030  17.323  0.00  0.00    +0.000 OA
ATOM     23  H   UNL     1       1.000   3.090  17.116  0.00  0.00    +0.000 HD
ENDBRANCH  19  22
ENDBRANCH  13  14
ENDBRANCH   1  13
TORSDOF 13
ENDMDL
MODEL 7
REMARK VINA RESULT:      -6.4      1.584      2.053
REMARK  Name = 
REMARK  14 active torsions:
REMARK  status: ('A' for Active; 'I' for Inactive)
REMARK    1  A    between atoms: C_1  and  C_2
REMARK    2  A    between atoms: C_2  and  C_3
REMARK    3  A    between atoms: C_3  and  C_4
REMARK    4  A    between atoms: C_4  and  C_5
REMARK    5  A    between atoms: C_5  and  C_6
REMARK    6  A    between atoms: C_6  and  C_7
REMARK    7  A    between atoms: C_7  and  C_8
REMARK    8  A    between atoms: C_8  and  O_9
REMARK    9  A    between atoms: O_9  and  C_10
REMARK   10  A    between atoms: C_10  and  C_12
REMARK   11  A    between atoms: C_12  and  C_13
REMARK   12  A    between atoms: C_13  and  C_14
REMARK   13  A    between atoms: C_17  and  O_18
REMARK   14  A    between atoms: C_20  and  O_21
REMARK                            x       y       z     vdW  Elec       q    Type
REMARK                         _______ _______ _______ _____ _____    ______ ____
ROOT
ATOM      1  C   UNL     1       5.326   6.007  18.046  0.00  0.00    +0.000 C 
ENDROOT
BRANCH   1   2
ATOM      2  C   UNL     1       6.565   5.813  17.203  0.00  0.00    +0.000 C 
ATOM      3  O   UNL     1       7.169   6.740  16.677  0.00  0.00    +0.000 OA
BRANCH   2   4
ATOM      4  O   UNL     1       6.818   4.493  16.995  0.00  0.00    +0.000 OA
BRANCH   4   5
ATOM      5  C   UNL     1       7.346   4.135  15.714  0.00  0.00    +0.000 C 
BRANCH   5   6
ATOM      6  C   UNL     1       6.341   4.418  14.603  0.00  0.00    +0.000 C 
BRANCH   6   7
ATOM      7  C   UNL     1       7.081   4.956  13.379  0.00  0.00    +0.000 C 
BRANCH   7   8
ATOM      8  C   UNL     1       6.579   4.345  12.075  0.00  0.00    +0.000 C 
BRANCH   8   9
ATOM      9  C   UNL     1       6.416   2.831  12.221  0.00  0.00    +0.000 C 
BRANCH   9  10
ATOM     10  C   UNL     1       5.217   2.323  11.423  0.00  0.00    +0.000 C 
BRANCH  10  12
ATOM     11  C   UNL     1       3.344   3.349  10.098  0.00  0.00    +0.000 C 
ATOM     12  C   UNL     1       4.075   3.337  11.430  0.00  0.00    +0.000 C 
ENDBRANCH  10  12
ENDBRANCH   9  10
ENDBRANCH   8   9
ENDBRANCH   7   8
ENDBRANCH   6   7
ENDBRANCH   5   6
ENDBRANCH   4   5
ENDBRANCH   2   4
ENDBRANCH   1   2
BRANCH   1  13
ATOM     13  C   UNL     1       5.126   4.909  19.086  0.00  0.00    +0.000 C 
BRANCH  13  14
ATOM     14  C   UNL     1       3.859   4.121  18.854  0.00  0.00    +0.000 A 
ATOM     15  C   UNL     1       2.755   4.736  18.246  0.00  0.00    +0.000 A 
ATOM     16  C   UNL     1       1.563   4.031  18.059  0.00  0.00    +0.000 A 
ATOM     17  C   UNL     1       1.480   2.706  18.473  0.00  0.00    +0.000 A 
ATOM     18  C   UNL     1       2.567   2.069  19.057  0.00  0.00    +0.000 A 
ATOM     19  C   UNL     1       3.753   2.778  19.239  0.00  0.00    +0.000 A 
BRANCH  17  20
ATOM     20  O   UNL     1       0.330   1.987  18.322  0.00  0.00    +0.000 OA
ATOM     21  H   UNL     1      -0.282   2.494  17.764  0.00  0.00    +0.000 HD
ENDBRANCH  17  20
BRANCH  19  22
ATOM     22  O   UNL     1       4.835   2.166  19.808  0.00  0.00    +0.000 OA
ATOM     23  H   UNL     1       4.653   2.032  20.753  0.00  0.00    +0.000 HD
ENDBRANCH  19  22
ENDBRANCH  13  14
ENDBRANCH   1  13
TORSDOF 13
ENDMDL
MODEL 8
REMARK VINA RESULT:      -6.4      1.595      2.052
REMARK  Name = 
REMARK  14 active torsions:
REMARK  status: ('A' for Active; 'I' for Inactive)
REMARK    1  A    between atoms: C_1  and  C_2
REMARK    2  A    between atoms: C_2  and  C_3
REMARK    3  A    between atoms: C_3  and  C_4
REMARK    4  A    between atoms: C_4  and  C_5
REMARK    5  A    between atoms: C_5  and  C_6
REMARK    6  A    between atoms: C_6  and  C_7
REMARK    7  A    between atoms: C_7  and  C_8
REMARK    8  A    between atoms: C_8  and  O_9
REMARK    9  A    between atoms: O_9  and  C_10
REMARK   10  A    between atoms: C_10  and  C_12
REMARK   11  A    between atoms: C_12  and  C_13
REMARK   12  A    between atoms: C_13  and  C_14
REMARK   13  A    between atoms: C_17  and  O_18
REMARK   14  A    between atoms: C_20  and  O_21
REMARK                            x       y       z     vdW  Elec       q    Type
REMARK                         _______ _______ _______ _____ _____    ______ ____
ROOT
ATOM      1  C   UNL     1       5.474   5.853  17.849  0.00  0.00    +0.000 C 
ENDROOT
BRANCH   1   2
ATOM      2  C   UNL     1       5.832   6.293  16.448  0.00  0.00    +0.000 C 
ATOM      3  O   UNL     1       5.027   6.801  15.679  0.00  0.00    +0.000 OA
BRANCH   2   4
ATOM      4  O   UNL     1       7.099   5.920  16.124  0.00  0.00    +0.000 OA
BRANCH   4   5
ATOM      5  C   UNL     1       7.243   4.686  15.414  0.00  0.00    +0.000 C 
BRANCH   5   6
ATOM      6  C   UNL     1       6.973   4.871  13.925  0.00  0.00    +0.000 C 
BRANCH   6   7
ATOM      7  C   UNL     1       6.348   3.595  13.363  0.00  0.00    +0.000 C 
BRANCH   7   8
ATOM      8  C   UNL     1       5.008   3.848  12.680  0.00  0.00    +0.000 C 
BRANCH   8   9
ATOM      9  C   UNL     1       4.929   3.085  11.356  0.00  0.00    +0.000 C 
BRANCH   9  10
ATOM     10  C   UNL     1       3.490   2.999  10.851  0.00  0.00    +0.000 C 
BRANCH  10  12
ATOM     11  C   UNL     1       2.934   4.230   8.732  0.00  0.00    +0.000 C 
ATOM     12  C   UNL     1       3.033   4.325  10.246  0.00  0.00    +0.000 C 
ENDBRANCH  10  12
ENDBRANCH   9  10
ENDBRANCH   8   9
ENDBRANCH   7   8
ENDBRANCH   6   7
ENDBRANCH   5   6
ENDBRANCH   4   5
ENDBRANCH   2   4
ENDBRANCH   1   2
BRANCH   1  13
ATOM     13  C   UNL     1       5.434   4.338  18.014  0.00  0.00    +0.000 C 
BRANCH  13  14
ATOM     14  C   UNL     1       4.043   3.827  18.305  0.00  0.00    +0.000 A 
ATOM     15  C   UNL     1       2.934   4.441  17.706  0.00  0.00    +0.000 A 
ATOM     16  C   UNL     1       1.639   4.005  17.994  0.00  0.00    +0.000 A 
ATOM     17  C   UNL     1       1.454   2.947  18.878  0.00  0.00    +0.000 A 
ATOM     18  C   UNL     1       2.538   2.308  19.466  0.00  0.00    +0.000 A 
ATOM     19  C   UNL     1       3.827   2.748  19.173  0.00  0.00    +0.000 A 
BRANCH  17  20
ATOM     20  O   UNL     1       0.205   2.499  19.198  0.00  0.00    +0.000 OA
ATOM     21  H   UNL     1      -0.159   2.024  18.433  0.00  0.00    +0.000 HD
ENDBRANCH  17  20
BRANCH  19  22
ATOM     22  O   UNL     1       4.907   2.129  19.739  0.00  0.00    +0.000 OA
ATOM     23  H   UNL     1       4.737   2.021  20.690  0.00  0.00    +0.000 HD
ENDBRANCH  19  22
ENDBRANCH  13  14
ENDBRANCH   1  13
TORSDOF 13
ENDMDL
MODEL 9
REMARK VINA RESULT:      -6.4      3.915      6.335
REMARK  Name = 
REMARK  14 active torsions:
REMARK  status: ('A' for Active; 'I' for Inactive)
REMARK    1  A    between atoms: C_1  and  C_2
REMARK    2  A    between atoms: C_2  and  C_3
REMARK    3  A    between atoms: C_3  and  C_4
REMARK    4  A    between atoms: C_4  and  C_5
REMARK    5  A    between atoms: C_5  and  C_6
REMARK    6  A    between atoms: C_6  and  C_7
REMARK    7  A    between atoms: C_7  and  C_8
REMARK    8  A    between atoms: C_8  and  O_9
REMARK    9  A    between atoms: O_9  and  C_10
REMARK   10  A    between atoms: C_10  and  C_12
REMARK   11  A    between atoms: C_12  and  C_13
REMARK   12  A    between atoms: C_13  and  C_14
REMARK   13  A    between atoms: C_17  and  O_18
REMARK   14  A    between atoms: C_20  and  O_21
REMARK                            x       y       z     vdW  Elec       q    Type
REMARK                         _______ _______ _______ _____ _____    ______ ____
ROOT
ATOM      1  C   UNL     1       4.479   7.538  17.360  0.00  0.00    +0.000 C 
ENDROOT
BRANCH   1   2
ATOM      2  C   UNL     1       5.224   6.517  16.534  0.00  0.00    +0.000 C 
ATOM      3  O   UNL     1       5.204   6.501  15.309  0.00  0.00    +0.000 OA
BRANCH   2   4
ATOM      4  O   UNL     1       5.782   5.558  17.321  0.00  0.00    +0.000 OA
BRANCH   4   5
ATOM      5  C   UNL     1       5.334   4.216  17.114  0.00  0.00    +0.000 C 
BRANCH   5   6
ATOM      6  C   UNL     1       4.170   3.872  18.035  0.00  0.00    +0.000 C 
BRANCH   6   7
ATOM      7  C   UNL     1       2.931   3.571  17.193  0.00  0.00    +0.000 C 
BRANCH   7   8
ATOM      8  C   UNL     1       1.632   3.917  17.915  0.00  0.00    +0.000 C 
BRANCH   8   9
ATOM      9  C   UNL     1       0.963   2.648  18.449  0.00  0.00    +0.000 C 
BRANCH   9  10
ATOM     10  C   UNL     1       1.228   2.469  19.943  0.00  0.00    +0.000 C 
BRANCH  10  12
ATOM     11  C   UNL     1       2.364   3.950  21.626  0.00  0.00    +0.000 C 
ATOM     12  C   UNL     1       1.184   3.807  20.679  0.00  0.00    +0.000 C 
ENDBRANCH  10  12
ENDBRANCH   9  10
ENDBRANCH   8   9
ENDBRANCH   7   8
ENDBRANCH   6   7
ENDBRANCH   5   6
ENDBRANCH   4   5
ENDBRANCH   2   4
ENDBRANCH   1   2
BRANCH   1  13
ATOM     13  C   UNL     1       2.964   7.363  17.316  0.00  0.00    +0.000 C 
BRANCH  13  14
ATOM     14  C   UNL     1       2.282   7.945  18.530  0.00  0.00    +0.000 A 
ATOM     15  C   UNL     1       2.202   7.195  19.713  0.00  0.00    +0.000 A 
ATOM     16  C   UNL     1       1.540   7.704  20.833  0.00  0.00    +0.000 A 
ATOM     17  C   UNL     1       0.965   8.969  20.772  0.00  0.00    +0.000 A 
ATOM     18  C   UNL     1       1.052   9.739  19.620  0.00  0.00    +0.000 A 
ATOM     19  C   UNL     1       1.714   9.225  18.507  0.00  0.00    +0.000 A 
BRANCH  17  20
ATOM     20  O   UNL     1       0.299   9.497  21.839  0.00  0.00    +0.000 OA
ATOM     21  H   UNL     1      -0.653   9.348  21.714  0.00  0.00    +0.000 HD
ENDBRANCH  17  20
BRANCH  19  22
ATOM     22  O   UNL     1       1.813   9.971  17.365  0.00  0.00    +0.000 OA
ATOM     23  H   UNL     1       2.055   9.381  16.631  0.00  0.00    +0.000 HD
ENDBRANCH  19  22
ENDBRANCH  13  14
ENDBRANCH   1  13
TORSDOF 13
ENDMDL
