MODEL 1
REMARK VINA RESULT:      -6.4      0.000      0.000
REMARK  Name = 
REMARK  1 active torsions:
REMARK  status: ('A' for Active; 'I' for Inactive)
REMARK    1  A    between atoms: N_6  and  C_7
REMARK                            x       y       z     vdW  Elec       q    Type
REMARK                         _______ _______ _______ _____ _____    ______ ____
ROOT
ATOM      1  O   UNL     1       7.705   4.991  15.498  0.00  0.00    +0.000 OA
ATOM      2  C   UNL     1       6.726   4.748  16.176  0.00  0.00    +0.000 C 
ATOM      3  C   UNL     1       5.355   4.793  15.700  0.00  0.00    +0.000 C 
ATOM      4  C   UNL     1       4.571   4.438  16.709  0.00  0.00    +0.000 C 
ATOM      5  C   UNL     1       5.418   4.258  17.888  0.00  0.00    +0.000 C 
ATOM      6  N   UNL     1       5.168   4.046  19.130  0.00  0.00    +0.000 NA
ATOM      7  O   UNL     1       6.701   4.395  17.477  0.00  0.00    +0.000 OA
ENDROOT
BRANCH   6   8
ATOM      8  C   UNL     1       3.862   3.985  19.636  0.00  0.00    +0.000 A 
ATOM      9  C   UNL     1       3.335   2.732  19.963  0.00  0.00    +0.000 A 
ATOM     10  C   UNL     1       2.057   2.612  20.520  0.00  0.00    +0.000 A 
ATOM     11  C   UNL     1       1.287   3.751  20.746  0.00  0.00    +0.000 A 
ATOM     12  C   UNL     1       1.808   5.007  20.452  0.00  0.00    +0.000 A 
ATOM     13  C   UNL     1       3.099   5.121  19.936  0.00  0.00    +0.000 A 
ENDBRANCH   6   8
TORSDOF 1
ENDMDL
MODEL 2
REMARK VINA RESULT:      -6.4      1.301      1.876
REMARK  Name = 
REMARK  1 active torsions:
REMARK  status: ('A' for Active; 'I' for Inactive)
REMARK    1  A    between atoms: N_6  and  C_7
REMARK                            x       y       z     vdW  Elec       q    Type
REMARK                         _______ _______ _______ _____ _____    ______ ____
ROOT
ATOM      1  O   UNL     1       7.862   4.670  16.333  0.00  0.00    +0.000 OA
ATOM      2  C   UNL     1       6.915   4.584  17.089  0.00  0.00    +0.000 C 
ATOM      3  C   UNL     1       6.848   5.191  18.406  0.00  0.00    +0.000 C 
ATOM      4  C   UNL     1       5.657   4.907  18.915  0.00  0.00    +0.000 C 
ATOM      5  C   UNL     1       4.971   4.021  17.975  0.00  0.00    +0.000 C 
ATOM      6  N   UNL     1       3.872   3.359  18.028  0.00  0.00    +0.000 NA
ATOM      7  O   UNL     1       5.757   3.927  16.876  0.00  0.00    +0.000 OA
ENDROOT
BRANCH   6   8
ATOM      8  C   UNL     1       3.057   3.341  19.169  0.00  0.00    +0.000 A 
ATOM      9  C   UNL     1       1.797   3.942  19.093  0.00  0.00    +0.000 A 
ATOM     10  C   UNL     1       0.919   3.910  20.182  0.00  0.00    +0.000 A 
ATOM     11  C   UNL     1       1.301   3.283  21.366  0.00  0.00    +0.000 A 
ATOM     12  C   UNL     1       2.541   2.656  21.447  0.00  0.00    +0.000 A 
ATOM     13  C   UNL     1       3.393   2.656  20.343  0.00  0.00    +0.000 A 
ENDBRANCH   6   8
TORSDOF 1
ENDMDL
MODEL 3
REMARK VINA RESULT:      -6.4      0.335      1.351
REMARK  Name = 
REMARK  1 active torsions:
REMARK  status: ('A' for Active; 'I' for Inactive)
REMARK    1  A    between atoms: N_6  and  C_7
REMARK                            x       y       z     vdW  Elec       q    Type
REMARK                         _______ _______ _______ _____ _____    ______ ____
ROOT
ATOM      1  O   UNL     1       7.617   5.368  15.649  0.00  0.00    +0.000 OA
ATOM      2  C   UNL     1       6.653   4.990  16.285  0.00  0.00    +0.000 C 
ATOM      3  C   UNL     1       5.306   4.873  15.756  0.00  0.00    +0.000 C 
ATOM      4  C   UNL     1       4.536   4.402  16.727  0.00  0.00    +0.000 C 
ATOM      5  C   UNL     1       5.355   4.303  17.936  0.00  0.00    +0.000 C 
ATOM      6  N   UNL     1       5.088   4.035  19.163  0.00  0.00    +0.000 NA
ATOM      7  O   UNL     1       6.625   4.608  17.577  0.00  0.00    +0.000 OA
ENDROOT
BRANCH   6   8
ATOM      8  C   UNL     1       3.782   3.801  19.617  0.00  0.00    +0.000 A 
ATOM      9  C   UNL     1       3.047   4.883  20.110  0.00  0.00    +0.000 A 
ATOM     10  C   UNL     1       1.722   4.720  20.528  0.00  0.00    +0.000 A 
ATOM     11  C   UNL     1       1.121   3.465  20.468  0.00  0.00    +0.000 A 
ATOM     12  C   UNL     1       1.831   2.384  19.953  0.00  0.00    +0.000 A 
ATOM     13  C   UNL     1       3.138   2.563  19.498  0.00  0.00    +0.000 A 
ENDBRANCH   6   8
TORSDOF 1
ENDMDL
MODEL 4
REMARK VINA RESULT:      -6.4      1.857      2.037
REMARK  Name = 
REMARK  1 active torsions:
REMARK  status: ('A' for Active; 'I' for Inactive)
REMARK    1  A    between atoms: N_6  and  C_7
REMARK                            x       y       z     vdW  Elec       q    Type
REMARK                         _______ _______ _______ _____ _____    ______ ____
ROOT
ATOM      1  O   UNL     1       7.599   6.629  16.502  0.00  0.00    +0.000 OA
ATOM      2  C   UNL     1       6.662   6.138  17.100  0.00  0.00    +0.000 C 
ATOM      3  C   UNL     1       6.710   4.886  17.834  0.00  0.00    +0.000 C 
ATOM      4  C   UNL     1       5.515   4.695  18.376  0.00  0.00    +0.000 C 
ATOM      5  C   UNL     1       4.640   5.773  17.914  0.00  0.00    +0.000 C 
ATOM      6  N   UNL     1       3.380   5.997  18.027  0.00  0.00    +0.000 NA
ATOM      7  O   UNL     1       5.413   6.634  17.210  0.00  0.00    +0.000 OA
ENDROOT
BRANCH   6   8
ATOM      8  C   UNL     1       2.510   5.102  18.664  0.00  0.00    +0.000 A 
ATOM      9  C   UNL     1       2.016   4.019  17.929  0.00  0.00    +0.000 A 
ATOM     10  C   UNL     1       1.186   3.064  18.525  0.00  0.00    +0.000 A 
ATOM     11  C   UNL     1       0.830   3.190  19.865  0.00  0.00    +0.000 A 
ATOM     12  C   UNL     1       1.335   4.247  20.618  0.00  0.00    +0.000 A 
ATOM     13  C   UNL     1       2.197   5.171  20.027  0.00  0.00    +0.000 A 
ENDBRANCH   6   8
TORSDOF 1
ENDMDL
MODEL 5
REMARK VINA RESULT:      -6.4      1.929      2.345
REMARK  Name = 
REMARK  1 active torsions:
REMARK  status: ('A' for Active; 'I' for Inactive)
REMARK    1  A    between atoms: N_6  and  C_7
REMARK                            x       y       z     vdW  Elec       q    Type
REMARK                         _______ _______ _______ _____ _____    ______ ____
ROOT
ATOM      1  O   UNL     1       7.662   6.791  16.693  0.00  0.00    +0.000 OA
ATOM      2  C   UNL     1       6.716   6.292  17.270  0.00  0.00    +0.000 C 
ATOM      3  C   UNL     1       6.815   5.254  18.281  0.00  0.00    +0.000 C 
ATOM      4  C   UNL     1       5.585   4.989  18.700  0.00  0.00    +0.000 C 
ATOM      5  C   UNL     1       4.658   5.780  17.891  0.00  0.00    +0.000 C 
ATOM      6  N   UNL     1       3.379   5.811  17.792  0.00  0.00    +0.000 NA
ATOM      7  O   UNL     1       5.411   6.585  17.104  0.00  0.00    +0.000 OA
ENDROOT
BRANCH   6   8
ATOM      8  C   UNL     1       2.546   4.941  18.511  0.00  0.00    +0.000 A 
ATOM      9  C   UNL     1       2.207   5.282  19.824  0.00  0.00    +0.000 A 
ATOM     10  C   UNL     1       1.338   4.482  20.573  0.00  0.00    +0.000 A 
ATOM     11  C   UNL     1       0.807   3.320  20.016  0.00  0.00    +0.000 A 
ATOM     12  C   UNL     1       1.113   2.982  18.701  0.00  0.00    +0.000 A 
ATOM     13  C   UNL     1       1.947   3.808  17.947  0.00  0.00    +0.000 A 
ENDBRANCH   6   8
TORSDOF 1
ENDMDL
MODEL 6
REMARK VINA RESULT:      -6.4      1.601      1.811
REMARK  Name = 
REMARK  1 active torsions:
REMARK  status: ('A' for Active; 'I' for Inactive)
REMARK    1  A    between atoms: N_6  and  C_7
REMARK                            x       y       z     vdW  Elec       q    Type
REMARK                         _______ _______ _______ _____ _____    ______ ____
ROOT
ATOM      1  O   UNL     1       6.164   5.869  15.035  0.00  0.00    +0.000 OA
ATOM      2  C   UNL     1       5.365   5.500  15.873  0.00  0.00    +0.000 C 
ATOM      3  C   UNL     1       4.690   6.373  16.816  0.00  0.00    +0.000 C 
ATOM      4  C   UNL     1       3.877   5.620  17.545  0.00  0.00    +0.000 C 
ATOM      5  C   UNL     1       4.090   4.227  17.153  0.00  0.00    +0.000 C 
ATOM      6  N   UNL     1       3.669   3.106  17.616  0.00  0.00    +0.000 NA
ATOM      7  O   UNL     1       4.945   4.239  16.102  0.00  0.00    +0.000 OA
ENDROOT
BRANCH   6   8
ATOM      8  C   UNL     1       2.857   3.018  18.756  0.00  0.00    +0.000 A 
ATOM      9  C   UNL     1       3.473   2.836  19.998  0.00  0.00    +0.000 A 
ATOM     10  C   UNL     1       2.719   2.793  21.175  0.00  0.00    +0.000 A 
ATOM     11  C   UNL     1       1.333   2.921  21.119  0.00  0.00    +0.000 A 
ATOM     12  C   UNL     1       0.707   3.130  19.893  0.00  0.00    +0.000 A 
ATOM     13  C   UNL     1       1.470   3.214  18.728  0.00  0.00    +0.000 A 
ENDBRANCH   6   8
TORSDOF 1
ENDMDL
MODEL 7
REMARK VINA RESULT:      -6.4      1.276      1.302
REMARK  Name = 
REMARK  1 active torsions:
REMARK  status: ('A' for Active; 'I' for Inactive)
REMARK    1  A    between atoms: N_6  and  C_7
REMARK                            x       y       z     vdW  Elec       q    Type
REMARK                         _______ _______ _______ _____ _____    ______ ____
ROOT
ATOM      1  O   UNL     1       7.513   6.173  16.125  0.00  0.00    +0.000 OA
ATOM      2  C   UNL     1       6.465   5.774  16.594  0.00  0.00    +0.000 C 
ATOM      3  C   UNL     1       5.199   6.482  16.516  0.00  0.00    +0.000 C 
ATOM      4  C   UNL     1       4.284   5.728  17.109  0.00  0.00    +0.000 C 
ATOM      5  C   UNL     1       4.965   4.562  17.673  0.00  0.00    +0.000 C 
ATOM      6  N   UNL     1       4.586   3.604  18.440  0.00  0.00    +0.000 NA
ATOM      7  O   UNL     1       6.256   4.625  17.267  0.00  0.00    +0.000 OA
ENDROOT
BRANCH   6   8
ATOM      8  C   UNL     1       3.289   3.530  18.969  0.00  0.00    +0.000 A 
ATOM      9  C   UNL     1       2.354   2.718  18.319  0.00  0.00    +0.000 A 
ATOM     10  C   UNL     1       1.061   2.563  18.829  0.00  0.00    +0.000 A 
ATOM     11  C   UNL     1       0.686   3.231  19.992  0.00  0.00    +0.000 A 
ATOM     12  C   UNL     1       1.614   4.021  20.665  0.00  0.00    +0.000 A 
ATOM     13  C   UNL     1       2.914   4.137  20.174  0.00  0.00    +0.000 A 
ENDBRANCH   6   8
TORSDOF 1
ENDMDL
MODEL 8
REMARK VINA RESULT:      -6.4      1.599      1.943
REMARK  Name = 
REMARK  1 active torsions:
REMARK  status: ('A' for Active; 'I' for Inactive)
REMARK    1  A    between atoms: N_6  and  C_7
REMARK                            x       y       z     vdW  Elec       q    Type
REMARK                         _______ _______ _______ _____ _____    ______ ____
ROOT
ATOM      1  O   UNL     1       6.150   5.890  14.774  0.00  0.00    +0.000 OA
ATOM      2  C   UNL     1       5.517   5.421  15.699  0.00  0.00    +0.000 C 
ATOM      3  C   UNL     1       5.630   4.054  16.173  0.00  0.00    +0.000 C 
ATOM      4  C   UNL     1       4.813   3.922  17.209  0.00  0.00    +0.000 C 
ATOM      5  C   UNL     1       4.078   5.178  17.358  0.00  0.00    +0.000 C 
ATOM      6  N   UNL     1       3.096   5.543  18.101  0.00  0.00    +0.000 NA
ATOM      7  O   UNL     1       4.600   6.050  16.462  0.00  0.00    +0.000 OA
ENDROOT
BRANCH   6   8
ATOM      8  C   UNL     1       2.451   4.664  18.983  0.00  0.00    +0.000 A 
ATOM      9  C   UNL     1       2.734   4.769  20.348  0.00  0.00    +0.000 A 
ATOM     10  C   UNL     1       2.083   3.955  21.282  0.00  0.00    +0.000 A 
ATOM     11  C   UNL     1       1.147   3.017  20.854  0.00  0.00    +0.000 A 
ATOM     12  C   UNL     1       0.833   2.920  19.502  0.00  0.00    +0.000 A 
ATOM     13  C   UNL     1       1.456   3.764  18.582  0.00  0.00    +0.000 A 
ENDBRANCH   6   8
TORSDOF 1
ENDMDL
MODEL 9
REMARK VINA RESULT:      -6.3      1.258      1.493
REMARK  Name = 
REMARK  1 active torsions:
REMARK  status: ('A' for Active; 'I' for Inactive)
REMARK    1  A    between atoms: N_6  and  C_7
REMARK                            x       y       z     vdW  Elec       q    Type
REMARK                         _______ _______ _______ _____ _____    ______ ____
ROOT
ATOM      1  O   UNL     1       7.783   4.684  16.086  0.00  0.00    +0.000 OA
ATOM      2  C   UNL     1       6.831   4.597  16.837  0.00  0.00    +0.000 C 
ATOM      3  C   UNL     1       6.757   5.202  18.155  0.00  0.00    +0.000 C 
ATOM      4  C   UNL     1       5.562   4.917  18.657  0.00  0.00    +0.000 C 
ATOM      5  C   UNL     1       4.881   4.034  17.711  0.00  0.00    +0.000 C 
ATOM      6  N   UNL     1       3.781   3.372  17.756  0.00  0.00    +0.000 NA
ATOM      7  O   UNL     1       5.674   3.941  16.616  0.00  0.00    +0.000 OA
ENDROOT
BRANCH   6   8
ATOM      8  C   UNL     1       2.960   3.352  18.892  0.00  0.00    +0.000 A 
ATOM      9  C   UNL     1       3.390   2.628  20.008  0.00  0.00    +0.000 A 
ATOM     10  C   UNL     1       2.638   2.613  21.188  0.00  0.00    +0.000 A 
ATOM     11  C   UNL     1       1.438   3.317  21.258  0.00  0.00    +0.000 A 
ATOM     12  C   UNL     1       1.011   4.065  20.165  0.00  0.00    +0.000 A 
ATOM     13  C   UNL     1       1.787   4.108  19.007  0.00  0.00    +0.000 A 
ENDBRANCH   6   8
TORSDOF 1
ENDMDL
