MODEL 1
REMARK VINA RESULT:      -8.1      0.000      0.000
REMARK  Name = 
REMARK  5 active torsions:
REMARK  status: ('A' for Active; 'I' for Inactive)
REMARK    1  A    between atoms: C_1  and  C_2
REMARK    2  A    between atoms: C_6  and  C_7
REMARK    3  A    between atoms: N_11  and  C_12
REMARK    4  A    between atoms: C_12  and  C_13
REMARK    5  A    between atoms: C_13  and  C_14
REMARK                            x       y       z     vdW  Elec       q    Type
REMARK                         _______ _______ _______ _____ _____    ______ ____
ROOT
ATOM      1  C   UNL     1       6.970   4.799  15.826  0.00  0.00    +0.000 A 
ATOM      2  N   UNL     1       7.881   4.224  16.584  0.00  0.00    +0.000 NA
ATOM      3  C   UNL     1       7.774   4.792  17.820  0.00  0.00    +0.000 A 
ATOM      4  C   UNL     1       6.783   5.738  17.828  0.00  0.00    +0.000 A 
ATOM      5  N   UNL     1       6.264   5.741  16.556  0.00  0.00    +0.000 N 
ENDROOT
BRANCH   1  11
ATOM      6  C   UNL     1       8.474   5.813  13.151  0.00  0.00    +0.000 C 
ATOM      7  C   UNL     1       7.395   4.807  13.314  0.00  0.00    +0.000 A 
ATOM      8  N   UNL     1       6.910   4.127  12.217  0.00  0.00    +0.000 NA
ATOM      9  C   UNL     1       5.956   3.358  12.682  0.00  0.00    +0.000 A 
ATOM     10  N   UNL     1       5.792   3.523  14.027  0.00  0.00    +0.000 N 
ATOM     11  C   UNL     1       6.753   4.393  14.472  0.00  0.00    +0.000 A 
ATOM     12  H   UNL     1       5.068   3.088  14.577  0.00  0.00    +0.000 HD
ENDBRANCH   1  11
BRANCH   5  13
ATOM     13  C   UNL     1       5.132   6.535  16.097  0.00  0.00    +0.000 C 
BRANCH  13  14
ATOM     14  C   UNL     1       4.250   7.094  17.212  0.00  0.00    +0.000 C 
BRANCH  14  15
ATOM     15  C   UNL     1       3.409   6.055  17.879  0.00  0.00    +0.000 A 
ATOM     16  N   UNL     1       3.187   4.837  17.426  0.00  0.00    +0.000 NA
ATOM     17  C   UNL     1       2.399   4.155  18.333  0.00  0.00    +0.000 A 
ATOM     18  C   UNL     1       2.031   4.871  19.455  0.00  0.00    +0.000 A 
ATOM     19  S   UNL     1       2.653   6.447  19.382  0.00  0.00    +0.000 S 
ATOM     20  C   UNL     1       1.182   4.363  20.571  0.00  0.00    +0.000 C 
ATOM     21  C   UNL     1       1.043   2.833  20.480  0.00  0.00    +0.000 C 
ATOM     22  C   UNL     1       0.826   2.352  19.035  0.00  0.00    +0.000 C 
ATOM     23  C   UNL     1       2.010   2.731  18.126  0.00  0.00    +0.000 C 
ENDBRANCH  14  15
ENDBRANCH  13  14
ENDBRANCH   5  13
TORSDOF 4
ENDMDL
MODEL 2
REMARK VINA RESULT:      -7.8      3.592      5.163
REMARK  Name = 
REMARK  5 active torsions:
REMARK  status: ('A' for Active; 'I' for Inactive)
REMARK    1  A    between atoms: C_1  and  C_2
REMARK    2  A    between atoms: C_6  and  C_7
REMARK    3  A    between atoms: N_11  and  C_12
REMARK    4  A    between atoms: C_12  and  C_13
REMARK    5  A    between atoms: C_13  and  C_14
REMARK                            x       y       z     vdW  Elec       q    Type
REMARK                         _______ _______ _______ _____ _____    ______ ____
ROOT
ATOM      1  C   UNL     1       4.073   4.217  17.699  0.00  0.00    +0.000 A 
ATOM      2  N   UNL     1       3.449   3.087  17.439  0.00  0.00    +0.000 NA
ATOM      3  C   UNL     1       2.128   3.299  17.710  0.00  0.00    +0.000 A 
ATOM      4  C   UNL     1       1.931   4.582  18.148  0.00  0.00    +0.000 A 
ATOM      5  N   UNL     1       3.171   5.172  18.139  0.00  0.00    +0.000 N 
ENDROOT
BRANCH   1  11
ATOM      6  C   UNL     1       5.600   4.661  14.886  0.00  0.00    +0.000 C 
ATOM      7  C   UNL     1       6.146   4.578  16.263  0.00  0.00    +0.000 A 
ATOM      8  N   UNL     1       7.500   4.726  16.482  0.00  0.00    +0.000 NA
ATOM      9  C   UNL     1       7.660   4.562  17.773  0.00  0.00    +0.000 A 
ATOM     10  N   UNL     1       6.473   4.296  18.394  0.00  0.00    +0.000 N 
ATOM     11  C   UNL     1       5.474   4.375  17.460  0.00  0.00    +0.000 A 
ATOM     12  H   UNL     1       6.373   4.064  19.370  0.00  0.00    +0.000 HD
ENDBRANCH   1  11
BRANCH   5  13
ATOM     13  C   UNL     1       3.457   6.565  18.458  0.00  0.00    +0.000 C 
BRANCH  13  14
ATOM     14  C   UNL     1       2.416   7.563  17.956  0.00  0.00    +0.000 C 
BRANCH  14  15
ATOM     15  C   UNL     1       1.756   8.332  19.053  0.00  0.00    +0.000 A 
ATOM     16  N   UNL     1       1.148   9.495  18.921  0.00  0.00    +0.000 NA
ATOM     17  C   UNL     1       0.625   9.872  20.144  0.00  0.00    +0.000 A 
ATOM     18  C   UNL     1       0.853   8.993  21.183  0.00  0.00    +0.000 A 
ATOM     19  S   UNL     1       1.764   7.666  20.647  0.00  0.00    +0.000 S 
ATOM     20  C   UNL     1       0.400   9.175  22.592  0.00  0.00    +0.000 C 
ATOM     21  C   UNL     1      -0.642  10.305  22.674  0.00  0.00    +0.000 C 
ATOM     22  C   UNL     1      -0.263  11.512  21.798  0.00  0.00    +0.000 C 
ATOM     23  C   UNL     1      -0.163  11.126  20.311  0.00  0.00    +0.000 C 
ENDBRANCH  14  15
ENDBRANCH  13  14
ENDBRANCH   5  13
TORSDOF 4
ENDMDL
MODEL 3
REMARK VINA RESULT:      -7.8      3.709      5.350
REMARK  Name = 
REMARK  5 active torsions:
REMARK  status: ('A' for Active; 'I' for Inactive)
REMARK    1  A    between atoms: C_1  and  C_2
REMARK    2  A    between atoms: C_6  and  C_7
REMARK    3  A    between atoms: N_11  and  C_12
REMARK    4  A    between atoms: C_12  and  C_13
REMARK    5  A    between atoms: C_13  and  C_14
REMARK                            x       y       z     vdW  Elec       q    Type
REMARK                         _______ _______ _______ _____ _____    ______ ____
ROOT
ATOM      1  C   UNL     1       4.016   4.300  17.823  0.00  0.00    +0.000 A 
ATOM      2  N   UNL     1       3.467   3.219  17.308  0.00  0.00    +0.000 NA
ATOM      3  C   UNL     1       2.148   3.249  17.655  0.00  0.00    +0.000 A 
ATOM      4  C   UNL     1       1.874   4.365  18.400  0.00  0.00    +0.000 A 
ATOM      5  N   UNL     1       3.065   5.041  18.506  0.00  0.00    +0.000 N 
ENDROOT
BRANCH   1  11
ATOM      6  C   UNL     1       5.277   6.271  15.594  0.00  0.00    +0.000 C 
ATOM      7  C   UNL     1       5.948   5.479  16.654  0.00  0.00    +0.000 A 
ATOM      8  N   UNL     1       7.317   5.546  16.808  0.00  0.00    +0.000 NA
ATOM      9  C   UNL     1       7.596   4.716  17.782  0.00  0.00    +0.000 A 
ATOM     10  N   UNL     1       6.471   4.101  18.253  0.00  0.00    +0.000 N 
ATOM     11  C   UNL     1       5.389   4.628  17.596  0.00  0.00    +0.000 A 
ATOM     12  H   UNL     1       6.460   3.371  18.948  0.00  0.00    +0.000 HD
ENDBRANCH   1  11
BRANCH   5  13
ATOM     13  C   UNL     1       3.260   6.334  19.149  0.00  0.00    +0.000 C 
BRANCH  13  14
ATOM     14  C   UNL     1       2.583   7.507  18.445  0.00  0.00    +0.000 C 
BRANCH  14  15
ATOM     15  C   UNL     1       1.757   8.351  19.360  0.00  0.00    +0.000 A 
ATOM     16  N   UNL     1       1.633   8.182  20.662  0.00  0.00    +0.000 NA
ATOM     17  C   UNL     1       0.824   9.179  21.171  0.00  0.00    +0.000 A 
ATOM     18  C   UNL     1       0.342  10.084  20.247  0.00  0.00    +0.000 A 
ATOM     19  S   UNL     1       0.881   9.681  18.690  0.00  0.00    +0.000 S 
ATOM     20  C   UNL     1      -0.550  11.240  20.544  0.00  0.00    +0.000 C 
ATOM     21  C   UNL     1      -0.599  11.499  22.061  0.00  0.00    +0.000 C 
ATOM     22  C   UNL     1      -0.692  10.194  22.872  0.00  0.00    +0.000 C 
ATOM     23  C   UNL     1       0.528   9.287  22.629  0.00  0.00    +0.000 C 
ENDBRANCH  14  15
ENDBRANCH  13  14
ENDBRANCH   5  13
TORSDOF 4
ENDMDL
MODEL 4
REMARK VINA RESULT:      -7.7      2.012      7.056
REMARK  Name = 
REMARK  5 active torsions:
REMARK  status: ('A' for Active; 'I' for Inactive)
REMARK    1  A    between atoms: C_1  and  C_2
REMARK    2  A    between atoms: C_6  and  C_7
REMARK    3  A    between atoms: N_11  and  C_12
REMARK    4  A    between atoms: C_12  and  C_13
REMARK    5  A    between atoms: C_13  and  C_14
REMARK                            x       y       z     vdW  Elec       q    Type
REMARK                         _______ _______ _______ _____ _____    ______ ____
ROOT
ATOM      1  C   UNL     1       3.117   5.777  18.970  0.00  0.00    +0.000 A 
ATOM      2  N   UNL     1       2.362   6.794  18.608  0.00  0.00    +0.000 NA
ATOM      3  C   UNL     1       3.118   7.563  17.771  0.00  0.00    +0.000 A 
ATOM      4  C   UNL     1       4.364   7.014  17.613  0.00  0.00    +0.000 A 
ATOM      5  N   UNL     1       4.365   5.871  18.375  0.00  0.00    +0.000 N 
ENDROOT
BRANCH   1  11
ATOM      6  C   UNL     1       1.724   2.999  18.085  0.00  0.00    +0.000 C 
ATOM      7  C   UNL     1       2.026   3.524  19.440  0.00  0.00    +0.000 A 
ATOM      8  N   UNL     1       1.727   2.773  20.557  0.00  0.00    +0.000 NA
ATOM      9  C   UNL     1       2.072   3.519  21.577  0.00  0.00    +0.000 A 
ATOM     10  N   UNL     1       2.564   4.726  21.170  0.00  0.00    +0.000 N 
ATOM     11  C   UNL     1       2.616   4.727  19.800  0.00  0.00    +0.000 A 
ATOM     12  H   UNL     1       2.819   5.482  21.786  0.00  0.00    +0.000 HD
ENDBRANCH   1  11
BRANCH   5  13
ATOM     13  C   UNL     1       5.453   4.907  18.468  0.00  0.00    +0.000 C 
BRANCH  13  14
ATOM     14  C   UNL     1       6.743   5.331  17.770  0.00  0.00    +0.000 C 
BRANCH  14  15
ATOM     15  C   UNL     1       6.750   5.035  16.305  0.00  0.00    +0.000 A 
ATOM     16  N   UNL     1       7.583   5.543  15.420  0.00  0.00    +0.000 NA
ATOM     17  C   UNL     1       7.308   5.002  14.178  0.00  0.00    +0.000 A 
ATOM     18  C   UNL     1       6.266   4.098  14.143  0.00  0.00    +0.000 A 
ATOM     19  S   UNL     1       5.581   3.924  15.685  0.00  0.00    +0.000 S 
ATOM     20  C   UNL     1       5.774   3.385  12.929  0.00  0.00    +0.000 C 
ATOM     21  C   UNL     1       6.787   3.530  11.779  0.00  0.00    +0.000 C 
ATOM     22  C   UNL     1       7.364   4.953  11.686  0.00  0.00    +0.000 C 
ATOM     23  C   UNL     1       8.113   5.348  12.972  0.00  0.00    +0.000 C 
ENDBRANCH  14  15
ENDBRANCH  13  14
ENDBRANCH   5  13
TORSDOF 4
ENDMDL
MODEL 5
REMARK VINA RESULT:      -7.7      3.497      5.248
REMARK  Name = 
REMARK  5 active torsions:
REMARK  status: ('A' for Active; 'I' for Inactive)
REMARK    1  A    between atoms: C_1  and  C_2
REMARK    2  A    between atoms: C_6  and  C_7
REMARK    3  A    between atoms: N_11  and  C_12
REMARK    4  A    between atoms: C_12  and  C_13
REMARK    5  A    between atoms: C_13  and  C_14
REMARK                            x       y       z     vdW  Elec       q    Type
REMARK                         _______ _______ _______ _____ _____    ______ ____
ROOT
ATOM      1  C   UNL     1       4.089   3.603  17.676  0.00  0.00    +0.000 A 
ATOM      2  N   UNL     1       3.749   2.332  17.621  0.00  0.00    +0.000 NA
ATOM      3  C   UNL     1       2.398   2.281  17.810  0.00  0.00    +0.000 A 
ATOM      4  C   UNL     1       1.892   3.542  17.987  0.00  0.00    +0.000 A 
ATOM      5  N   UNL     1       2.970   4.389  17.898  0.00  0.00    +0.000 N 
ENDROOT
BRANCH   1  11
ATOM      6  C   UNL     1       5.533   4.309  14.872  0.00  0.00    +0.000 C 
ATOM      7  C   UNL     1       6.068   4.350  16.256  0.00  0.00    +0.000 A 
ATOM      8  N   UNL     1       7.362   4.765  16.487  0.00  0.00    +0.000 NA
ATOM      9  C   UNL     1       7.536   4.650  17.781  0.00  0.00    +0.000 A 
ATOM     10  N   UNL     1       6.417   4.163  18.394  0.00  0.00    +0.000 N 
ATOM     11  C   UNL     1       5.434   4.032  17.448  0.00  0.00    +0.000 A 
ATOM     12  H   UNL     1       6.352   3.926  19.372  0.00  0.00    +0.000 HD
ENDBRANCH   1  11
BRANCH   5  13
ATOM     13  C   UNL     1       2.919   5.844  17.950  0.00  0.00    +0.000 C 
BRANCH  13  14
ATOM     14  C   UNL     1       3.003   6.437  19.355  0.00  0.00    +0.000 C 
BRANCH  14  15
ATOM     15  C   UNL     1       2.159   7.657  19.534  0.00  0.00    +0.000 A 
ATOM     16  N   UNL     1       1.564   8.025  20.652  0.00  0.00    +0.000 NA
ATOM     17  C   UNL     1       0.911   9.224  20.441  0.00  0.00    +0.000 A 
ATOM     18  C   UNL     1       1.015   9.741  19.166  0.00  0.00    +0.000 A 
ATOM     19  S   UNL     1       1.927   8.704  18.180  0.00  0.00    +0.000 S 
ATOM     20  C   UNL     1       0.398  11.012  18.689  0.00  0.00    +0.000 C 
ATOM     21  C   UNL     1      -0.093  11.847  19.885  0.00  0.00    +0.000 C 
ATOM     22  C   UNL     1      -0.780  10.982  20.957  0.00  0.00    +0.000 C 
ATOM     23  C   UNL     1       0.179   9.925  21.535  0.00  0.00    +0.000 C 
ENDBRANCH  14  15
ENDBRANCH  13  14
ENDBRANCH   5  13
TORSDOF 4
ENDMDL
MODEL 6
REMARK VINA RESULT:      -7.6      0.931      1.440
REMARK  Name = 
REMARK  5 active torsions:
REMARK  status: ('A' for Active; 'I' for Inactive)
REMARK    1  A    between atoms: C_1  and  C_2
REMARK    2  A    between atoms: C_6  and  C_7
REMARK    3  A    between atoms: N_11  and  C_12
REMARK    4  A    between atoms: C_12  and  C_13
REMARK    5  A    between atoms: C_13  and  C_14
REMARK                            x       y       z     vdW  Elec       q    Type
REMARK                         _______ _______ _______ _____ _____    ______ ____
ROOT
ATOM      1  C   UNL     1       6.951   4.799  15.870  0.00  0.00    +0.000 A 
ATOM      2  N   UNL     1       7.893   4.255  16.613  0.00  0.00    +0.000 NA
ATOM      3  C   UNL     1       7.785   4.817  17.852  0.00  0.00    +0.000 A 
ATOM      4  C   UNL     1       6.761   5.727  17.877  0.00  0.00    +0.000 A 
ATOM      5  N   UNL     1       6.224   5.715  16.612  0.00  0.00    +0.000 N 
ENDROOT
BRANCH   1  11
ATOM      6  C   UNL     1       8.451   5.796  13.186  0.00  0.00    +0.000 C 
ATOM      7  C   UNL     1       7.369   4.795  13.357  0.00  0.00    +0.000 A 
ATOM      8  N   UNL     1       6.878   4.113  12.264  0.00  0.00    +0.000 NA
ATOM      9  C   UNL     1       5.923   3.348  12.735  0.00  0.00    +0.000 A 
ATOM     10  N   UNL     1       5.763   3.520  14.080  0.00  0.00    +0.000 N 
ATOM     11  C   UNL     1       6.729   4.388  14.518  0.00  0.00    +0.000 A 
ATOM     12  H   UNL     1       5.039   3.090  14.634  0.00  0.00    +0.000 HD
ENDBRANCH   1  11
BRANCH   5  13
ATOM     13  C   UNL     1       5.058   6.469  16.172  0.00  0.00    +0.000 C 
BRANCH  13  14
ATOM     14  C   UNL     1       4.182   7.008  17.302  0.00  0.00    +0.000 C 
BRANCH  14  15
ATOM     15  C   UNL     1       3.552   5.934  18.127  0.00  0.00    +0.000 A 
ATOM     16  N   UNL     1       3.268   6.017  19.412  0.00  0.00    +0.000 NA
ATOM     17  C   UNL     1       2.656   4.845  19.815  0.00  0.00    +0.000 A 
ATOM     18  C   UNL     1       2.494   3.891  18.831  0.00  0.00    +0.000 A 
ATOM     19  S   UNL     1       3.139   4.442  17.361  0.00  0.00    +0.000 S 
ATOM     20  C   UNL     1       1.871   2.549  19.014  0.00  0.00    +0.000 C 
ATOM     21  C   UNL     1       1.129   2.486  20.361  0.00  0.00    +0.000 C 
ATOM     22  C   UNL     1       1.923   3.156  21.496  0.00  0.00    +0.000 C 
ATOM     23  C   UNL     1       2.172   4.648  21.211  0.00  0.00    +0.000 C 
ENDBRANCH  14  15
ENDBRANCH  13  14
ENDBRANCH   5  13
TORSDOF 4
ENDMDL
MODEL 7
REMARK VINA RESULT:      -7.6      3.845      5.792
REMARK  Name = 
REMARK  5 active torsions:
REMARK  status: ('A' for Active; 'I' for Inactive)
REMARK    1  A    between atoms: C_1  and  C_2
REMARK    2  A    between atoms: C_6  and  C_7
REMARK    3  A    between atoms: N_11  and  C_12
REMARK    4  A    between atoms: C_12  and  C_13
REMARK    5  A    between atoms: C_13  and  C_14
REMARK                            x       y       z     vdW  Elec       q    Type
REMARK                         _______ _______ _______ _____ _____    ______ ____
ROOT
ATOM      1  C   UNL     1       4.559   4.791  17.483  0.00  0.00    +0.000 A 
ATOM      2  N   UNL     1       5.411   4.604  16.495  0.00  0.00    +0.000 NA
ATOM      3  C   UNL     1       5.544   5.805  15.862  0.00  0.00    +0.000 A 
ATOM      4  C   UNL     1       4.758   6.753  16.464  0.00  0.00    +0.000 A 
ATOM      5  N   UNL     1       4.131   6.109  17.503  0.00  0.00    +0.000 N 
ENDROOT
BRANCH   1  11
ATOM      6  C   UNL     1       1.703   3.371  18.000  0.00  0.00    +0.000 C 
ATOM      7  C   UNL     1       3.021   3.118  18.633  0.00  0.00    +0.000 A 
ATOM      8  N   UNL     1       3.155   2.127  19.583  0.00  0.00    +0.000 NA
ATOM      9  C   UNL     1       4.407   2.185  19.967  0.00  0.00    +0.000 A 
ATOM     10  N   UNL     1       5.082   3.181  19.322  0.00  0.00    +0.000 N 
ATOM     11  C   UNL     1       4.236   3.748  18.405  0.00  0.00    +0.000 A 
ATOM     12  H   UNL     1       6.033   3.452  19.516  0.00  0.00    +0.000 HD
ENDBRANCH   1  11
BRANCH   5  13
ATOM     13  C   UNL     1       3.247   6.727  18.481  0.00  0.00    +0.000 C 
BRANCH  13  14
ATOM     14  C   UNL     1       2.532   7.985  17.993  0.00  0.00    +0.000 C 
BRANCH  14  15
ATOM     15  C   UNL     1       1.725   8.658  19.055  0.00  0.00    +0.000 A 
ATOM     16  N   UNL     1       1.715   8.338  20.334  0.00  0.00    +0.000 NA
ATOM     17  C   UNL     1       0.882   9.208  21.010  0.00  0.00    +0.000 A 
ATOM     18  C   UNL     1       0.267  10.168  20.231  0.00  0.00    +0.000 A 
ATOM     19  S   UNL     1       0.708   9.980  18.604  0.00  0.00    +0.000 S 
ATOM     20  C   UNL     1      -0.677  11.212  20.721  0.00  0.00    +0.000 C 
ATOM     21  C   UNL     1      -0.625  11.299  22.257  0.00  0.00    +0.000 C 
ATOM     22  C   UNL     1      -0.562   9.911  22.917  0.00  0.00    +0.000 C 
ATOM     23  C   UNL     1       0.695   9.133  22.487  0.00  0.00    +0.000 C 
ENDBRANCH  14  15
ENDBRANCH  13  14
ENDBRANCH   5  13
TORSDOF 4
ENDMDL
MODEL 8
REMARK VINA RESULT:      -7.5      3.252      5.001
REMARK  Name = 
REMARK  5 active torsions:
REMARK  status: ('A' for Active; 'I' for Inactive)
REMARK    1  A    between atoms: C_1  and  C_2
REMARK    2  A    between atoms: C_6  and  C_7
REMARK    3  A    between atoms: N_11  and  C_12
REMARK    4  A    between atoms: C_12  and  C_13
REMARK    5  A    between atoms: C_13  and  C_14
REMARK                            x       y       z     vdW  Elec       q    Type
REMARK                         _______ _______ _______ _____ _____    ______ ____
ROOT
ATOM      1  C   UNL     1       4.746   4.022  18.953  0.00  0.00    +0.000 A 
ATOM      2  N   UNL     1       4.917   2.994  19.758  0.00  0.00    +0.000 NA
ATOM      3  C   UNL     1       3.672   2.523  20.059  0.00  0.00    +0.000 A 
ATOM      4  C   UNL     1       2.713   3.273  19.431  0.00  0.00    +0.000 A 
ATOM      5  N   UNL     1       3.396   4.230  18.720  0.00  0.00    +0.000 N 
ENDROOT
BRANCH   1  11
ATOM      6  C   UNL     1       5.905   3.845  15.941  0.00  0.00    +0.000 C 
ATOM      7  C   UNL     1       6.359   4.668  17.089  0.00  0.00    +0.000 A 
ATOM      8  N   UNL     1       7.415   5.542  16.941  0.00  0.00    +0.000 NA
ATOM      9  C   UNL     1       7.590   6.076  18.125  0.00  0.00    +0.000 A 
ATOM     10  N   UNL     1       6.706   5.573  19.036  0.00  0.00    +0.000 N 
ATOM     11  C   UNL     1       5.854   4.722  18.380  0.00  0.00    +0.000 A 
ATOM     12  H   UNL     1       6.708   5.786  20.021  0.00  0.00    +0.000 HD
ENDBRANCH   1  11
BRANCH   5  13
ATOM     13  C   UNL     1       2.803   5.219  17.831  0.00  0.00    +0.000 C 
BRANCH  13  14
ATOM     14  C   UNL     1       3.372   6.630  17.975  0.00  0.00    +0.000 C 
BRANCH  14  15
ATOM     15  C   UNL     1       2.492   7.545  18.762  0.00  0.00    +0.000 A 
ATOM     16  N   UNL     1       2.170   7.401  20.032  0.00  0.00    +0.000 NA
ATOM     17  C   UNL     1       1.376   8.464  20.420  0.00  0.00    +0.000 A 
ATOM     18  C   UNL     1       1.104   9.392  19.435  0.00  0.00    +0.000 A 
ATOM     19  S   UNL     1       1.827   8.930  17.972  0.00  0.00    +0.000 S 
ATOM     20  C   UNL     1       0.271  10.617  19.601  0.00  0.00    +0.000 C 
ATOM     21  C   UNL     1       0.025  10.896  21.094  0.00  0.00    +0.000 C 
ATOM     22  C   UNL     1      -0.283   9.612  21.884  0.00  0.00    +0.000 C 
ATOM     23  C   UNL     1       0.884   8.611  21.820  0.00  0.00    +0.000 C 
ENDBRANCH  14  15
ENDBRANCH  13  14
ENDBRANCH   5  13
TORSDOF 4
ENDMDL
MODEL 9
REMARK VINA RESULT:      -7.5      3.299      4.658
REMARK  Name = 
REMARK  5 active torsions:
REMARK  status: ('A' for Active; 'I' for Inactive)
REMARK    1  A    between atoms: C_1  and  C_2
REMARK    2  A    between atoms: C_6  and  C_7
REMARK    3  A    between atoms: N_11  and  C_12
REMARK    4  A    between atoms: C_12  and  C_13
REMARK    5  A    between atoms: C_13  and  C_14
REMARK                            x       y       z     vdW  Elec       q    Type
REMARK                         _______ _______ _______ _____ _____    ______ ____
ROOT
ATOM      1  C   UNL     1       4.513   3.921  17.613  0.00  0.00    +0.000 A 
ATOM      2  N   UNL     1       4.019   2.708  17.760  0.00  0.00    +0.000 NA
ATOM      3  C   UNL     1       3.057   2.793  18.723  0.00  0.00    +0.000 A 
ATOM      4  C   UNL     1       2.954   4.079  19.185  0.00  0.00    +0.000 A 
ATOM      5  N   UNL     1       3.880   4.803  18.474  0.00  0.00    +0.000 N 
ENDROOT
BRANCH   1  11
ATOM      6  C   UNL     1       7.590   4.805  18.050  0.00  0.00    +0.000 C 
ATOM      7  C   UNL     1       6.832   4.583  16.794  0.00  0.00    +0.000 A 
ATOM      8  N   UNL     1       7.457   4.728  15.573  0.00  0.00    +0.000 NA
ATOM      9  C   UNL     1       6.523   4.508  14.680  0.00  0.00    +0.000 A 
ATOM     10  N   UNL     1       5.319   4.246  15.269  0.00  0.00    +0.000 N 
ATOM     11  C   UNL     1       5.505   4.214  16.627  0.00  0.00    +0.000 A 
ATOM     12  H   UNL     1       4.450   4.122  14.775  0.00  0.00    +0.000 HD
ENDBRANCH   1  11
BRANCH   5  13
ATOM     13  C   UNL     1       4.091   6.241  18.563  0.00  0.00    +0.000 C 
BRANCH  13  14
ATOM     14  C   UNL     1       3.050   7.087  17.833  0.00  0.00    +0.000 C 
BRANCH  14  15
ATOM     15  C   UNL     1       2.226   7.932  18.749  0.00  0.00    +0.000 A 
ATOM     16  N   UNL     1       2.014   7.700  20.029  0.00  0.00    +0.000 NA
ATOM     17  C   UNL     1       1.241   8.720  20.551  0.00  0.00    +0.000 A 
ATOM     18  C   UNL     1       0.874   9.704  19.656  0.00  0.00    +0.000 A 
ATOM     19  S   UNL     1       1.479   9.352  18.110  0.00  0.00    +0.000 S 
ATOM     20  C   UNL     1       0.041  10.900  19.970  0.00  0.00    +0.000 C 
ATOM     21  C   UNL     1      -0.082  11.077  21.494  0.00  0.00    +0.000 C 
ATOM     22  C   UNL     1      -0.306   9.739  22.220  0.00  0.00    +0.000 C 
ATOM     23  C   UNL     1       0.866   8.766  21.993  0.00  0.00    +0.000 C 
ENDBRANCH  14  15
ENDBRANCH  13  14
ENDBRANCH   5  13
TORSDOF 4
ENDMDL
