MODEL 1
REMARK VINA RESULT:      -6.9      0.000      0.000
REMARK  Name = 
REMARK  10 active torsions:
REMARK  status: ('A' for Active; 'I' for Inactive)
REMARK    1  A    between atoms: C_1  and  C_2
REMARK    2  A    between atoms: C_2  and  C_3
REMARK    3  A    between atoms: C_3  and  N_4
REMARK    4  A    between atoms: C_6  and  S_7
REMARK    5  A    between atoms: S_7  and  N_10
REMARK    6  A    between atoms: N_10  and  C_11
REMARK    7  A    between atoms: N_13  and  C_14
REMARK    8  A    between atoms: C_14  and  C_15
REMARK    9  A    between atoms: C_15  and  O_16
REMARK   10  A    between atoms: C_18  and  C_19
REMARK                            x       y       z     vdW  Elec       q    Type
REMARK                         _______ _______ _______ _____ _____    ______ ____
ROOT
ATOM      1  N   UNL     1       4.856   3.315  17.167  0.00  0.00    +0.000 NA
ATOM      2  H   UNL     1       5.417   2.469  17.069  0.00  0.00    +0.000 HD
ENDROOT
BRANCH   1   3
ATOM      3  C   UNL     1       5.001   4.317  16.067  0.00  0.00    +0.000 C 
ATOM      4  C   UNL     1       5.653   5.627  16.525  0.00  0.00    +0.000 C 
ATOM      5  N   UNL     1       7.113   5.398  16.535  0.00  0.00    +0.000 NA
ATOM      6  C   UNL     1       7.357   4.407  15.472  0.00  0.00    +0.000 C 
ATOM      7  C   UNL     1       6.015   3.806  15.018  0.00  0.00    +0.000 C 
BRANCH   7   8
ATOM      8  C   UNL     1       5.664   4.243  13.603  0.00  0.00    +0.000 C 
ATOM      9  C   UNL     1       6.464   3.737  12.418  0.00  0.00    +0.000 C 
ATOM     10  C   UNL     1       5.051   3.269  12.623  0.00  0.00    +0.000 C 
ENDBRANCH   7   8
BRANCH   5  11
ATOM     11  C   UNL     1       7.580   4.934  17.864  0.00  0.00    +0.000 C 
BRANCH  11  12
ATOM     12  C   UNL     1       6.868   5.633  19.041  0.00  0.00    +0.000 C 
BRANCH  12  13
ATOM     13  O   UNL     1       6.094   4.718  19.809  0.00  0.00    +0.000 OA
ATOM     14  H   UNL     1       5.260   5.184  20.003  0.00  0.00    +0.000 HD
ENDBRANCH  12  13
ENDBRANCH  11  12
ENDBRANCH   5  11
ENDBRANCH   1   3
BRANCH   1  15
ATOM     15  S   UNL     1       3.310   2.906  17.738  0.00  0.00    +0.000 S 
ATOM     16  O   UNL     1       3.391   1.769  18.623  0.00  0.00    +0.000 OA
ATOM     17  O   UNL     1       2.439   2.936  16.584  0.00  0.00    +0.000 OA
BRANCH  15  20
ATOM     18  N   UNL     1       2.277   6.198  19.421  0.00  0.00    +0.000 N 
ATOM     19  C   UNL     1       2.412   5.455  18.286  0.00  0.00    +0.000 A 
ATOM     20  C   UNL     1       2.766   4.198  18.710  0.00  0.00    +0.000 A 
ATOM     21  C   UNL     1       2.662   4.229  20.108  0.00  0.00    +0.000 A 
ATOM     22  N   UNL     1       2.359   5.456  20.551  0.00  0.00    +0.000 NA
BRANCH  18  23
ATOM     23  C   UNL     1       2.192   7.639  19.493  0.00  0.00    +0.000 C 
BRANCH  23  25
ATOM     24  C   UNL     1       1.261   9.555  18.075  0.00  0.00    +0.000 C 
ATOM     25  C   UNL     1       2.164   8.328  18.126  0.00  0.00    +0.000 C 
ENDBRANCH  23  25
ENDBRANCH  18  23
ENDBRANCH  15  20
ENDBRANCH   1  15
TORSDOF 9
ENDMDL
MODEL 2
REMARK VINA RESULT:      -6.7      2.439      6.609
REMARK  Name = 
REMARK  10 active torsions:
REMARK  status: ('A' for Active; 'I' for Inactive)
REMARK    1  A    between atoms: C_1  and  C_2
REMARK    2  A    between atoms: C_2  and  C_3
REMARK    3  A    between atoms: C_3  and  N_4
REMARK    4  A    between atoms: C_6  and  S_7
REMARK    5  A    between atoms: S_7  and  N_10
REMARK    6  A    between atoms: N_10  and  C_11
REMARK    7  A    between atoms: N_13  and  C_14
REMARK    8  A    between atoms: C_14  and  C_15
REMARK    9  A    between atoms: C_15  and  O_16
REMARK   10  A    between atoms: C_18  and  C_19
REMARK                            x       y       z     vdW  Elec       q    Type
REMARK                         _______ _______ _______ _____ _____    ______ ____
ROOT
ATOM      1  N   UNL     1       5.408   4.040  17.169  0.00  0.00    +0.000 NA
ATOM      2  H   UNL     1       5.700   3.768  18.108  0.00  0.00    +0.000 HD
ENDROOT
BRANCH   1   3
ATOM      3  C   UNL     1       3.997   4.515  17.045  0.00  0.00    +0.000 C 
ATOM      4  C   UNL     1       2.976   3.372  16.977  0.00  0.00    +0.000 C 
ATOM      5  N   UNL     1       2.728   2.937  18.368  0.00  0.00    +0.000 NA
ATOM      6  C   UNL     1       2.912   4.146  19.190  0.00  0.00    +0.000 C 
ATOM      7  C   UNL     1       3.570   5.246  18.338  0.00  0.00    +0.000 C 
BRANCH   7   8
ATOM      8  C   UNL     1       2.603   6.391  18.072  0.00  0.00    +0.000 C 
ATOM      9  C   UNL     1       2.459   7.527  19.067  0.00  0.00    +0.000 C 
ATOM     10  C   UNL     1       3.114   7.774  17.738  0.00  0.00    +0.000 C 
ENDBRANCH   7   8
BRANCH   5  11
ATOM     11  C   UNL     1       3.638   1.835  18.762  0.00  0.00    +0.000 C 
BRANCH  11  12
ATOM     12  C   UNL     1       4.267   2.030  20.157  0.00  0.00    +0.000 C 
BRANCH  12  13
ATOM     13  O   UNL     1       5.446   1.249  20.319  0.00  0.00    +0.000 OA
ATOM     14  H   UNL     1       5.977   1.717  20.989  0.00  0.00    +0.000 HD
ENDBRANCH  12  13
ENDBRANCH  11  12
ENDBRANCH   5  11
ENDBRANCH   1   3
BRANCH   1  15
ATOM     15  S   UNL     1       6.659   4.903  16.414  0.00  0.00    +0.000 S 
ATOM     16  O   UNL     1       7.940   4.352  16.785  0.00  0.00    +0.000 OA
ATOM     17  O   UNL     1       6.335   6.302  16.581  0.00  0.00    +0.000 OA
BRANCH  15  20
ATOM     18  N   UNL     1       5.914   3.836  12.802  0.00  0.00    +0.000 N 
ATOM     19  C   UNL     1       5.478   4.033  14.079  0.00  0.00    +0.000 A 
ATOM     20  C   UNL     1       6.522   4.637  14.734  0.00  0.00    +0.000 A 
ATOM     21  C   UNL     1       7.477   4.914  13.745  0.00  0.00    +0.000 A 
ATOM     22  N   UNL     1       7.108   4.426  12.555  0.00  0.00    +0.000 NA
BRANCH  18  23
ATOM     23  C   UNL     1       5.293   2.989  11.809  0.00  0.00    +0.000 C 
BRANCH  23  25
ATOM     24  C   UNL     1       7.285   1.679  10.880  0.00  0.00    +0.000 C 
ATOM     25  C   UNL     1       5.968   1.625  11.646  0.00  0.00    +0.000 C 
ENDBRANCH  23  25
ENDBRANCH  18  23
ENDBRANCH  15  20
ENDBRANCH   1  15
TORSDOF 9
ENDMDL
MODEL 3
REMARK VINA RESULT:      -6.7      3.107      5.498
REMARK  Name = 
REMARK  10 active torsions:
REMARK  status: ('A' for Active; 'I' for Inactive)
REMARK    1  A    between atoms: C_1  and  C_2
REMARK    2  A    between atoms: C_2  and  C_3
REMARK    3  A    between atoms: C_3  and  N_4
REMARK    4  A    between atoms: C_6  and  S_7
REMARK    5  A    between atoms: S_7  and  N_10
REMARK    6  A    between atoms: N_10  and  C_11
REMARK    7  A    between atoms: N_13  and  C_14
REMARK    8  A    between atoms: C_14  and  C_15
REMARK    9  A    between atoms: C_15  and  O_16
REMARK   10  A    between atoms: C_18  and  C_19
REMARK                            x       y       z     vdW  Elec       q    Type
REMARK                         _______ _______ _______ _____ _____    ______ ____
ROOT
ATOM      1  N   UNL     1       5.919   4.853  19.326  0.00  0.00    +0.000 NA
ATOM      2  H   UNL     1       5.396   5.698  19.555  0.00  0.00    +0.000 HD
ENDROOT
BRANCH   1   3
ATOM      3  C   UNL     1       5.304   3.976  18.284  0.00  0.00    +0.000 C 
ATOM      4  C   UNL     1       4.179   3.086  18.828  0.00  0.00    +0.000 C 
ATOM      5  N   UNL     1       2.958   3.920  18.874  0.00  0.00    +0.000 NA
ATOM      6  C   UNL     1       3.107   4.886  17.771  0.00  0.00    +0.000 C 
ATOM      7  C   UNL     1       4.552   4.839  17.245  0.00  0.00    +0.000 C 
BRANCH   7   8
ATOM      8  C   UNL     1       4.611   4.251  15.842  0.00  0.00    +0.000 C 
ATOM      9  C   UNL     1       5.417   4.931  14.752  0.00  0.00    +0.000 C 
ATOM     10  C   UNL     1       5.881   3.620  15.320  0.00  0.00    +0.000 C 
ENDBRANCH   7   8
BRANCH   5  11
ATOM     11  C   UNL     1       2.803   4.580  20.193  0.00  0.00    +0.000 C 
BRANCH  11  12
ATOM     12  C   UNL     1       1.804   3.861  21.123  0.00  0.00    +0.000 C 
BRANCH  12  13
ATOM     13  O   UNL     1       2.469   3.100  22.126  0.00  0.00    +0.000 OA
ATOM     14  H   UNL     1       1.814   2.447  22.433  0.00  0.00    +0.000 HD
ENDBRANCH  12  13
ENDBRANCH  11  12
ENDBRANCH   5  11
ENDBRANCH   1   3
BRANCH   1  15
ATOM     15  S   UNL     1       7.576   5.212  19.257  0.00  0.00    +0.000 S 
ATOM     16  O   UNL     1       8.257   4.259  18.414  0.00  0.00    +0.000 OA
ATOM     17  O   UNL     1       7.983   5.479  20.618  0.00  0.00    +0.000 OA
BRANCH  15  20
ATOM     18  N   UNL     1       8.205   8.801  18.049  0.00  0.00    +0.000 N 
ATOM     19  C   UNL     1       8.592   7.736  18.807  0.00  0.00    +0.000 A 
ATOM     20  C   UNL     1       7.741   6.715  18.465  0.00  0.00    +0.000 A 
ATOM     21  C   UNL     1       6.988   7.197  17.386  0.00  0.00    +0.000 A 
ATOM     22  N   UNL     1       7.271   8.479  17.123  0.00  0.00    +0.000 NA
BRANCH  18  23
ATOM     23  C   UNL     1       8.604  10.177  18.243  0.00  0.00    +0.000 C 
BRANCH  23  25
ATOM     24  C   UNL     1      10.521  11.432  19.383  0.00  0.00    +0.000 C 
ATOM     25  C   UNL     1       9.393  10.418  19.533  0.00  0.00    +0.000 C 
ENDBRANCH  23  25
ENDBRANCH  18  23
ENDBRANCH  15  20
ENDBRANCH   1  15
TORSDOF 9
ENDMDL
MODEL 4
REMARK VINA RESULT:      -6.6      1.758      6.204
REMARK  Name = 
REMARK  10 active torsions:
REMARK  status: ('A' for Active; 'I' for Inactive)
REMARK    1  A    between atoms: C_1  and  C_2
REMARK    2  A    between atoms: C_2  and  C_3
REMARK    3  A    between atoms: C_3  and  N_4
REMARK    4  A    between atoms: C_6  and  S_7
REMARK    5  A    between atoms: S_7  and  N_10
REMARK    6  A    between atoms: N_10  and  C_11
REMARK    7  A    between atoms: N_13  and  C_14
REMARK    8  A    between atoms: C_14  and  C_15
REMARK    9  A    between atoms: C_15  and  O_16
REMARK   10  A    between atoms: C_18  and  C_19
REMARK                            x       y       z     vdW  Elec       q    Type
REMARK                         _______ _______ _______ _____ _____    ______ ____
ROOT
ATOM      1  N   UNL     1       4.466   5.511  19.946  0.00  0.00    +0.000 NA
ATOM      2  H   UNL     1       4.759   6.300  20.522  0.00  0.00    +0.000 HD
ENDROOT
BRANCH   1   3
ATOM      3  C   UNL     1       3.288   5.759  19.061  0.00  0.00    +0.000 C 
ATOM      4  C   UNL     1       2.293   4.592  19.036  0.00  0.00    +0.000 C 
ATOM      5  N   UNL     1       1.443   4.729  20.238  0.00  0.00    +0.000 NA
ATOM      6  C   UNL     1       1.372   6.178  20.499  0.00  0.00    +0.000 C 
ATOM      7  C   UNL     1       2.424   6.902  19.640  0.00  0.00    +0.000 C 
BRANCH   7   8
ATOM      8  C   UNL     1       1.767   7.747  18.558  0.00  0.00    +0.000 C 
ATOM      9  C   UNL     1       1.734   9.259  18.672  0.00  0.00    +0.000 C 
ATOM     10  C   UNL     1       2.600   8.605  17.635  0.00  0.00    +0.000 C 
ENDBRANCH   7   8
BRANCH   5  11
ATOM     11  C   UNL     1       1.999   3.970  21.384  0.00  0.00    +0.000 C 
BRANCH  11  12
ATOM     12  C   UNL     1       2.512   2.567  20.997  0.00  0.00    +0.000 C 
BRANCH  12  13
ATOM     13  O   UNL     1       3.901   2.418  21.271  0.00  0.00    +0.000 OA
ATOM     14  H   UNL     1       3.974   2.407  22.242  0.00  0.00    +0.000 HD
ENDBRANCH  12  13
ENDBRANCH  11  12
ENDBRANCH   5  11
ENDBRANCH   1   3
BRANCH   1  15
ATOM     15  S   UNL     1       5.836   4.722  19.326  0.00  0.00    +0.000 S 
ATOM     16  O   UNL     1       5.590   3.304  19.221  0.00  0.00    +0.000 OA
ATOM     17  O   UNL     1       6.966   5.266  20.044  0.00  0.00    +0.000 OA
BRANCH  15  20
ATOM     18  N   UNL     1       6.405   5.298  15.573  0.00  0.00    +0.000 N 
ATOM     19  C   UNL     1       5.900   4.525  16.576  0.00  0.00    +0.000 A 
ATOM     20  C   UNL     1       6.056   5.263  17.723  0.00  0.00    +0.000 A 
ATOM     21  C   UNL     1       6.505   6.522  17.301  0.00  0.00    +0.000 A 
ATOM     22  N   UNL     1       6.720   6.551  15.980  0.00  0.00    +0.000 NA
BRANCH  18  23
ATOM     23  C   UNL     1       6.726   4.858  14.234  0.00  0.00    +0.000 C 
BRANCH  23  25
ATOM     24  C   UNL     1       5.942   3.397  12.284  0.00  0.00    +0.000 C 
ATOM     25  C   UNL     1       5.965   3.605  13.794  0.00  0.00    +0.000 C 
ENDBRANCH  23  25
ENDBRANCH  18  23
ENDBRANCH  15  20
ENDBRANCH   1  15
TORSDOF 9
ENDMDL
MODEL 5
REMARK VINA RESULT:      -6.6      3.139      6.047
REMARK  Name = 
REMARK  10 active torsions:
REMARK  status: ('A' for Active; 'I' for Inactive)
REMARK    1  A    between atoms: C_1  and  C_2
REMARK    2  A    between atoms: C_2  and  C_3
REMARK    3  A    between atoms: C_3  and  N_4
REMARK    4  A    between atoms: C_6  and  S_7
REMARK    5  A    between atoms: S_7  and  N_10
REMARK    6  A    between atoms: N_10  and  C_11
REMARK    7  A    between atoms: N_13  and  C_14
REMARK    8  A    between atoms: C_14  and  C_15
REMARK    9  A    between atoms: C_15  and  O_16
REMARK   10  A    between atoms: C_18  and  C_19
REMARK                            x       y       z     vdW  Elec       q    Type
REMARK                         _______ _______ _______ _____ _____    ______ ____
ROOT
ATOM      1  N   UNL     1       5.271   5.302  19.627  0.00  0.00    +0.000 NA
ATOM      2  H   UNL     1       5.227   5.900  20.452  0.00  0.00    +0.000 HD
ENDROOT
BRANCH   1   3
ATOM      3  C   UNL     1       4.176   5.497  18.630  0.00  0.00    +0.000 C 
ATOM      4  C   UNL     1       3.562   4.179  18.139  0.00  0.00    +0.000 C 
ATOM      5  N   UNL     1       2.582   3.756  19.162  0.00  0.00    +0.000 NA
ATOM      6  C   UNL     1       2.074   5.008  19.751  0.00  0.00    +0.000 C 
ATOM      7  C   UNL     1       2.964   6.180  19.303  0.00  0.00    +0.000 C 
BRANCH   7   8
ATOM      8  C   UNL     1       2.217   7.111  18.358  0.00  0.00    +0.000 C 
ATOM      9  C   UNL     1       1.892   8.534  18.773  0.00  0.00    +0.000 C 
ATOM     10  C   UNL     1       2.920   8.280  17.708  0.00  0.00    +0.000 C 
ENDBRANCH   7   8
BRANCH   5  11
ATOM     11  C   UNL     1       3.201   2.862  20.169  0.00  0.00    +0.000 C 
BRANCH  11  12
ATOM     12  C   UNL     1       4.129   1.794  19.552  0.00  0.00    +0.000 C 
BRANCH  12  13
ATOM     13  O   UNL     1       5.307   1.606  20.327  0.00  0.00    +0.000 OA
ATOM     14  H   UNL     1       5.010   1.609  21.256  0.00  0.00    +0.000 HD
ENDBRANCH  12  13
ENDBRANCH  11  12
ENDBRANCH   5  11
ENDBRANCH   1   3
BRANCH   1  15
ATOM     15  S   UNL     1       6.880   5.178  19.101  0.00  0.00    +0.000 S 
ATOM     16  O   UNL     1       6.999   4.144  18.102  0.00  0.00    +0.000 OA
ATOM     17  O   UNL     1       7.693   5.204  20.297  0.00  0.00    +0.000 OA
BRANCH  15  20
ATOM     18  N   UNL     1       8.078   8.603  17.846  0.00  0.00    +0.000 N 
ATOM     19  C   UNL     1       8.308   7.480  18.585  0.00  0.00    +0.000 A 
ATOM     20  C   UNL     1       7.268   6.632  18.296  0.00  0.00    +0.000 A 
ATOM     21  C   UNL     1       6.554   7.250  17.260  0.00  0.00    +0.000 A 
ATOM     22  N   UNL     1       7.049   8.462  16.977  0.00  0.00    +0.000 NA
BRANCH  18  23
ATOM     23  C   UNL     1       8.729   9.883  18.012  0.00  0.00    +0.000 C 
BRANCH  23  25
ATOM     24  C   UNL     1      10.219  11.294  19.541  0.00  0.00    +0.000 C 
ATOM     25  C   UNL     1       9.217  10.150  19.439  0.00  0.00    +0.000 C 
ENDBRANCH  23  25
ENDBRANCH  18  23
ENDBRANCH  15  20
ENDBRANCH   1  15
TORSDOF 9
ENDMDL
MODEL 6
REMARK VINA RESULT:      -6.6      1.103      1.472
REMARK  Name = 
REMARK  10 active torsions:
REMARK  status: ('A' for Active; 'I' for Inactive)
REMARK    1  A    between atoms: C_1  and  C_2
REMARK    2  A    between atoms: C_2  and  C_3
REMARK    3  A    between atoms: C_3  and  N_4
REMARK    4  A    between atoms: C_6  and  S_7
REMARK    5  A    between atoms: S_7  and  N_10
REMARK    6  A    between atoms: N_10  and  C_11
REMARK    7  A    between atoms: N_13  and  C_14
REMARK    8  A    between atoms: C_14  and  C_15
REMARK    9  A    between atoms: C_15  and  O_16
REMARK   10  A    between atoms: C_18  and  C_19
REMARK                            x       y       z     vdW  Elec       q    Type
REMARK                         _______ _______ _______ _____ _____    ______ ____
ROOT
ATOM      1  N   UNL     1       4.801   3.477  17.250  0.00  0.00    +0.000 NA
ATOM      2  H   UNL     1       5.188   2.544  17.108  0.00  0.00    +0.000 HD
ENDROOT
BRANCH   1   3
ATOM      3  C   UNL     1       5.058   4.456  16.151  0.00  0.00    +0.000 C 
ATOM      4  C   UNL     1       5.819   5.704  16.618  0.00  0.00    +0.000 C 
ATOM      5  N   UNL     1       7.252   5.343  16.658  0.00  0.00    +0.000 NA
ATOM      6  C   UNL     1       7.424   4.329  15.602  0.00  0.00    +0.000 C 
ATOM      7  C   UNL     1       6.042   3.851  15.124  0.00  0.00    +0.000 C 
BRANCH   7   8
ATOM      8  C   UNL     1       5.760   4.310  13.701  0.00  0.00    +0.000 C 
ATOM      9  C   UNL     1       6.381   3.590  12.519  0.00  0.00    +0.000 C 
ATOM     10  C   UNL     1       4.905   3.477  12.774  0.00  0.00    +0.000 C 
ENDBRANCH   7   8
BRANCH   5  11
ATOM     11  C   UNL     1       7.648   4.844  17.997  0.00  0.00    +0.000 C 
BRANCH  11  12
ATOM     12  C   UNL     1       7.422   5.873  19.124  0.00  0.00    +0.000 C 
BRANCH  12  13
ATOM     13  O   UNL     1       7.975   5.433  20.360  0.00  0.00    +0.000 OA
ATOM     14  H   UNL     1       7.794   6.150  20.995  0.00  0.00    +0.000 HD
ENDBRANCH  12  13
ENDBRANCH  11  12
ENDBRANCH   5  11
ENDBRANCH   1   3
BRANCH   1  15
ATOM     15  S   UNL     1       3.247   3.351  17.921  0.00  0.00    +0.000 S 
ATOM     16  O   UNL     1       3.247   2.395  19.002  0.00  0.00    +0.000 OA
ATOM     17  O   UNL     1       2.336   3.263  16.802  0.00  0.00    +0.000 OA
BRANCH  15  20
ATOM     18  N   UNL     1       2.145   6.364  20.030  0.00  0.00    +0.000 N 
ATOM     19  C   UNL     1       2.600   5.080  19.970  0.00  0.00    +0.000 A 
ATOM     20  C   UNL     1       2.880   4.852  18.646  0.00  0.00    +0.000 A 
ATOM     21  C   UNL     1       2.723   6.091  18.009  0.00  0.00    +0.000 A 
ATOM     22  N   UNL     1       2.274   7.026  18.855  0.00  0.00    +0.000 NA
BRANCH  18  23
ATOM     23  C   UNL     1       1.462   6.977  21.148  0.00  0.00    +0.000 C 
BRANCH  23  25
ATOM     24  C   UNL     1      -0.165   8.926  21.469  0.00  0.00    +0.000 C 
ATOM     25  C   UNL     1       1.203   8.475  20.970  0.00  0.00    +0.000 C 
ENDBRANCH  23  25
ENDBRANCH  18  23
ENDBRANCH  15  20
ENDBRANCH   1  15
TORSDOF 9
ENDMDL
MODEL 7
REMARK VINA RESULT:      -6.5      2.128      6.072
REMARK  Name = 
REMARK  10 active torsions:
REMARK  status: ('A' for Active; 'I' for Inactive)
REMARK    1  A    between atoms: C_1  and  C_2
REMARK    2  A    between atoms: C_2  and  C_3
REMARK    3  A    between atoms: C_3  and  N_4
REMARK    4  A    between atoms: C_6  and  S_7
REMARK    5  A    between atoms: S_7  and  N_10
REMARK    6  A    between atoms: N_10  and  C_11
REMARK    7  A    between atoms: N_13  and  C_14
REMARK    8  A    between atoms: C_14  and  C_15
REMARK    9  A    between atoms: C_15  and  O_16
REMARK   10  A    between atoms: C_18  and  C_19
REMARK                            x       y       z     vdW  Elec       q    Type
REMARK                         _______ _______ _______ _____ _____    ______ ____
ROOT
ATOM      1  N   UNL     1       4.588   5.825  19.593  0.00  0.00    +0.000 NA
ATOM      2  H   UNL     1       4.639   6.695  19.064  0.00  0.00    +0.000 HD
ENDROOT
BRANCH   1   3
ATOM      3  C   UNL     1       3.230   5.212  19.699  0.00  0.00    +0.000 C 
ATOM      4  C   UNL     1       2.138   6.221  20.078  0.00  0.00    +0.000 C 
ATOM      5  N   UNL     1       1.748   6.917  18.834  0.00  0.00    +0.000 NA
ATOM      6  C   UNL     1       1.953   5.931  17.758  0.00  0.00    +0.000 C 
ATOM      7  C   UNL     1       2.754   4.737  18.307  0.00  0.00    +0.000 C 
BRANCH   7   8
ATOM      8  C   UNL     1       1.897   3.482  18.377  0.00  0.00    +0.000 C 
ATOM      9  C   UNL     1       2.488   2.124  18.049  0.00  0.00    +0.000 C 
ATOM     10  C   UNL     1       2.115   2.456  19.465  0.00  0.00    +0.000 C 
ENDBRANCH   7   8
BRANCH   5  11
ATOM     11  C   UNL     1       2.542   8.153  18.633  0.00  0.00    +0.000 C 
BRANCH  11  12
ATOM     12  C   UNL     1       1.806   9.226  17.803  0.00  0.00    +0.000 C 
BRANCH  12  13
ATOM     13  O   UNL     1       0.797   9.882  18.564  0.00  0.00    +0.000 OA
ATOM     14  H   UNL     1       1.247  10.206  19.365  0.00  0.00    +0.000 HD
ENDBRANCH  12  13
ENDBRANCH  11  12
ENDBRANCH   5  11
ENDBRANCH   1   3
BRANCH   1  15
ATOM     15  S   UNL     1       5.926   4.852  19.214  0.00  0.00    +0.000 S 
ATOM     16  O   UNL     1       5.553   3.458  19.244  0.00  0.00    +0.000 OA
ATOM     17  O   UNL     1       7.032   5.380  19.980  0.00  0.00    +0.000 OA
BRANCH  15  20
ATOM     18  N   UNL     1       6.731   4.934  15.461  0.00  0.00    +0.000 N 
ATOM     19  C   UNL     1       5.975   4.447  16.486  0.00  0.00    +0.000 A 
ATOM     20  C   UNL     1       6.347   5.172  17.591  0.00  0.00    +0.000 A 
ATOM     21  C   UNL     1       7.202   6.175  17.114  0.00  0.00    +0.000 A 
ATOM     22  N   UNL     1       7.441   6.035  15.804  0.00  0.00    +0.000 NA
BRANCH  18  23
ATOM     23  C   UNL     1       6.912   4.317  14.166  0.00  0.00    +0.000 C 
BRANCH  23  25
ATOM     24  C   UNL     1       5.797   3.225  12.138  0.00  0.00    +0.000 C 
ATOM     25  C   UNL     1       5.612   3.817  13.530  0.00  0.00    +0.000 C 
ENDBRANCH  23  25
ENDBRANCH  18  23
ENDBRANCH  15  20
ENDBRANCH   1  15
TORSDOF 9
ENDMDL
MODEL 8
REMARK VINA RESULT:      -6.4      1.427      6.395
REMARK  Name = 
REMARK  10 active torsions:
REMARK  status: ('A' for Active; 'I' for Inactive)
REMARK    1  A    between atoms: C_1  and  C_2
REMARK    2  A    between atoms: C_2  and  C_3
REMARK    3  A    between atoms: C_3  and  N_4
REMARK    4  A    between atoms: C_6  and  S_7
REMARK    5  A    between atoms: S_7  and  N_10
REMARK    6  A    between atoms: N_10  and  C_11
REMARK    7  A    between atoms: N_13  and  C_14
REMARK    8  A    between atoms: C_14  and  C_15
REMARK    9  A    between atoms: C_15  and  O_16
REMARK   10  A    between atoms: C_18  and  C_19
REMARK                            x       y       z     vdW  Elec       q    Type
REMARK                         _______ _______ _______ _____ _____    ______ ____
ROOT
ATOM      1  N   UNL     1       4.211   5.656  18.906  0.00  0.00    +0.000 NA
ATOM      2  H   UNL     1       4.903   6.403  18.850  0.00  0.00    +0.000 HD
ENDROOT
BRANCH   1   3
ATOM      3  C   UNL     1       2.811   6.046  18.558  0.00  0.00    +0.000 C 
ATOM      4  C   UNL     1       1.768   5.008  18.993  0.00  0.00    +0.000 C 
ATOM      5  N   UNL     1       1.499   5.247  20.427  0.00  0.00    +0.000 NA
ATOM      6  C   UNL     1       1.702   6.694  20.623  0.00  0.00    +0.000 C 
ATOM      7  C   UNL     1       2.389   7.285  19.380  0.00  0.00    +0.000 C 
BRANCH   7   8
ATOM      8  C   UNL     1       1.448   8.204  18.613  0.00  0.00    +0.000 C 
ATOM      9  C   UNL     1       1.320   9.667  18.990  0.00  0.00    +0.000 C 
ATOM     10  C   UNL     1       1.990   9.281  17.702  0.00  0.00    +0.000 C 
ENDBRANCH   7   8
BRANCH   5  11
ATOM     11  C   UNL     1       2.383   4.425  21.289  0.00  0.00    +0.000 C 
BRANCH  11  12
ATOM     12  C   UNL     1       2.294   2.914  20.992  0.00  0.00    +0.000 C 
BRANCH  12  13
ATOM     13  O   UNL     1       3.577   2.345  20.757  0.00  0.00    +0.000 OA
ATOM     14  H   UNL     1       3.971   2.879  20.043  0.00  0.00    +0.000 HD
ENDBRANCH  12  13
ENDBRANCH  11  12
ENDBRANCH   5  11
ENDBRANCH   1   3
BRANCH   1  15
ATOM     15  S   UNL     1       4.870   4.224  18.274  0.00  0.00    +0.000 S 
ATOM     16  O   UNL     1       3.816   3.323  17.877  0.00  0.00    +0.000 OA
ATOM     17  O   UNL     1       5.925   3.838  19.184  0.00  0.00    +0.000 OA
BRANCH  15  20
ATOM     18  N   UNL     1       6.436   4.583  14.787  0.00  0.00    +0.000 N 
ATOM     19  C   UNL     1       5.387   4.190  15.566  0.00  0.00    +0.000 A 
ATOM     20  C   UNL     1       5.686   4.630  16.831  0.00  0.00    +0.000 A 
ATOM     21  C   UNL     1       6.840   5.414  16.695  0.00  0.00    +0.000 A 
ATOM     22  N   UNL     1       7.305   5.391  15.440  0.00  0.00    +0.000 NA
BRANCH  18  23
ATOM     23  C   UNL     1       6.727   4.119  13.449  0.00  0.00    +0.000 C 
BRANCH  23  25
ATOM     24  C   UNL     1       5.765   2.489  11.726  0.00  0.00    +0.000 C 
ATOM     25  C   UNL     1       5.493   3.653  12.672  0.00  0.00    +0.000 C 
ENDBRANCH  23  25
ENDBRANCH  18  23
ENDBRANCH  15  20
ENDBRANCH   1  15
TORSDOF 9
ENDMDL
MODEL 9
REMARK VINA RESULT:      -6.4      1.912      6.493
REMARK  Name = 
REMARK  10 active torsions:
REMARK  status: ('A' for Active; 'I' for Inactive)
REMARK    1  A    between atoms: C_1  and  C_2
REMARK    2  A    between atoms: C_2  and  C_3
REMARK    3  A    between atoms: C_3  and  N_4
REMARK    4  A    between atoms: C_6  and  S_7
REMARK    5  A    between atoms: S_7  and  N_10
REMARK    6  A    between atoms: N_10  and  C_11
REMARK    7  A    between atoms: N_13  and  C_14
REMARK    8  A    between atoms: C_14  and  C_15
REMARK    9  A    between atoms: C_15  and  O_16
REMARK   10  A    between atoms: C_18  and  C_19
REMARK                            x       y       z     vdW  Elec       q    Type
REMARK                         _______ _______ _______ _____ _____    ______ ____
ROOT
ATOM      1  N   UNL     1       3.549   4.710  17.783  0.00  0.00    +0.000 NA
ATOM      2  H   UNL     1       3.940   3.822  18.096  0.00  0.00    +0.000 HD
ENDROOT
BRANCH   1   3
ATOM      3  C   UNL     1       2.243   5.093  18.400  0.00  0.00    +0.000 C 
ATOM      4  C   UNL     1       1.312   3.898  18.639  0.00  0.00    +0.000 C 
ATOM      5  N   UNL     1       1.745   3.264  19.903  0.00  0.00    +0.000 NA
ATOM      6  C   UNL     1       2.291   4.363  20.719  0.00  0.00    +0.000 C 
ATOM      7  C   UNL     1       2.471   5.611  19.838  0.00  0.00    +0.000 C 
BRANCH   7   8
ATOM      8  C   UNL     1       1.490   6.708  20.228  0.00  0.00    +0.000 C 
ATOM      9  C   UNL     1       1.896   7.796  21.204  0.00  0.00    +0.000 C 
ATOM     10  C   UNL     1       1.691   8.129  19.754  0.00  0.00    +0.000 C 
ENDBRANCH   7   8
BRANCH   5  11
ATOM     11  C   UNL     1       2.735   2.188  19.657  0.00  0.00    +0.000 C 
BRANCH  11  12
ATOM     12  C   UNL     1       4.071   2.406  20.398  0.00  0.00    +0.000 C 
BRANCH  12  13
ATOM     13  O   UNL     1       5.112   2.793  19.507  0.00  0.00    +0.000 OA
ATOM     14  H   UNL     1       5.792   3.209  20.068  0.00  0.00    +0.000 HD
ENDBRANCH  12  13
ENDBRANCH  11  12
ENDBRANCH   5  11
ENDBRANCH   1   3
BRANCH   1  15
ATOM     15  S   UNL     1       4.789   5.860  17.648  0.00  0.00    +0.000 S 
ATOM     16  O   UNL     1       5.703   5.739  18.758  0.00  0.00    +0.000 OA
ATOM     17  O   UNL     1       4.141   7.106  17.304  0.00  0.00    +0.000 OA
BRANCH  15  20
ATOM     18  N   UNL     1       6.388   4.508  14.430  0.00  0.00    +0.000 N 
ATOM     19  C   UNL     1       5.265   4.791  15.151  0.00  0.00    +0.000 A 
ATOM     20  C   UNL     1       5.705   5.465  16.263  0.00  0.00    +0.000 A 
ATOM     21  C   UNL     1       7.073   5.688  16.053  0.00  0.00    +0.000 A 
ATOM     22  N   UNL     1       7.499   5.104  14.926  0.00  0.00    +0.000 NA
BRANCH  18  23
ATOM     23  C   UNL     1       6.483   3.575  13.329  0.00  0.00    +0.000 C 
BRANCH  23  25
ATOM     24  C   UNL     1       4.563   3.154  11.691  0.00  0.00    +0.000 C 
ATOM     25  C   UNL     1       5.752   4.032  12.064  0.00  0.00    +0.000 C 
ENDBRANCH  23  25
ENDBRANCH  18  23
ENDBRANCH  15  20
ENDBRANCH   1  15
TORSDOF 9
ENDMDL
