MODEL 1
REMARK VINA RESULT:      -8.3      0.000      0.000
REMARK  Name = 
REMARK  8 active torsions:
REMARK  status: ('A' for Active; 'I' for Inactive)
REMARK    1  A    between atoms: C_1  and  N_2
REMARK    2  A    between atoms: N_9  and  C_10
REMARK    3  A    between atoms: C_10  and  C_11
REMARK    4  A    between atoms: C_11  and  C_12
REMARK    5  A    between atoms: C_12  and  C_13
REMARK    6  A    between atoms: C_13  and  N_14
REMARK    7  A    between atoms: N_17  and  C_18
REMARK    8  A    between atoms: N_31  and  C_32
REMARK                            x       y       z     vdW  Elec       q    Type
REMARK                         _______ _______ _______ _____ _____    ______ ____
ROOT
ATOM      1  C   UNL     1       8.652  15.964  25.159  0.00  0.00    +0.000 C 
ATOM      2  N   UNL     1       8.636  14.802  24.293  0.00  0.00    +0.000 N 
ATOM      3  C   UNL     1       9.426  14.829  23.143  0.00  0.00    +0.000 A 
ATOM      4  O   UNL     1      10.133  15.775  22.818  0.00  0.00    +0.000 OA
ATOM      5  C   UNL     1       9.330  13.639  22.377  0.00  0.00    +0.000 A 
ATOM      6  C   UNL     1       8.546  12.580  22.727  0.00  0.00    +0.000 A 
ATOM      7  N   UNL     1       8.625  11.567  21.819  0.00  0.00    +0.000 NA
ATOM      8  C   UNL     1       9.465  12.010  20.905  0.00  0.00    +0.000 A 
ATOM      9  N   UNL     1       9.883  11.373  19.742  0.00  0.00    +0.000 N 
ATOM     10  C   UNL     1      10.808  11.997  18.903  0.00  0.00    +0.000 A 
ATOM     11  O   UNL     1      11.251  11.495  17.872  0.00  0.00    +0.000 OA
ATOM     12  C   UNL     1      11.276  13.365  19.276  0.00  0.00    +0.000 A 
ATOM     13  C   UNL     1      10.828  13.949  20.392  0.00  0.00    +0.000 A 
ATOM     14  N   UNL     1       9.933  13.281  21.206  0.00  0.00    +0.000 N 
ATOM     15  N   UNL     1       7.790  12.602  23.876  0.00  0.00    +0.000 N 
ATOM     16  C   UNL     1       6.955  11.484  24.276  0.00  0.00    +0.000 C 
ATOM     17  C   UNL     1       7.819  13.732  24.696  0.00  0.00    +0.000 A 
ATOM     18  O   UNL     1       7.157  13.787  25.739  0.00  0.00    +0.000 OA
ENDROOT
BRANCH   9  19
ATOM     19  C   UNL     1       9.370  10.070  19.356  0.00  0.00    +0.000 C 
BRANCH  19  20
ATOM     20  C   UNL     1       8.227  10.163  18.343  0.00  0.00    +0.000 C 
BRANCH  20  21
ATOM     21  C   UNL     1       8.119   8.894  17.493  0.00  0.00    +0.000 C 
BRANCH  21  22
ATOM     22  C   UNL     1       8.058   7.600  18.326  0.00  0.00    +0.000 C 
BRANCH  22  23
ATOM     23  N   UNL     1       7.719   6.407  17.527  0.00  0.00    +0.000 NA
ATOM     24  C   UNL     1       7.498   5.198  18.357  0.00  0.00    +0.000 C 
ATOM     25  C   UNL     1       6.301   5.333  19.313  0.00  0.00    +0.000 C 
ATOM     26  N   UNL     1       5.071   5.531  18.540  0.00  0.00    +0.000 N 
ATOM     27  C   UNL     1       5.119   6.614  17.536  0.00  0.00    +0.000 C 
ATOM     28  C   UNL     1       6.467   6.630  16.746  0.00  0.00    +0.000 C 
BRANCH  26  29
ATOM     29  C   UNL     1       4.142   4.506  18.448  0.00  0.00    +0.000 A 
ATOM     30  C   UNL     1       4.411   3.238  18.980  0.00  0.00    +0.000 A 
ATOM     31  C   UNL     1       3.539   2.160  18.780  0.00  0.00    +0.000 A 
ATOM     32  C   UNL     1       2.365   2.333  18.052  0.00  0.00    +0.000 A 
ATOM     33  C   UNL     1       2.054   3.588  17.546  0.00  0.00    +0.000 A 
ATOM     34  C   UNL     1       2.931   4.655  17.751  0.00  0.00    +0.000 A 
ENDBRANCH  26  29
ENDBRANCH  22  23
ENDBRANCH  21  22
ENDBRANCH  20  21
ENDBRANCH  19  20
ENDBRANCH   9  19
TORSDOF 6
ENDMDL
MODEL 2
REMARK VINA RESULT:      -7.8      3.991     10.812
REMARK  Name = 
REMARK  8 active torsions:
REMARK  status: ('A' for Active; 'I' for Inactive)
REMARK    1  A    between atoms: C_1  and  N_2
REMARK    2  A    between atoms: N_9  and  C_10
REMARK    3  A    between atoms: C_10  and  C_11
REMARK    4  A    between atoms: C_11  and  C_12
REMARK    5  A    between atoms: C_12  and  C_13
REMARK    6  A    between atoms: C_13  and  N_14
REMARK    7  A    between atoms: N_17  and  C_18
REMARK    8  A    between atoms: N_31  and  C_32
REMARK                            x       y       z     vdW  Elec       q    Type
REMARK                         _______ _______ _______ _____ _____    ______ ____
ROOT
ATOM      1  C   UNL     1       1.300   1.850  19.598  0.00  0.00    +0.000 C 
ATOM      2  N   UNL     1       2.073   3.016  19.221  0.00  0.00    +0.000 N 
ATOM      3  C   UNL     1       3.106   2.849  18.296  0.00  0.00    +0.000 A 
ATOM      4  O   UNL     1       3.399   1.776  17.783  0.00  0.00    +0.000 OA
ATOM      5  C   UNL     1       3.790   4.056  18.005  0.00  0.00    +0.000 A 
ATOM      6  C   UNL     1       3.474   5.255  18.571  0.00  0.00    +0.000 A 
ATOM      7  N   UNL     1       4.288   6.256  18.130  0.00  0.00    +0.000 NA
ATOM      8  C   UNL     1       5.110   5.662  17.286  0.00  0.00    +0.000 A 
ATOM      9  N   UNL     1       6.157   6.228  16.568  0.00  0.00    +0.000 N 
ATOM     10  C   UNL     1       6.905   5.437  15.695  0.00  0.00    +0.000 A 
ATOM     11  O   UNL     1       7.828   5.859  15.002  0.00  0.00    +0.000 OA
ATOM     12  C   UNL     1       6.572   3.983  15.610  0.00  0.00    +0.000 A 
ATOM     13  C   UNL     1       5.572   3.479  16.340  0.00  0.00    +0.000 A 
ATOM     14  N   UNL     1       4.840   4.307  17.170  0.00  0.00    +0.000 N 
ATOM     15  N   UNL     1       2.442   5.368  19.473  0.00  0.00    +0.000 N 
ATOM     16  C   UNL     1       2.080   6.635  20.082  0.00  0.00    +0.000 C 
ATOM     17  C   UNL     1       1.709   4.232  19.824  0.00  0.00    +0.000 A 
ATOM     18  O   UNL     1       0.772   4.294  20.628  0.00  0.00    +0.000 OA
ENDROOT
BRANCH   9  19
ATOM     19  C   UNL     1       6.513   7.628  16.707  0.00  0.00    +0.000 C 
BRANCH  19  20
ATOM     20  C   UNL     1       7.669   7.847  17.686  0.00  0.00    +0.000 C 
BRANCH  20  21
ATOM     21  C   UNL     1       8.097   9.316  17.738  0.00  0.00    +0.000 C 
BRANCH  21  22
ATOM     22  C   UNL     1       9.018   9.646  18.929  0.00  0.00    +0.000 C 
BRANCH  22  23
ATOM     23  N   UNL     1      10.070  10.626  18.599  0.00  0.00    +0.000 NA
ATOM     24  C   UNL     1       9.542  11.837  17.926  0.00  0.00    +0.000 C 
ATOM     25  C   UNL     1       8.573  12.644  18.808  0.00  0.00    +0.000 C 
ATOM     26  N   UNL     1       9.272  13.112  20.009  0.00  0.00    +0.000 N 
ATOM     27  C   UNL     1       9.997  12.073  20.769  0.00  0.00    +0.000 C 
ATOM     28  C   UNL     1      10.770  11.087  19.834  0.00  0.00    +0.000 C 
BRANCH  26  29
ATOM     29  C   UNL     1       9.594  14.454  20.140  0.00  0.00    +0.000 A 
ATOM     30  C   UNL     1      10.604  14.872  21.018  0.00  0.00    +0.000 A 
ATOM     31  C   UNL     1      10.849  16.231  21.257  0.00  0.00    +0.000 A 
ATOM     32  C   UNL     1      10.097  17.205  20.607  0.00  0.00    +0.000 A 
ATOM     33  C   UNL     1       9.116  16.820  19.702  0.00  0.00    +0.000 A 
ATOM     34  C   UNL     1       8.879  15.463  19.472  0.00  0.00    +0.000 A 
ENDBRANCH  26  29
ENDBRANCH  22  23
ENDBRANCH  21  22
ENDBRANCH  20  21
ENDBRANCH  19  20
ENDBRANCH   9  19
TORSDOF 6
ENDMDL
MODEL 3
REMARK VINA RESULT:      -7.7      3.880     10.656
REMARK  Name = 
REMARK  8 active torsions:
REMARK  status: ('A' for Active; 'I' for Inactive)
REMARK    1  A    between atoms: C_1  and  N_2
REMARK    2  A    between atoms: N_9  and  C_10
REMARK    3  A    between atoms: C_10  and  C_11
REMARK    4  A    between atoms: C_11  and  C_12
REMARK    5  A    between atoms: C_12  and  C_13
REMARK    6  A    between atoms: C_13  and  N_14
REMARK    7  A    between atoms: N_17  and  C_18
REMARK    8  A    between atoms: N_31  and  C_32
REMARK                            x       y       z     vdW  Elec       q    Type
REMARK                         _______ _______ _______ _____ _____    ______ ____
ROOT
ATOM      1  C   UNL     1       0.604   2.523  19.165  0.00  0.00    +0.000 C 
ATOM      2  N   UNL     1       1.606   3.547  18.951  0.00  0.00    +0.000 N 
ATOM      3  C   UNL     1       2.584   3.318  17.982  0.00  0.00    +0.000 A 
ATOM      4  O   UNL     1       2.648   2.304  17.298  0.00  0.00    +0.000 OA
ATOM      5  C   UNL     1       3.507   4.388  17.862  0.00  0.00    +0.000 A 
ATOM      6  C   UNL     1       3.447   5.521  18.618  0.00  0.00    +0.000 A 
ATOM      7  N   UNL     1       4.455   6.388  18.314  0.00  0.00    +0.000 NA
ATOM      8  C   UNL     1       5.137   5.778  17.364  0.00  0.00    +0.000 A 
ATOM      9  N   UNL     1       6.283   6.221  16.712  0.00  0.00    +0.000 N 
ATOM     10  C   UNL     1       6.851   5.441  15.705  0.00  0.00    +0.000 A 
ATOM     11  O   UNL     1       7.845   5.767  15.059  0.00  0.00    +0.000 OA
ATOM     12  C   UNL     1       6.221   4.121  15.404  0.00  0.00    +0.000 A 
ATOM     13  C   UNL     1       5.135   3.726  16.075  0.00  0.00    +0.000 A 
ATOM     14  N   UNL     1       4.590   4.545  17.046  0.00  0.00    +0.000 N 
ATOM     15  N   UNL     1       2.459   5.701  19.557  0.00  0.00    +0.000 N 
ATOM     16  C   UNL     1       2.368   6.902  20.367  0.00  0.00    +0.000 C 
ATOM     17  C   UNL     1       1.503   4.701  19.747  0.00  0.00    +0.000 A 
ATOM     18  O   UNL     1       0.597   4.827  20.579  0.00  0.00    +0.000 OA
ENDROOT
BRANCH   9  19
ATOM     19  C   UNL     1       6.924   7.476  17.058  0.00  0.00    +0.000 C 
BRANCH  19  20
ATOM     20  C   UNL     1       8.068   7.297  18.059  0.00  0.00    +0.000 C 
BRANCH  20  21
ATOM     21  C   UNL     1       8.379   8.598  18.804  0.00  0.00    +0.000 C 
BRANCH  21  22
ATOM     22  C   UNL     1       8.424   9.836  17.887  0.00  0.00    +0.000 C 
BRANCH  22  23
ATOM     23  N   UNL     1       9.649  10.642  18.055  0.00  0.00    +0.000 NA
ATOM     24  C   UNL     1       9.482  12.046  17.610  0.00  0.00    +0.000 C 
ATOM     25  C   UNL     1       8.436  12.819  18.432  0.00  0.00    +0.000 C 
ATOM     26  N   UNL     1       8.856  12.879  19.835  0.00  0.00    +0.000 N 
ATOM     27  C   UNL     1       9.212  11.583  20.448  0.00  0.00    +0.000 C 
ATOM     28  C   UNL     1      10.060  10.687  19.488  0.00  0.00    +0.000 C 
BRANCH  26  29
ATOM     29  C   UNL     1       9.311  14.075  20.368  0.00  0.00    +0.000 A 
ATOM     30  C   UNL     1       9.447  15.217  19.567  0.00  0.00    +0.000 A 
ATOM     31  C   UNL     1      10.029  16.393  20.060  0.00  0.00    +0.000 A 
ATOM     32  C   UNL     1      10.474  16.455  21.378  0.00  0.00    +0.000 A 
ATOM     33  C   UNL     1      10.316  15.352  22.206  0.00  0.00    +0.000 A 
ATOM     34  C   UNL     1       9.736  14.185  21.703  0.00  0.00    +0.000 A 
ENDBRANCH  26  29
ENDBRANCH  22  23
ENDBRANCH  21  22
ENDBRANCH  20  21
ENDBRANCH  19  20
ENDBRANCH   9  19
TORSDOF 6
ENDMDL
MODEL 4
REMARK VINA RESULT:      -7.5      7.117      8.184
REMARK  Name = 
REMARK  8 active torsions:
REMARK  status: ('A' for Active; 'I' for Inactive)
REMARK    1  A    between atoms: C_1  and  N_2
REMARK    2  A    between atoms: N_9  and  C_10
REMARK    3  A    between atoms: C_10  and  C_11
REMARK    4  A    between atoms: C_11  and  C_12
REMARK    5  A    between atoms: C_12  and  C_13
REMARK    6  A    between atoms: C_13  and  N_14
REMARK    7  A    between atoms: N_17  and  C_18
REMARK    8  A    between atoms: N_31  and  C_32
REMARK                            x       y       z     vdW  Elec       q    Type
REMARK                         _______ _______ _______ _____ _____    ______ ____
ROOT
ATOM      1  C   UNL     1      -2.285  13.674  20.329  0.00  0.00    +0.000 C 
ATOM      2  N   UNL     1      -1.520  12.470  20.585  0.00  0.00    +0.000 N 
ATOM      3  C   UNL     1      -0.762  11.938  19.541  0.00  0.00    +0.000 A 
ATOM      4  O   UNL     1      -0.701  12.428  18.420  0.00  0.00    +0.000 OA
ATOM      5  C   UNL     1      -0.058  10.764  19.909  0.00  0.00    +0.000 A 
ATOM      6  C   UNL     1      -0.118  10.210  21.153  0.00  0.00    +0.000 A 
ATOM      7  N   UNL     1       0.641   9.081  21.244  0.00  0.00    +0.000 NA
ATOM      8  C   UNL     1       1.171   8.944  20.045  0.00  0.00    +0.000 A 
ATOM      9  N   UNL     1       2.016   7.939  19.589  0.00  0.00    +0.000 N 
ATOM     10  C   UNL     1       2.501   7.980  18.281  0.00  0.00    +0.000 A 
ATOM     11  O   UNL     1       3.272   7.149  17.806  0.00  0.00    +0.000 OA
ATOM     12  C   UNL     1       2.041   9.095  17.401  0.00  0.00    +0.000 A 
ATOM     13  C   UNL     1       1.208  10.027  17.875  0.00  0.00    +0.000 A 
ATOM     14  N   UNL     1       0.776   9.960  19.186  0.00  0.00    +0.000 N 
ATOM     15  N   UNL     1      -0.878  10.776  22.150  0.00  0.00    +0.000 N 
ATOM     16  C   UNL     1      -0.951  10.211  23.485  0.00  0.00    +0.000 C 
ATOM     17  C   UNL     1      -1.607  11.936  21.882  0.00  0.00    +0.000 A 
ATOM     18  O   UNL     1      -2.298  12.477  22.754  0.00  0.00    +0.000 OA
ENDROOT
BRANCH   9  19
ATOM     19  C   UNL     1       2.404   6.824  20.435  0.00  0.00    +0.000 C 
BRANCH  19  20
ATOM     20  C   UNL     1       1.993   5.470  19.851  0.00  0.00    +0.000 C 
BRANCH  20  21
ATOM     21  C   UNL     1       3.155   4.474  19.855  0.00  0.00    +0.000 C 
BRANCH  21  22
ATOM     22  C   UNL     1       4.481   5.074  19.349  0.00  0.00    +0.000 C 
BRANCH  22  23
ATOM     23  N   UNL     1       5.363   4.082  18.706  0.00  0.00    +0.000 NA
ATOM     24  C   UNL     1       4.750   3.450  17.512  0.00  0.00    +0.000 C 
ATOM     25  C   UNL     1       4.462   4.451  16.381  0.00  0.00    +0.000 C 
ATOM     26  N   UNL     1       5.717   5.058  15.926  0.00  0.00    +0.000 N 
ATOM     27  C   UNL     1       6.567   5.634  16.989  0.00  0.00    +0.000 C 
ATOM     28  C   UNL     1       6.634   4.719  18.253  0.00  0.00    +0.000 C 
BRANCH  26  29
ATOM     29  C   UNL     1       6.247   4.703  14.695  0.00  0.00    +0.000 A 
ATOM     30  C   UNL     1       7.358   5.376  14.166  0.00  0.00    +0.000 A 
ATOM     31  C   UNL     1       7.822   5.116  12.870  0.00  0.00    +0.000 A 
ATOM     32  C   UNL     1       7.191   4.162  12.077  0.00  0.00    +0.000 A 
ATOM     33  C   UNL     1       6.113   3.452  12.589  0.00  0.00    +0.000 A 
ATOM     34  C   UNL     1       5.658   3.720  13.883  0.00  0.00    +0.000 A 
ENDBRANCH  26  29
ENDBRANCH  22  23
ENDBRANCH  21  22
ENDBRANCH  20  21
ENDBRANCH  19  20
ENDBRANCH   9  19
TORSDOF 6
ENDMDL
MODEL 5
REMARK VINA RESULT:      -7.4      7.266      8.213
REMARK  Name = 
REMARK  8 active torsions:
REMARK  status: ('A' for Active; 'I' for Inactive)
REMARK    1  A    between atoms: C_1  and  N_2
REMARK    2  A    between atoms: N_9  and  C_10
REMARK    3  A    between atoms: C_10  and  C_11
REMARK    4  A    between atoms: C_11  and  C_12
REMARK    5  A    between atoms: C_12  and  C_13
REMARK    6  A    between atoms: C_13  and  N_14
REMARK    7  A    between atoms: N_17  and  C_18
REMARK    8  A    between atoms: N_31  and  C_32
REMARK                            x       y       z     vdW  Elec       q    Type
REMARK                         _______ _______ _______ _____ _____    ______ ____
ROOT
ATOM      1  C   UNL     1      -1.531  13.978  19.726  0.00  0.00    +0.000 C 
ATOM      2  N   UNL     1      -0.996  12.699  20.148  0.00  0.00    +0.000 N 
ATOM      3  C   UNL     1      -0.218  11.980  19.240  0.00  0.00    +0.000 A 
ATOM      4  O   UNL     1       0.042  12.363  18.106  0.00  0.00    +0.000 OA
ATOM      5  C   UNL     1       0.249  10.748  19.764  0.00  0.00    +0.000 A 
ATOM      6  C   UNL     1      -0.035  10.310  21.023  0.00  0.00    +0.000 A 
ATOM      7  N   UNL     1       0.525   9.093  21.277  0.00  0.00    +0.000 NA
ATOM      8  C   UNL     1       1.157   8.784  20.162  0.00  0.00    +0.000 A 
ATOM      9  N   UNL     1       1.880   7.631  19.876  0.00  0.00    +0.000 N 
ATOM     10  C   UNL     1       2.507   7.495  18.638  0.00  0.00    +0.000 A 
ATOM     11  O   UNL     1       3.187   6.524  18.313  0.00  0.00    +0.000 OA
ATOM     12  C   UNL     1       2.327   8.592  17.640  0.00  0.00    +0.000 A 
ATOM     13  C   UNL     1       1.602   9.671  17.950  0.00  0.00    +0.000 A 
ATOM     14  N   UNL     1       1.022   9.774  19.200  0.00  0.00    +0.000 N 
ATOM     15  N   UNL     1      -0.803  11.060  21.883  0.00  0.00    +0.000 N 
ATOM     16  C   UNL     1      -1.111  10.621  23.231  0.00  0.00    +0.000 C 
ATOM     17  C   UNL     1      -1.309  12.291  21.456  0.00  0.00    +0.000 A 
ATOM     18  O   UNL     1      -2.000  12.995  22.201  0.00  0.00    +0.000 OA
ENDROOT
BRANCH   9  19
ATOM     19  C   UNL     1       1.993   6.543  20.831  0.00  0.00    +0.000 C 
BRANCH  19  20
ATOM     20  C   UNL     1       1.367   5.243  20.320  0.00  0.00    +0.000 C 
BRANCH  20  21
ATOM     21  C   UNL     1       2.245   4.030  20.633  0.00  0.00    +0.000 C 
BRANCH  21  22
ATOM     22  C   UNL     1       1.805   2.747  19.902  0.00  0.00    +0.000 C 
BRANCH  22  23
ATOM     23  N   UNL     1       2.913   2.055  19.216  0.00  0.00    +0.000 NA
ATOM     24  C   UNL     1       2.819   2.138  17.739  0.00  0.00    +0.000 C 
ATOM     25  C   UNL     1       2.919   3.578  17.207  0.00  0.00    +0.000 C 
ATOM     26  N   UNL     1       4.221   4.149  17.570  0.00  0.00    +0.000 N 
ATOM     27  C   UNL     1       4.584   4.046  18.998  0.00  0.00    +0.000 C 
ATOM     28  C   UNL     1       4.226   2.650  19.601  0.00  0.00    +0.000 C 
BRANCH  26  29
ATOM     29  C   UNL     1       5.187   4.337  16.594  0.00  0.00    +0.000 A 
ATOM     30  C   UNL     1       4.934   4.010  15.255  0.00  0.00    +0.000 A 
ATOM     31  C   UNL     1       5.942   4.071  14.283  0.00  0.00    +0.000 A 
ATOM     32  C   UNL     1       7.227   4.478  14.631  0.00  0.00    +0.000 A 
ATOM     33  C   UNL     1       7.497   4.846  15.942  0.00  0.00    +0.000 A 
ATOM     34  C   UNL     1       6.484   4.780  16.902  0.00  0.00    +0.000 A 
ENDBRANCH  26  29
ENDBRANCH  22  23
ENDBRANCH  21  22
ENDBRANCH  20  21
ENDBRANCH  19  20
ENDBRANCH   9  19
TORSDOF 6
ENDMDL
MODEL 6
REMARK VINA RESULT:      -7.1      5.437     11.263
REMARK  Name = 
REMARK  8 active torsions:
REMARK  status: ('A' for Active; 'I' for Inactive)
REMARK    1  A    between atoms: C_1  and  N_2
REMARK    2  A    between atoms: N_9  and  C_10
REMARK    3  A    between atoms: C_10  and  C_11
REMARK    4  A    between atoms: C_11  and  C_12
REMARK    5  A    between atoms: C_12  and  C_13
REMARK    6  A    between atoms: C_13  and  N_14
REMARK    7  A    between atoms: N_17  and  C_18
REMARK    8  A    between atoms: N_31  and  C_32
REMARK                            x       y       z     vdW  Elec       q    Type
REMARK                         _______ _______ _______ _____ _____    ______ ____
ROOT
ATOM      1  C   UNL     1       3.929   2.980  19.842  0.00  0.00    +0.000 C 
ATOM      2  N   UNL     1       3.656   4.308  19.329  0.00  0.00    +0.000 N 
ATOM      3  C   UNL     1       2.815   5.138  20.072  0.00  0.00    +0.000 A 
ATOM      4  O   UNL     1       2.294   4.815  21.132  0.00  0.00    +0.000 OA
ATOM      5  C   UNL     1       2.623   6.409  19.473  0.00  0.00    +0.000 A 
ATOM      6  C   UNL     1       3.197   6.780  18.293  0.00  0.00    +0.000 A 
ATOM      7  N   UNL     1       2.844   8.046  17.932  0.00  0.00    +0.000 NA
ATOM      8  C   UNL     1       2.048   8.454  18.901  0.00  0.00    +0.000 A 
ATOM      9  N   UNL     1       1.391   9.674  19.015  0.00  0.00    +0.000 N 
ATOM     10  C   UNL     1       0.604   9.935  20.137  0.00  0.00    +0.000 A 
ATOM     11  O   UNL     1       0.011  10.994  20.332  0.00  0.00    +0.000 OA
ATOM     12  C   UNL     1       0.461   8.853  21.157  0.00  0.00    +0.000 A 
ATOM     13  C   UNL     1       1.092   7.686  20.992  0.00  0.00    +0.000 A 
ATOM     14  N   UNL     1       1.884   7.483  19.878  0.00  0.00    +0.000 N 
ATOM     15  N   UNL     1       4.023   5.924  17.602  0.00  0.00    +0.000 N 
ATOM     16  C   UNL     1       4.653   6.298  16.350  0.00  0.00    +0.000 C 
ATOM     17  C   UNL     1       4.273   4.649  18.114  0.00  0.00    +0.000 A 
ATOM     18  O   UNL     1       5.013   3.853  17.524  0.00  0.00    +0.000 OA
ENDROOT
BRANCH   9  19
ATOM     19  C   UNL     1       1.484  10.693  17.985  0.00  0.00    +0.000 C 
BRANCH  19  20
ATOM     20  C   UNL     1       2.553  11.745  18.292  0.00  0.00    +0.000 C 
BRANCH  20  21
ATOM     21  C   UNL     1       1.966  13.159  18.314  0.00  0.00    +0.000 C 
BRANCH  21  22
ATOM     22  C   UNL     1       2.544  14.046  19.434  0.00  0.00    +0.000 C 
BRANCH  22  23
ATOM     23  N   UNL     1       3.001  15.365  18.956  0.00  0.00    +0.000 NA
ATOM     24  C   UNL     1       3.836  16.083  19.949  0.00  0.00    +0.000 C 
ATOM     25  C   UNL     1       5.150  15.351  20.273  0.00  0.00    +0.000 C 
ATOM     26  N   UNL     1       5.963  15.235  19.058  0.00  0.00    +0.000 N 
ATOM     27  C   UNL     1       5.273  14.665  17.883  0.00  0.00    +0.000 C 
ATOM     28  C   UNL     1       3.823  15.225  17.719  0.00  0.00    +0.000 C 
BRANCH  26  29
ATOM     29  C   UNL     1       7.104  16.010  18.915  0.00  0.00    +0.000 A 
ATOM     30  C   UNL     1       7.275  17.186  19.658  0.00  0.00    +0.000 A 
ATOM     31  C   UNL     1       8.359  18.045  19.430  0.00  0.00    +0.000 A 
ATOM     32  C   UNL     1       9.307  17.735  18.458  0.00  0.00    +0.000 A 
ATOM     33  C   UNL     1       9.183  16.557  17.734  0.00  0.00    +0.000 A 
ATOM     34  C   UNL     1       8.099  15.708  17.970  0.00  0.00    +0.000 A 
ENDBRANCH  26  29
ENDBRANCH  22  23
ENDBRANCH  21  22
ENDBRANCH  20  21
ENDBRANCH  19  20
ENDBRANCH   9  19
TORSDOF 6
ENDMDL
MODEL 7
REMARK VINA RESULT:      -7.1      6.544      7.624
REMARK  Name = 
REMARK  8 active torsions:
REMARK  status: ('A' for Active; 'I' for Inactive)
REMARK    1  A    between atoms: C_1  and  N_2
REMARK    2  A    between atoms: N_9  and  C_10
REMARK    3  A    between atoms: C_10  and  C_11
REMARK    4  A    between atoms: C_11  and  C_12
REMARK    5  A    between atoms: C_12  and  C_13
REMARK    6  A    between atoms: C_13  and  N_14
REMARK    7  A    between atoms: N_17  and  C_18
REMARK    8  A    between atoms: N_31  and  C_32
REMARK                            x       y       z     vdW  Elec       q    Type
REMARK                         _______ _______ _______ _____ _____    ______ ____
ROOT
ATOM      1  C   UNL     1      -0.703  16.296  22.304  0.00  0.00    +0.000 C 
ATOM      2  N   UNL     1      -0.573  14.887  21.990  0.00  0.00    +0.000 N 
ATOM      3  C   UNL     1       0.250  14.525  20.923  0.00  0.00    +0.000 A 
ATOM      4  O   UNL     1       0.871  15.325  20.234  0.00  0.00    +0.000 OA
ATOM      5  C   UNL     1       0.300  13.124  20.711  0.00  0.00    +0.000 A 
ATOM      6  C   UNL     1      -0.388  12.224  21.470  0.00  0.00    +0.000 A 
ATOM      7  N   UNL     1      -0.177  10.943  21.054  0.00  0.00    +0.000 NA
ATOM      8  C   UNL     1       0.647  11.061  20.032  0.00  0.00    +0.000 A 
ATOM      9  N   UNL     1       1.166  10.053  19.227  0.00  0.00    +0.000 N 
ATOM     10  C   UNL     1       2.054  10.374  18.200  0.00  0.00    +0.000 A 
ATOM     11  O   UNL     1       2.580   9.545  17.460  0.00  0.00    +0.000 OA
ATOM     12  C   UNL     1       2.371  11.816  17.976  0.00  0.00    +0.000 A 
ATOM     13  C   UNL     1       1.829  12.753  18.760  0.00  0.00    +0.000 A 
ATOM     14  N   UNL     1       0.976  12.385  19.783  0.00  0.00    +0.000 N 
ATOM     15  N   UNL     1      -1.182  12.632  22.516  0.00  0.00    +0.000 N 
ATOM     16  C   UNL     1      -1.916  11.693  23.344  0.00  0.00    +0.000 C 
ATOM     17  C   UNL     1      -1.294  13.995  22.802  0.00  0.00    +0.000 A 
ATOM     18  O   UNL     1      -1.995  14.400  23.736  0.00  0.00    +0.000 OA
ENDROOT
BRANCH   9  19
ATOM     19  C   UNL     1       0.799   8.660  19.412  0.00  0.00    +0.000 C 
BRANCH  19  20
ATOM     20  C   UNL     1       1.776   7.909  20.320  0.00  0.00    +0.000 C 
BRANCH  20  21
ATOM     21  C   UNL     1       1.311   6.476  20.591  0.00  0.00    +0.000 C 
BRANCH  21  22
ATOM     22  C   UNL     1       2.461   5.451  20.618  0.00  0.00    +0.000 C 
BRANCH  22  23
ATOM     23  N   UNL     1       2.437   4.517  19.476  0.00  0.00    +0.000 NA
ATOM     24  C   UNL     1       2.434   5.207  18.164  0.00  0.00    +0.000 C 
ATOM     25  C   UNL     1       3.706   6.036  17.915  0.00  0.00    +0.000 C 
ATOM     26  N   UNL     1       4.878   5.154  17.913  0.00  0.00    +0.000 N 
ATOM     27  C   UNL     1       5.004   4.262  19.084  0.00  0.00    +0.000 C 
ATOM     28  C   UNL     1       3.636   3.628  19.495  0.00  0.00    +0.000 C 
BRANCH  26  29
ATOM     29  C   UNL     1       5.525   4.871  16.721  0.00  0.00    +0.000 A 
ATOM     30  C   UNL     1       6.865   5.231  16.523  0.00  0.00    +0.000 A 
ATOM     31  C   UNL     1       7.491   5.069  15.280  0.00  0.00    +0.000 A 
ATOM     32  C   UNL     1       6.790   4.525  14.207  0.00  0.00    +0.000 A 
ATOM     33  C   UNL     1       5.473   4.123  14.385  0.00  0.00    +0.000 A 
ATOM     34  C   UNL     1       4.859   4.290  15.628  0.00  0.00    +0.000 A 
ENDBRANCH  26  29
ENDBRANCH  22  23
ENDBRANCH  21  22
ENDBRANCH  20  21
ENDBRANCH  19  20
ENDBRANCH   9  19
TORSDOF 6
ENDMDL
MODEL 8
REMARK VINA RESULT:      -7.1      8.213     12.199
REMARK  Name = 
REMARK  8 active torsions:
REMARK  status: ('A' for Active; 'I' for Inactive)
REMARK    1  A    between atoms: C_1  and  N_2
REMARK    2  A    between atoms: N_9  and  C_10
REMARK    3  A    between atoms: C_10  and  C_11
REMARK    4  A    between atoms: C_11  and  C_12
REMARK    5  A    between atoms: C_12  and  C_13
REMARK    6  A    between atoms: C_13  and  N_14
REMARK    7  A    between atoms: N_17  and  C_18
REMARK    8  A    between atoms: N_31  and  C_32
REMARK                            x       y       z     vdW  Elec       q    Type
REMARK                         _______ _______ _______ _____ _____    ______ ____
ROOT
ATOM      1  C   UNL     1       5.458   3.826  17.900  0.00  0.00    +0.000 C 
ATOM      2  N   UNL     1       4.406   4.534  18.602  0.00  0.00    +0.000 N 
ATOM      3  C   UNL     1       4.071   5.816  18.164  0.00  0.00    +0.000 A 
ATOM      4  O   UNL     1       4.611   6.381  17.221  0.00  0.00    +0.000 OA
ATOM      5  C   UNL     1       3.031   6.407  18.925  0.00  0.00    +0.000 A 
ATOM      6  C   UNL     1       2.424   5.789  19.977  0.00  0.00    +0.000 A 
ATOM      7  N   UNL     1       1.465   6.575  20.544  0.00  0.00    +0.000 NA
ATOM      8  C   UNL     1       1.486   7.684  19.831  0.00  0.00    +0.000 A 
ATOM      9  N   UNL     1       0.715   8.828  20.002  0.00  0.00    +0.000 N 
ATOM     10  C   UNL     1       0.862   9.901  19.121  0.00  0.00    +0.000 A 
ATOM     11  O   UNL     1       0.204  10.937  19.182  0.00  0.00    +0.000 OA
ATOM     12  C   UNL     1       1.895   9.787  18.049  0.00  0.00    +0.000 A 
ATOM     13  C   UNL     1       2.631   8.677  17.939  0.00  0.00    +0.000 A 
ATOM     14  N   UNL     1       2.431   7.628  18.817  0.00  0.00    +0.000 N 
ATOM     15  N   UNL     1       2.788   4.521  20.367  0.00  0.00    +0.000 N 
ATOM     16  C   UNL     1       2.151   3.838  21.477  0.00  0.00    +0.000 C 
ATOM     17  C   UNL     1       3.805   3.856  19.676  0.00  0.00    +0.000 A 
ATOM     18  O   UNL     1       4.157   2.714  19.994  0.00  0.00    +0.000 OA
ENDROOT
BRANCH   9  19
ATOM     19  C   UNL     1      -0.241   8.953  21.088  0.00  0.00    +0.000 C 
BRANCH  19  20
ATOM     20  C   UNL     1       0.408   9.423  22.392  0.00  0.00    +0.000 C 
BRANCH  20  21
ATOM     21  C   UNL     1      -0.455  10.463  23.111  0.00  0.00    +0.000 C 
BRANCH  21  22
ATOM     22  C   UNL     1      -0.758  11.708  22.256  0.00  0.00    +0.000 C 
BRANCH  22  23
ATOM     23  N   UNL     1      -2.200  11.926  22.032  0.00  0.00    +0.000 NA
ATOM     24  C   UNL     1      -2.925  12.316  23.265  0.00  0.00    +0.000 C 
ATOM     25  C   UNL     1      -2.451  13.660  23.844  0.00  0.00    +0.000 C 
ATOM     26  N   UNL     1      -2.691  14.730  22.871  0.00  0.00    +0.000 N 
ATOM     27  C   UNL     1      -2.167  14.482  21.512  0.00  0.00    +0.000 C 
ATOM     28  C   UNL     1      -2.422  13.016  21.037  0.00  0.00    +0.000 C 
BRANCH  26  29
ATOM     29  C   UNL     1      -3.704  15.649  23.094  0.00  0.00    +0.000 A 
ATOM     30  C   UNL     1      -4.076  16.569  22.103  0.00  0.00    +0.000 A 
ATOM     31  C   UNL     1      -5.005  17.586  22.360  0.00  0.00    +0.000 A 
ATOM     32  C   UNL     1      -5.596  17.696  23.616  0.00  0.00    +0.000 A 
ATOM     33  C   UNL     1      -5.276  16.775  24.604  0.00  0.00    +0.000 A 
ATOM     34  C   UNL     1      -4.348  15.765  24.337  0.00  0.00    +0.000 A 
ENDBRANCH  26  29
ENDBRANCH  22  23
ENDBRANCH  21  22
ENDBRANCH  20  21
ENDBRANCH  19  20
ENDBRANCH   9  19
TORSDOF 6
ENDMDL
MODEL 9
REMARK VINA RESULT:      -7.0      1.313      1.317
REMARK  Name = 
REMARK  8 active torsions:
REMARK  status: ('A' for Active; 'I' for Inactive)
REMARK    1  A    between atoms: C_1  and  N_2
REMARK    2  A    between atoms: N_9  and  C_10
REMARK    3  A    between atoms: C_10  and  C_11
REMARK    4  A    between atoms: C_11  and  C_12
REMARK    5  A    between atoms: C_12  and  C_13
REMARK    6  A    between atoms: C_13  and  N_14
REMARK    7  A    between atoms: N_17  and  C_18
REMARK    8  A    between atoms: N_31  and  C_32
REMARK                            x       y       z     vdW  Elec       q    Type
REMARK                         _______ _______ _______ _____ _____    ______ ____
ROOT
ATOM      1  C   UNL     1       6.585  16.857  24.133  0.00  0.00    +0.000 C 
ATOM      2  N   UNL     1       7.027  15.620  23.521  0.00  0.00    +0.000 N 
ATOM      3  C   UNL     1       7.637  15.688  22.268  0.00  0.00    +0.000 A 
ATOM      4  O   UNL     1       7.823  16.730  21.652  0.00  0.00    +0.000 OA
ATOM      5  C   UNL     1       8.027  14.418  21.772  0.00  0.00    +0.000 A 
ATOM      6  C   UNL     1       7.824  13.252  22.447  0.00  0.00    +0.000 A 
ATOM      7  N   UNL     1       8.281  12.174  21.749  0.00  0.00    +0.000 NA
ATOM      8  C   UNL     1       8.767  12.686  20.636  0.00  0.00    +0.000 A 
ATOM      9  N   UNL     1       9.340  12.015  19.561  0.00  0.00    +0.000 N 
ATOM     10  C   UNL     1       9.827  12.739  18.473  0.00  0.00    +0.000 A 
ATOM     11  O   UNL     1      10.372  12.230  17.495  0.00  0.00    +0.000 OA
ATOM     12  C   UNL     1       9.663  14.223  18.490  0.00  0.00    +0.000 A 
ATOM     13  C   UNL     1       9.083  14.823  19.535  0.00  0.00    +0.000 A 
ATOM     14  N   UNL     1       8.640  14.067  20.604  0.00  0.00    +0.000 N 
ATOM     15  N   UNL     1       7.222  13.239  23.684  0.00  0.00    +0.000 N 
ATOM     16  C   UNL     1       7.004  12.012  24.428  0.00  0.00    +0.000 C 
ATOM     17  C   UNL     1       6.803  14.443  24.256  0.00  0.00    +0.000 A 
ATOM     18  O   UNL     1       6.262  14.473  25.368  0.00  0.00    +0.000 OA
ENDROOT
BRANCH   9  19
ATOM     19  C   UNL     1       9.435  10.566  19.526  0.00  0.00    +0.000 C 
BRANCH  19  20
ATOM     20  C   UNL     1       8.899   9.972  18.222  0.00  0.00    +0.000 C 
BRANCH  20  21
ATOM     21  C   UNL     1       8.410   8.534  18.413  0.00  0.00    +0.000 C 
BRANCH  21  22
ATOM     22  C   UNL     1       7.195   8.177  17.534  0.00  0.00    +0.000 C 
BRANCH  22  23
ATOM     23  N   UNL     1       7.190   6.770  17.091  0.00  0.00    +0.000 NA
ATOM     24  C   UNL     1       6.954   5.814  18.200  0.00  0.00    +0.000 C 
ATOM     25  C   UNL     1       5.574   5.982  18.858  0.00  0.00    +0.000 C 
ATOM     26  N   UNL     1       4.522   5.731  17.868  0.00  0.00    +0.000 N 
ATOM     27  C   UNL     1       4.642   6.488  16.605  0.00  0.00    +0.000 C 
ATOM     28  C   UNL     1       6.115   6.537  16.083  0.00  0.00    +0.000 C 
BRANCH  26  29
ATOM     29  C   UNL     1       3.773   4.566  17.938  0.00  0.00    +0.000 A 
ATOM     30  C   UNL     1       4.379   3.309  17.816  0.00  0.00    +0.000 A 
ATOM     31  C   UNL     1       3.620   2.132  17.755  0.00  0.00    +0.000 A 
ATOM     32  C   UNL     1       2.231   2.189  17.831  0.00  0.00    +0.000 A 
ATOM     33  C   UNL     1       1.605   3.418  17.991  0.00  0.00    +0.000 A 
ATOM     34  C   UNL     1       2.372   4.584  18.051  0.00  0.00    +0.000 A 
ENDBRANCH  26  29
ENDBRANCH  22  23
ENDBRANCH  21  22
ENDBRANCH  20  21
ENDBRANCH  19  20
ENDBRANCH   9  19
TORSDOF 6
ENDMDL
