MODEL 1
REMARK VINA RESULT:      -6.4      0.000      0.000
REMARK  Name = 
REMARK  5 active torsions:
REMARK  status: ('A' for Active; 'I' for Inactive)
REMARK    1  A    between atoms: C_1  and  C_2
REMARK    2  A    between atoms: C_2  and  N_3
REMARK    3  A    between atoms: C_2  and  C_11
REMARK    4  A    between atoms: C_4  and  C_6
REMARK    5  A    between atoms: C_11  and  C_12
REMARK                            x       y       z     vdW  Elec       q    Type
REMARK                         _______ _______ _______ _____ _____    ______ ____
ROOT
ATOM      1  N   UNL     1       3.838   4.871  18.204  0.00  0.00    +0.000 N 
ATOM      2  C   UNL     1       5.189   4.680  18.380  0.00  0.00    +0.000 C 
ATOM      3  O   UNL     1       5.638   3.902  19.217  0.00  0.00    +0.000 OA
ATOM      4  H   UNL     1       3.526   5.363  17.373  0.00  0.00    +0.000 HD
ENDROOT
BRANCH   2   5
ATOM      5  C   UNL     1       6.105   5.496  17.472  0.00  0.00    +0.000 C 
ATOM      6  C   UNL     1       7.208   4.638  16.839  0.00  0.00    +0.000 C 
ATOM      7  C   UNL     1       6.761   4.494  15.418  0.00  0.00    +0.000 C 
ATOM      8  C   UNL     1       5.740   5.307  15.131  0.00  0.00    +0.000 C 
ATOM      9  C   UNL     1       5.332   6.133  16.310  0.00  0.00    +0.000 C 
ENDBRANCH   2   5
BRANCH   1  11
ATOM     10  C   UNL     1       2.162   5.074  19.961  0.00  0.00    +0.000 C 
ATOM     11  C   UNL     1       2.833   4.121  18.967  0.00  0.00    +0.000 C 
BRANCH  11  12
ATOM     12  C   UNL     1       1.769   3.432  18.081  0.00  0.00    +0.000 C 
ATOM     13  C   UNL     1       0.820   2.507  18.814  0.00  0.00    +0.000 C 
ATOM     14  F   UNL     1       1.028   4.384  17.448  0.00  0.00    +0.000 F 
ATOM     15  F   UNL     1       2.393   2.724  17.097  0.00  0.00    +0.000 F 
ENDBRANCH  11  12
ENDBRANCH   1  11
TORSDOF 3
ENDMDL
MODEL 2
REMARK VINA RESULT:      -6.3      2.034      5.030
REMARK  Name = 
REMARK  5 active torsions:
REMARK  status: ('A' for Active; 'I' for Inactive)
REMARK    1  A    between atoms: C_1  and  C_2
REMARK    2  A    between atoms: C_2  and  N_3
REMARK    3  A    between atoms: C_2  and  C_11
REMARK    4  A    between atoms: C_4  and  C_6
REMARK    5  A    between atoms: C_11  and  C_12
REMARK                            x       y       z     vdW  Elec       q    Type
REMARK                         _______ _______ _______ _____ _____    ______ ____
ROOT
ATOM      1  N   UNL     1       5.365   3.687  18.051  0.00  0.00    +0.000 N 
ATOM      2  C   UNL     1       4.459   3.867  19.071  0.00  0.00    +0.000 C 
ATOM      3  O   UNL     1       4.209   4.975  19.537  0.00  0.00    +0.000 OA
ATOM      4  H   UNL     1       5.380   2.791  17.574  0.00  0.00    +0.000 HD
ENDROOT
BRANCH   2   5
ATOM      5  C   UNL     1       3.779   2.606  19.594  0.00  0.00    +0.000 C 
ATOM      6  C   UNL     1       2.794   2.907  20.731  0.00  0.00    +0.000 C 
ATOM      7  C   UNL     1       1.456   2.752  20.079  0.00  0.00    +0.000 C 
ATOM      8  C   UNL     1       1.553   2.205  18.864  0.00  0.00    +0.000 C 
ATOM      9  C   UNL     1       2.971   1.899  18.498  0.00  0.00    +0.000 C 
ENDBRANCH   2   5
BRANCH   1  11
ATOM     10  C   UNL     1       7.568   4.631  17.616  0.00  0.00    +0.000 C 
ATOM     11  C   UNL     1       6.061   4.809  17.411  0.00  0.00    +0.000 C 
BRANCH  11  12
ATOM     12  C   UNL     1       5.738   4.962  15.907  0.00  0.00    +0.000 C 
ATOM     13  C   UNL     1       6.896   4.700  14.968  0.00  0.00    +0.000 C 
ATOM     14  F   UNL     1       4.725   4.113  15.577  0.00  0.00    +0.000 F 
ATOM     15  F   UNL     1       5.266   6.220  15.673  0.00  0.00    +0.000 F 
ENDBRANCH  11  12
ENDBRANCH   1  11
TORSDOF 3
ENDMDL
MODEL 3
REMARK VINA RESULT:      -6.3      1.314      1.927
REMARK  Name = 
REMARK  5 active torsions:
REMARK  status: ('A' for Active; 'I' for Inactive)
REMARK    1  A    between atoms: C_1  and  C_2
REMARK    2  A    between atoms: C_2  and  N_3
REMARK    3  A    between atoms: C_2  and  C_11
REMARK    4  A    between atoms: C_4  and  C_6
REMARK    5  A    between atoms: C_11  and  C_12
REMARK                            x       y       z     vdW  Elec       q    Type
REMARK                         _______ _______ _______ _____ _____    ______ ____
ROOT
ATOM      1  N   UNL     1       4.471   5.134  18.126  0.00  0.00    +0.000 N 
ATOM      2  C   UNL     1       5.578   4.459  18.585  0.00  0.00    +0.000 C 
ATOM      3  O   UNL     1       5.516   3.638  19.495  0.00  0.00    +0.000 OA
ATOM      4  H   UNL     1       4.545   5.642  17.250  0.00  0.00    +0.000 HD
ENDROOT
BRANCH   2   5
ATOM      5  C   UNL     1       6.899   4.792  17.896  0.00  0.00    +0.000 C 
ATOM      6  C   UNL     1       6.714   5.774  16.732  0.00  0.00    +0.000 C 
ATOM      7  C   UNL     1       7.251   7.060  17.275  0.00  0.00    +0.000 C 
ATOM      8  C   UNL     1       7.893   6.883  18.434  0.00  0.00    +0.000 C 
ATOM      9  C   UNL     1       7.894   5.450  18.862  0.00  0.00    +0.000 C 
ENDBRANCH   2   5
BRANCH   1  11
ATOM     10  C   UNL     1       2.413   6.229  18.835  0.00  0.00    +0.000 C 
ATOM     11  C   UNL     1       3.124   4.885  18.655  0.00  0.00    +0.000 C 
BRANCH  11  12
ATOM     12  C   UNL     1       2.276   3.942  17.771  0.00  0.00    +0.000 C 
ATOM     13  C   UNL     1       1.751   2.704  18.466  0.00  0.00    +0.000 C 
ATOM     14  F   UNL     1       1.212   4.631  17.272  0.00  0.00    +0.000 F 
ATOM     15  F   UNL     1       3.012   3.554  16.690  0.00  0.00    +0.000 F 
ENDBRANCH  11  12
ENDBRANCH   1  11
TORSDOF 3
ENDMDL
MODEL 4
REMARK VINA RESULT:      -6.2      2.340      5.257
REMARK  Name = 
REMARK  5 active torsions:
REMARK  status: ('A' for Active; 'I' for Inactive)
REMARK    1  A    between atoms: C_1  and  C_2
REMARK    2  A    between atoms: C_2  and  N_3
REMARK    3  A    between atoms: C_2  and  C_11
REMARK    4  A    between atoms: C_4  and  C_6
REMARK    5  A    between atoms: C_11  and  C_12
REMARK                            x       y       z     vdW  Elec       q    Type
REMARK                         _______ _______ _______ _____ _____    ______ ____
ROOT
ATOM      1  N   UNL     1       4.166   4.366  16.913  0.00  0.00    +0.000 N 
ATOM      2  C   UNL     1       3.349   3.447  17.530  0.00  0.00    +0.000 C 
ATOM      3  O   UNL     1       3.710   2.297  17.759  0.00  0.00    +0.000 OA
ATOM      4  H   UNL     1       3.893   5.343  16.935  0.00  0.00    +0.000 HD
ENDROOT
BRANCH   2   5
ATOM      5  C   UNL     1       1.957   3.941  17.916  0.00  0.00    +0.000 C 
ATOM      6  C   UNL     1       1.107   2.836  18.555  0.00  0.00    +0.000 C 
ATOM      7  C   UNL     1       1.091   3.207  20.005  0.00  0.00    +0.000 C 
ATOM      8  C   UNL     1       1.590   4.428  20.214  0.00  0.00    +0.000 C 
ATOM      9  C   UNL     1       2.023   5.083  18.939  0.00  0.00    +0.000 C 
ENDBRANCH   2   5
BRANCH   1  11
ATOM     10  C   UNL     1       5.729   4.384  15.045  0.00  0.00    +0.000 C 
ATOM     11  C   UNL     1       5.548   4.055  16.529  0.00  0.00    +0.000 C 
BRANCH  11  12
ATOM     12  C   UNL     1       6.608   4.795  17.377  0.00  0.00    +0.000 C 
ATOM     13  C   UNL     1       6.731   6.279  17.105  0.00  0.00    +0.000 C 
ATOM     14  F   UNL     1       6.322   4.629  18.698  0.00  0.00    +0.000 F 
ATOM     15  F   UNL     1       7.827   4.215  17.180  0.00  0.00    +0.000 F 
ENDBRANCH  11  12
ENDBRANCH   1  11
TORSDOF 3
ENDMDL
MODEL 5
REMARK VINA RESULT:      -6.2      1.155      1.884
REMARK  Name = 
REMARK  5 active torsions:
REMARK  status: ('A' for Active; 'I' for Inactive)
REMARK    1  A    between atoms: C_1  and  C_2
REMARK    2  A    between atoms: C_2  and  N_3
REMARK    3  A    between atoms: C_2  and  C_11
REMARK    4  A    between atoms: C_4  and  C_6
REMARK    5  A    between atoms: C_11  and  C_12
REMARK                            x       y       z     vdW  Elec       q    Type
REMARK                         _______ _______ _______ _____ _____    ______ ____
ROOT
ATOM      1  N   UNL     1       3.667   4.790  18.564  0.00  0.00    +0.000 N 
ATOM      2  C   UNL     1       4.935   4.257  18.563  0.00  0.00    +0.000 C 
ATOM      3  O   UNL     1       5.330   3.502  19.447  0.00  0.00    +0.000 OA
ATOM      4  H   UNL     1       3.331   5.236  17.717  0.00  0.00    +0.000 HD
ENDROOT
BRANCH   2   5
ATOM      5  C   UNL     1       5.830   4.660  17.395  0.00  0.00    +0.000 C 
ATOM      6  C   UNL     1       5.392   5.986  16.760  0.00  0.00    +0.000 C 
ATOM      7  C   UNL     1       6.429   6.955  17.235  0.00  0.00    +0.000 C 
ATOM      8  C   UNL     1       7.459   6.338  17.820  0.00  0.00    +0.000 C 
ATOM      9  C   UNL     1       7.288   4.851  17.835  0.00  0.00    +0.000 C 
ENDBRANCH   2   5
BRANCH   1  11
ATOM     10  C   UNL     1       2.156   5.756  20.214  0.00  0.00    +0.000 C 
ATOM     11  C   UNL     1       2.675   4.456  19.594  0.00  0.00    +0.000 C 
BRANCH  11  12
ATOM     12  C   UNL     1       1.498   3.604  19.067  0.00  0.00    +0.000 C 
ATOM     13  C   UNL     1       1.804   2.134  18.866  0.00  0.00    +0.000 C 
ATOM     14  F   UNL     1       0.450   3.703  19.931  0.00  0.00    +0.000 F 
ATOM     15  F   UNL     1       1.061   4.121  17.884  0.00  0.00    +0.000 F 
ENDBRANCH  11  12
ENDBRANCH   1  11
TORSDOF 3
ENDMDL
MODEL 6
REMARK VINA RESULT:      -6.2      2.412      4.951
REMARK  Name = 
REMARK  5 active torsions:
REMARK  status: ('A' for Active; 'I' for Inactive)
REMARK    1  A    between atoms: C_1  and  C_2
REMARK    2  A    between atoms: C_2  and  N_3
REMARK    3  A    between atoms: C_2  and  C_11
REMARK    4  A    between atoms: C_4  and  C_6
REMARK    5  A    between atoms: C_11  and  C_12
REMARK                            x       y       z     vdW  Elec       q    Type
REMARK                         _______ _______ _______ _____ _____    ______ ____
ROOT
ATOM      1  N   UNL     1       3.984   4.052  17.655  0.00  0.00    +0.000 N 
ATOM      2  C   UNL     1       4.110   3.425  18.873  0.00  0.00    +0.000 C 
ATOM      3  O   UNL     1       5.166   3.412  19.498  0.00  0.00    +0.000 OA
ATOM      4  H   UNL     1       3.051   4.204  17.286  0.00  0.00    +0.000 HD
ENDROOT
BRANCH   2   5
ATOM      5  C   UNL     1       2.855   2.739  19.406  0.00  0.00    +0.000 C 
ATOM      6  C   UNL     1       2.835   2.678  20.939  0.00  0.00    +0.000 C 
ATOM      7  C   UNL     1       1.820   3.711  21.312  0.00  0.00    +0.000 C 
ATOM      8  C   UNL     1       1.137   4.148  20.249  0.00  0.00    +0.000 C 
ATOM      9  C   UNL     1       1.580   3.481  18.986  0.00  0.00    +0.000 C 
ENDBRANCH   2   5
BRANCH   1  11
ATOM     10  C   UNL     1       5.288   4.281  15.610  0.00  0.00    +0.000 C 
ATOM     11  C   UNL     1       5.088   4.797  17.038  0.00  0.00    +0.000 C 
BRANCH  11  12
ATOM     12  C   UNL     1       4.875   6.328  17.031  0.00  0.00    +0.000 C 
ATOM     13  C   UNL     1       3.640   6.812  17.763  0.00  0.00    +0.000 C 
ATOM     14  F   UNL     1       5.961   6.935  17.586  0.00  0.00    +0.000 F 
ATOM     15  F   UNL     1       4.815   6.770  15.742  0.00  0.00    +0.000 F 
ENDBRANCH  11  12
ENDBRANCH   1  11
TORSDOF 3
ENDMDL
MODEL 7
REMARK VINA RESULT:      -6.2      2.118      5.025
REMARK  Name = 
REMARK  5 active torsions:
REMARK  status: ('A' for Active; 'I' for Inactive)
REMARK    1  A    between atoms: C_1  and  C_2
REMARK    2  A    between atoms: C_2  and  N_3
REMARK    3  A    between atoms: C_2  and  C_11
REMARK    4  A    between atoms: C_4  and  C_6
REMARK    5  A    between atoms: C_11  and  C_12
REMARK                            x       y       z     vdW  Elec       q    Type
REMARK                         _______ _______ _______ _____ _____    ______ ____
ROOT
ATOM      1  N   UNL     1       5.366   3.739  18.275  0.00  0.00    +0.000 N 
ATOM      2  C   UNL     1       4.260   3.928  19.072  0.00  0.00    +0.000 C 
ATOM      3  O   UNL     1       3.845   5.046  19.363  0.00  0.00    +0.000 OA
ATOM      4  H   UNL     1       5.540   2.811  17.906  0.00  0.00    +0.000 HD
ENDROOT
BRANCH   2   5
ATOM      5  C   UNL     1       3.576   2.662  19.578  0.00  0.00    +0.000 C 
ATOM      6  C   UNL     1       2.687   2.932  20.799  0.00  0.00    +0.000 C 
ATOM      7  C   UNL     1       1.301   2.855  20.241  0.00  0.00    +0.000 C 
ATOM      8  C   UNL     1       1.290   2.371  18.995  0.00  0.00    +0.000 C 
ATOM      9  C   UNL     1       2.666   2.041  18.510  0.00  0.00    +0.000 C 
ENDBRANCH   2   5
BRANCH   1  11
ATOM     10  C   UNL     1       7.595   4.531  17.693  0.00  0.00    +0.000 C 
ATOM     11  C   UNL     1       6.100   4.859  17.672  0.00  0.00    +0.000 C 
BRANCH  11  12
ATOM     12  C   UNL     1       5.643   5.197  16.235  0.00  0.00    +0.000 C 
ATOM     13  C   UNL     1       5.033   6.572  16.058  0.00  0.00    +0.000 C 
ATOM     14  F   UNL     1       6.706   5.093  15.390  0.00  0.00    +0.000 F 
ATOM     15  F   UNL     1       4.739   4.264  15.818  0.00  0.00    +0.000 F 
ENDBRANCH  11  12
ENDBRANCH   1  11
TORSDOF 3
ENDMDL
MODEL 8
REMARK VINA RESULT:      -6.1      2.838      5.430
REMARK  Name = 
REMARK  5 active torsions:
REMARK  status: ('A' for Active; 'I' for Inactive)
REMARK    1  A    between atoms: C_1  and  C_2
REMARK    2  A    between atoms: C_2  and  N_3
REMARK    3  A    between atoms: C_2  and  C_11
REMARK    4  A    between atoms: C_4  and  C_6
REMARK    5  A    between atoms: C_11  and  C_12
REMARK                            x       y       z     vdW  Elec       q    Type
REMARK                         _______ _______ _______ _____ _____    ______ ____
ROOT
ATOM      1  N   UNL     1       4.596   4.811  19.010  0.00  0.00    +0.000 N 
ATOM      2  C   UNL     1       3.963   3.595  18.890  0.00  0.00    +0.000 C 
ATOM      3  O   UNL     1       4.054   2.905  17.879  0.00  0.00    +0.000 OA
ATOM      4  H   UNL     1       4.652   5.236  19.929  0.00  0.00    +0.000 HD
ENDROOT
BRANCH   2   5
ATOM      5  C   UNL     1       3.133   3.151  20.091  0.00  0.00    +0.000 C 
ATOM      6  C   UNL     1       2.479   4.335  20.813  0.00  0.00    +0.000 C 
ATOM      7  C   UNL     1       1.040   4.229  20.417  0.00  0.00    +0.000 C 
ATOM      8  C   UNL     1       0.776   3.075  19.798  0.00  0.00    +0.000 C 
ATOM      9  C   UNL     1       1.992   2.212  19.678  0.00  0.00    +0.000 C 
ENDBRANCH   2   5
BRANCH   1  11
ATOM     10  C   UNL     1       4.847   6.638  17.418  0.00  0.00    +0.000 C 
ATOM     11  C   UNL     1       5.469   5.348  17.959  0.00  0.00    +0.000 C 
BRANCH  11  12
ATOM     12  C   UNL     1       6.919   5.607  18.430  0.00  0.00    +0.000 C 
ATOM     13  C   UNL     1       7.552   6.877  17.903  0.00  0.00    +0.000 C 
ATOM     14  F   UNL     1       6.947   5.653  19.792  0.00  0.00    +0.000 F 
ATOM     15  F   UNL     1       7.704   4.550  18.073  0.00  0.00    +0.000 F 
ENDBRANCH  11  12
ENDBRANCH   1  11
TORSDOF 3
ENDMDL
MODEL 9
REMARK VINA RESULT:      -6.1      2.432      5.361
REMARK  Name = 
REMARK  5 active torsions:
REMARK  status: ('A' for Active; 'I' for Inactive)
REMARK    1  A    between atoms: C_1  and  C_2
REMARK    2  A    between atoms: C_2  and  N_3
REMARK    3  A    between atoms: C_2  and  C_11
REMARK    4  A    between atoms: C_4  and  C_6
REMARK    5  A    between atoms: C_11  and  C_12
REMARK                            x       y       z     vdW  Elec       q    Type
REMARK                         _______ _______ _______ _____ _____    ______ ____
ROOT
ATOM      1  N   UNL     1       4.444   4.789  17.447  0.00  0.00    +0.000 N 
ATOM      2  C   UNL     1       3.798   4.345  18.577  0.00  0.00    +0.000 C 
ATOM      3  O   UNL     1       4.377   3.721  19.462  0.00  0.00    +0.000 OA
ATOM      4  H   UNL     1       3.971   5.465  16.856  0.00  0.00    +0.000 HD
ENDROOT
BRANCH   2   5
ATOM      5  C   UNL     1       2.310   4.670  18.670  0.00  0.00    +0.000 C 
ATOM      6  C   UNL     1       1.431   3.503  18.204  0.00  0.00    +0.000 C 
ATOM      7  C   UNL     1       0.877   2.957  19.483  0.00  0.00    +0.000 C 
ATOM      8  C   UNL     1       1.125   3.762  20.519  0.00  0.00    +0.000 C 
ATOM      9  C   UNL     1       1.885   4.985  20.111  0.00  0.00    +0.000 C 
ENDBRANCH   2   5
BRANCH   1  11
ATOM     10  C   UNL     1       6.109   4.080  15.815  0.00  0.00    +0.000 C 
ATOM     11  C   UNL     1       5.885   4.596  17.239  0.00  0.00    +0.000 C 
BRANCH  11  12
ATOM     12  C   UNL     1       6.723   5.871  17.487  0.00  0.00    +0.000 C 
ATOM     13  C   UNL     1       7.625   5.824  18.702  0.00  0.00    +0.000 C 
ATOM     14  F   UNL     1       7.497   6.119  16.394  0.00  0.00    +0.000 F 
ATOM     15  F   UNL     1       5.888   6.943  17.608  0.00  0.00    +0.000 F 
ENDBRANCH  11  12
ENDBRANCH   1  11
TORSDOF 3
ENDMDL
