MODEL 1
REMARK VINA RESULT:      -9.0      0.000      0.000
REMARK  Name = 
REMARK  6 active torsions:
REMARK  status: ('A' for Active; 'I' for Inactive)
REMARK    1  A    between atoms: C_4  and  N_5
REMARK    2  A    between atoms: N_5  and  C_6
REMARK    3  A    between atoms: N_5  and  C_19
REMARK    4  A    between atoms: C_6  and  C_7
REMARK    5  A    between atoms: N_9  and  C_10
REMARK    6  A    between atoms: C_10  and  C_11
REMARK                            x       y       z     vdW  Elec       q    Type
REMARK                         _______ _______ _______ _____ _____    ______ ____
ROOT
ATOM      1  N   UNL     1       6.277   5.342  17.735  0.00  0.00    +0.000 N 
ENDROOT
BRANCH   1   5
ATOM      2  O   UNL     1       2.240   7.254  19.382  0.00  0.00    +0.000 OA
ATOM      3  C   UNL     1       2.942   6.267  19.219  0.00  0.00    +0.000 C 
ATOM      4  C   UNL     1       4.268   6.371  18.584  0.00  0.00    +0.000 C 
ATOM      5  C   UNL     1       5.156   5.363  18.583  0.00  0.00    +0.000 C 
ATOM      6  C   UNL     1       4.819   4.125  19.380  0.00  0.00    +0.000 C 
ATOM      7  O   UNL     1       5.675   3.338  19.758  0.00  0.00    +0.000 OA
ATOM      8  C   UNL     1       3.378   3.863  19.619  0.00  0.00    +0.000 A 
ATOM      9  C   UNL     1       2.923   2.565  19.865  0.00  0.00    +0.000 A 
ATOM     10  C   UNL     1       1.547   2.310  19.968  0.00  0.00    +0.000 A 
ATOM     11  C   UNL     1       0.630   3.358  19.858  0.00  0.00    +0.000 A 
ATOM     12  C   UNL     1       1.085   4.662  19.657  0.00  0.00    +0.000 A 
ATOM     13  C   UNL     1       2.459   4.901  19.528  0.00  0.00    +0.000 A 
ENDBRANCH   1   5
BRANCH   1  14
ATOM     14  C   UNL     1       6.167   4.843  16.406  0.00  0.00    +0.000 A 
ATOM     15  C   UNL     1       7.136   5.071  15.419  0.00  0.00    +0.000 A 
ATOM     16  C   UNL     1       7.006   4.606  14.108  0.00  0.00    +0.000 A 
ATOM     17  C   UNL     1       5.883   3.869  13.749  0.00  0.00    +0.000 A 
ATOM     18 BR   UNL     1       5.715   3.215  11.988  0.00  0.00    +0.000 Br
ATOM     19  C   UNL     1       4.894   3.620  14.686  0.00  0.00    +0.000 A 
ATOM     20  C   UNL     1       5.036   4.104  15.997  0.00  0.00    +0.000 A 
ENDBRANCH   1  14
BRANCH   1  21
ATOM     21  C   UNL     1       7.643   5.715  18.211  0.00  0.00    +0.000 C 
BRANCH  21  22
ATOM     22  C   UNL     1       8.000   7.181  18.181  0.00  0.00    +0.000 A 
ATOM     23  C   UNL     1       8.807   7.926  19.015  0.00  0.00    +0.000 A 
ATOM     24  N   UNL     1       8.494   9.224  18.701  0.00  0.00    +0.000 N 
ATOM     25  N   UNL     1       7.710   9.279  17.609  0.00  0.00    +0.000 NA
ATOM     26  N   UNL     1       7.410   8.033  17.273  0.00  0.00    +0.000 NA
BRANCH  24  27
ATOM     27  C   UNL     1       8.939  10.446  19.356  0.00  0.00    +0.000 C 
BRANCH  27  28
ATOM     28  C   UNL     1       9.607  11.473  18.459  0.00  0.00    +0.000 A 
ATOM     29  C   UNL     1       8.963  12.602  17.929  0.00  0.00    +0.000 A 
ATOM     30  C   UNL     1       9.699  13.623  17.322  0.00  0.00    +0.000 A 
ATOM     31  C   UNL     1      11.081  13.513  17.195  0.00  0.00    +0.000 A 
ATOM     32  C   UNL     1      11.723  12.354  17.617  0.00  0.00    +0.000 A 
ATOM     33  C   UNL     1      10.990  11.337  18.235  0.00  0.00    +0.000 A 
ENDBRANCH  27  28
ENDBRANCH  24  27
ENDBRANCH  21  22
ENDBRANCH   1  21
TORSDOF 6
ENDMDL
MODEL 2
REMARK VINA RESULT:      -9.0      0.739      1.228
REMARK  Name = 
REMARK  6 active torsions:
REMARK  status: ('A' for Active; 'I' for Inactive)
REMARK    1  A    between atoms: C_4  and  N_5
REMARK    2  A    between atoms: N_5  and  C_6
REMARK    3  A    between atoms: N_5  and  C_19
REMARK    4  A    between atoms: C_6  and  C_7
REMARK    5  A    between atoms: N_9  and  C_10
REMARK    6  A    between atoms: C_10  and  C_11
REMARK                            x       y       z     vdW  Elec       q    Type
REMARK                         _______ _______ _______ _____ _____    ______ ____
ROOT
ATOM      1  N   UNL     1       6.318   5.633  17.440  0.00  0.00    +0.000 N 
ENDROOT
BRANCH   1   5
ATOM      2  O   UNL     1       2.050   7.466  18.481  0.00  0.00    +0.000 OA
ATOM      3  C   UNL     1       2.862   6.562  18.609  0.00  0.00    +0.000 C 
ATOM      4  C   UNL     1       4.184   6.627  17.963  0.00  0.00    +0.000 C 
ATOM      5  C   UNL     1       5.179   5.772  18.251  0.00  0.00    +0.000 C 
ATOM      6  C   UNL     1       4.962   4.791  19.379  0.00  0.00    +0.000 C 
ATOM      7  O   UNL     1       5.889   4.252  19.965  0.00  0.00    +0.000 OA
ATOM      8  C   UNL     1       3.552   4.447  19.694  0.00  0.00    +0.000 A 
ATOM      9  C   UNL     1       3.239   3.234  20.314  0.00  0.00    +0.000 A 
ATOM     10  C   UNL     1       1.898   2.864  20.496  0.00  0.00    +0.000 A 
ATOM     11  C   UNL     1       0.873   3.722  20.090  0.00  0.00    +0.000 A 
ATOM     12  C   UNL     1       1.185   4.953  19.512  0.00  0.00    +0.000 A 
ATOM     13  C   UNL     1       2.526   5.300  19.309  0.00  0.00    +0.000 A 
ENDBRANCH   1   5
BRANCH   1  14
ATOM     14  C   UNL     1       6.213   5.055  16.142  0.00  0.00    +0.000 A 
ATOM     15  C   UNL     1       5.178   4.185  15.771  0.00  0.00    +0.000 A 
ATOM     16  C   UNL     1       5.100   3.597  14.507  0.00  0.00    +0.000 A 
ATOM     17  C   UNL     1       6.069   3.886  13.553  0.00  0.00    +0.000 A 
ATOM     18 BR   UNL     1       5.953   3.117  11.835  0.00  0.00    +0.000 Br
ATOM     19  C   UNL     1       7.115   4.737  13.871  0.00  0.00    +0.000 A 
ATOM     20  C   UNL     1       7.184   5.311  15.150  0.00  0.00    +0.000 A 
ENDBRANCH   1  14
BRANCH   1  21
ATOM     21  C   UNL     1       7.691   5.959  17.929  0.00  0.00    +0.000 C 
BRANCH  21  22
ATOM     22  C   UNL     1       8.044   7.422  18.050  0.00  0.00    +0.000 A 
ATOM     23  C   UNL     1       8.829   8.083  18.970  0.00  0.00    +0.000 A 
ATOM     24  N   UNL     1       8.520   9.404  18.776  0.00  0.00    +0.000 N 
ATOM     25  N   UNL     1       7.760   9.564  17.677  0.00  0.00    +0.000 NA
ATOM     26  N   UNL     1       7.472   8.356  17.216  0.00  0.00    +0.000 NA
BRANCH  24  27
ATOM     27  C   UNL     1       8.946  10.558  19.556  0.00  0.00    +0.000 C 
BRANCH  27  28
ATOM     28  C   UNL     1      10.191  11.271  19.060  0.00  0.00    +0.000 A 
ATOM     29  C   UNL     1      10.450  11.571  17.713  0.00  0.00    +0.000 A 
ATOM     30  C   UNL     1      11.489  12.438  17.363  0.00  0.00    +0.000 A 
ATOM     31  C   UNL     1      12.310  12.983  18.346  0.00  0.00    +0.000 A 
ATOM     32  C   UNL     1      12.136  12.612  19.675  0.00  0.00    +0.000 A 
ATOM     33  C   UNL     1      11.092  11.755  20.028  0.00  0.00    +0.000 A 
ENDBRANCH  27  28
ENDBRANCH  24  27
ENDBRANCH  21  22
ENDBRANCH   1  21
TORSDOF 6
ENDMDL
MODEL 3
REMARK VINA RESULT:      -8.6      0.950      1.231
REMARK  Name = 
REMARK  6 active torsions:
REMARK  status: ('A' for Active; 'I' for Inactive)
REMARK    1  A    between atoms: C_4  and  N_5
REMARK    2  A    between atoms: N_5  and  C_6
REMARK    3  A    between atoms: N_5  and  C_19
REMARK    4  A    between atoms: C_6  and  C_7
REMARK    5  A    between atoms: N_9  and  C_10
REMARK    6  A    between atoms: C_10  and  C_11
REMARK                            x       y       z     vdW  Elec       q    Type
REMARK                         _______ _______ _______ _____ _____    ______ ____
ROOT
ATOM      1  N   UNL     1       6.310   5.498  17.179  0.00  0.00    +0.000 N 
ENDROOT
BRANCH   1   5
ATOM      2  O   UNL     1       2.114   7.361  18.439  0.00  0.00    +0.000 OA
ATOM      3  C   UNL     1       2.911   6.436  18.499  0.00  0.00    +0.000 C 
ATOM      4  C   UNL     1       4.214   6.507  17.815  0.00  0.00    +0.000 C 
ATOM      5  C   UNL     1       5.199   5.620  18.032  0.00  0.00    +0.000 C 
ATOM      6  C   UNL     1       4.996   4.590  19.118  0.00  0.00    +0.000 C 
ATOM      7  O   UNL     1       5.929   4.006  19.649  0.00  0.00    +0.000 OA
ATOM      8  C   UNL     1       3.590   4.259  19.460  0.00  0.00    +0.000 A 
ATOM      9  C   UNL     1       3.270   3.024  20.031  0.00  0.00    +0.000 A 
ATOM     10  C   UNL     1       1.928   2.671  20.237  0.00  0.00    +0.000 A 
ATOM     11  C   UNL     1       0.909   3.567  19.904  0.00  0.00    +0.000 A 
ATOM     12  C   UNL     1       1.229   4.819  19.376  0.00  0.00    +0.000 A 
ATOM     13  C   UNL     1       2.570   5.149  19.148  0.00  0.00    +0.000 A 
ENDBRANCH   1   5
BRANCH   1  14
ATOM     14  C   UNL     1       6.172   4.899  15.895  0.00  0.00    +0.000 A 
ATOM     15  C   UNL     1       7.099   5.081  14.859  0.00  0.00    +0.000 A 
ATOM     16  C   UNL     1       6.940   4.516  13.592  0.00  0.00    +0.000 A 
ATOM     17  C   UNL     1       5.831   3.721  13.329  0.00  0.00    +0.000 A 
ATOM     18 BR   UNL     1       5.624   2.932  11.628  0.00  0.00    +0.000 Br
ATOM     19  C   UNL     1       4.883   3.513  14.317  0.00  0.00    +0.000 A 
ATOM     20  C   UNL     1       5.053   4.097  15.583  0.00  0.00    +0.000 A 
ENDBRANCH   1  14
BRANCH   1  21
ATOM     21  C   UNL     1       7.692   5.868  17.612  0.00  0.00    +0.000 C 
BRANCH  21  22
ATOM     22  C   UNL     1       7.914   7.297  18.042  0.00  0.00    +0.000 A 
ATOM     23  C   UNL     1       7.564   8.483  17.432  0.00  0.00    +0.000 A 
ATOM     24  N   UNL     1       8.298   9.426  18.102  0.00  0.00    +0.000 N 
ATOM     25  N   UNL     1       8.895   8.892  19.184  0.00  0.00    +0.000 NA
ATOM     26  N   UNL     1       8.656   7.589  19.164  0.00  0.00    +0.000 NA
BRANCH  24  27
ATOM     27  C   UNL     1       8.438  10.845  17.805  0.00  0.00    +0.000 C 
BRANCH  27  28
ATOM     28  C   UNL     1       9.582  11.559  18.503  0.00  0.00    +0.000 A 
ATOM     29  C   UNL     1       9.509  12.100  19.796  0.00  0.00    +0.000 A 
ATOM     30  C   UNL     1      10.665  12.519  20.460  0.00  0.00    +0.000 A 
ATOM     31  C   UNL     1      11.903  12.446  19.828  0.00  0.00    +0.000 A 
ATOM     32  C   UNL     1      11.980  12.015  18.508  0.00  0.00    +0.000 A 
ATOM     33  C   UNL     1      10.827  11.585  17.847  0.00  0.00    +0.000 A 
ENDBRANCH  27  28
ENDBRANCH  24  27
ENDBRANCH  21  22
ENDBRANCH   1  21
TORSDOF 6
ENDMDL
MODEL 4
REMARK VINA RESULT:      -8.5      6.867     10.457
REMARK  Name = 
REMARK  6 active torsions:
REMARK  status: ('A' for Active; 'I' for Inactive)
REMARK    1  A    between atoms: C_4  and  N_5
REMARK    2  A    between atoms: N_5  and  C_6
REMARK    3  A    between atoms: N_5  and  C_19
REMARK    4  A    between atoms: C_6  and  C_7
REMARK    5  A    between atoms: N_9  and  C_10
REMARK    6  A    between atoms: C_10  and  C_11
REMARK                            x       y       z     vdW  Elec       q    Type
REMARK                         _______ _______ _______ _____ _____    ______ ____
ROOT
ATOM      1  N   UNL     1       0.164  11.800  19.851  0.00  0.00    +0.000 N 
ENDROOT
BRANCH   1   5
ATOM      2  O   UNL     1      -2.990  11.078  16.360  0.00  0.00    +0.000 OA
ATOM      3  C   UNL     1      -2.761  11.421  17.510  0.00  0.00    +0.000 C 
ATOM      4  C   UNL     1      -1.384  11.453  18.035  0.00  0.00    +0.000 C 
ATOM      5  C   UNL     1      -1.065  12.025  19.207  0.00  0.00    +0.000 C 
ATOM      6  C   UNL     1      -2.148  12.776  19.944  0.00  0.00    +0.000 C 
ATOM      7  O   UNL     1      -1.898  13.628  20.785  0.00  0.00    +0.000 OA
ATOM      8  C   UNL     1      -3.547  12.371  19.656  0.00  0.00    +0.000 A 
ATOM      9  C   UNL     1      -4.559  12.596  20.593  0.00  0.00    +0.000 A 
ATOM     10  C   UNL     1      -5.852  12.102  20.363  0.00  0.00    +0.000 A 
ATOM     11  C   UNL     1      -6.139  11.412  19.182  0.00  0.00    +0.000 A 
ATOM     12  C   UNL     1      -5.140  11.226  18.226  0.00  0.00    +0.000 A 
ATOM     13  C   UNL     1      -3.847  11.699  18.477  0.00  0.00    +0.000 A 
ENDBRANCH   1   5
BRANCH   1  14
ATOM     14  C   UNL     1       1.267  12.672  19.627  0.00  0.00    +0.000 A 
ATOM     15  C   UNL     1       2.020  13.239  20.665  0.00  0.00    +0.000 A 
ATOM     16  C   UNL     1       3.081  14.120  20.438  0.00  0.00    +0.000 A 
ATOM     17  C   UNL     1       3.432  14.450  19.134  0.00  0.00    +0.000 A 
ATOM     18 BR   UNL     1       4.880  15.617  18.820  0.00  0.00    +0.000 Br
ATOM     19  C   UNL     1       2.716  13.920  18.073  0.00  0.00    +0.000 A 
ATOM     20  C   UNL     1       1.647  13.044  18.319  0.00  0.00    +0.000 A 
ENDBRANCH   1  14
BRANCH   1  21
ATOM     21  C   UNL     1       0.415  10.588  20.689  0.00  0.00    +0.000 C 
BRANCH  21  22
ATOM     22  C   UNL     1       1.020   9.392  19.996  0.00  0.00    +0.000 A 
ATOM     23  C   UNL     1       1.343   8.142  20.479  0.00  0.00    +0.000 A 
ATOM     24  N   UNL     1       2.142   7.608  19.502  0.00  0.00    +0.000 N 
ATOM     25  N   UNL     1       2.141   8.383  18.403  0.00  0.00    +0.000 NA
ATOM     26  N   UNL     1       1.446   9.475  18.689  0.00  0.00    +0.000 NA
BRANCH  24  27
ATOM     27  C   UNL     1       2.887   6.357  19.525  0.00  0.00    +0.000 C 
BRANCH  27  28
ATOM     28  C   UNL     1       2.057   5.088  19.450  0.00  0.00    +0.000 A 
ATOM     29  C   UNL     1       1.739   4.418  18.258  0.00  0.00    +0.000 A 
ATOM     30  C   UNL     1       1.186   3.135  18.287  0.00  0.00    +0.000 A 
ATOM     31  C   UNL     1       0.901   2.520  19.503  0.00  0.00    +0.000 A 
ATOM     32  C   UNL     1       1.109   3.212  20.691  0.00  0.00    +0.000 A 
ATOM     33  C   UNL     1       1.672   4.490  20.665  0.00  0.00    +0.000 A 
ENDBRANCH  27  28
ENDBRANCH  24  27
ENDBRANCH  21  22
ENDBRANCH   1  21
TORSDOF 6
ENDMDL
MODEL 5
REMARK VINA RESULT:      -8.4      1.262      2.413
REMARK  Name = 
REMARK  6 active torsions:
REMARK  status: ('A' for Active; 'I' for Inactive)
REMARK    1  A    between atoms: C_4  and  N_5
REMARK    2  A    between atoms: N_5  and  C_6
REMARK    3  A    between atoms: N_5  and  C_19
REMARK    4  A    between atoms: C_6  and  C_7
REMARK    5  A    between atoms: N_9  and  C_10
REMARK    6  A    between atoms: C_10  and  C_11
REMARK                            x       y       z     vdW  Elec       q    Type
REMARK                         _______ _______ _______ _____ _____    ______ ____
ROOT
ATOM      1  N   UNL     1       5.967   5.178  17.252  0.00  0.00    +0.000 N 
ENDROOT
BRANCH   1   5
ATOM      2  O   UNL     1       2.644   3.531  20.236  0.00  0.00    +0.000 OA
ATOM      3  C   UNL     1       3.093   4.456  19.575  0.00  0.00    +0.000 C 
ATOM      4  C   UNL     1       4.290   4.279  18.733  0.00  0.00    +0.000 C 
ATOM      5  C   UNL     1       4.686   5.192  17.830  0.00  0.00    +0.000 C 
ATOM      6  C   UNL     1       3.787   6.380  17.587  0.00  0.00    +0.000 C 
ATOM      7  O   UNL     1       3.843   7.043  16.561  0.00  0.00    +0.000 OA
ATOM      8  C   UNL     1       2.877   6.760  18.697  0.00  0.00    +0.000 A 
ATOM      9  C   UNL     1       2.402   8.069  18.809  0.00  0.00    +0.000 A 
ATOM     10  C   UNL     1       1.642   8.447  19.927  0.00  0.00    +0.000 A 
ATOM     11  C   UNL     1       1.331   7.508  20.913  0.00  0.00    +0.000 A 
ATOM     12  C   UNL     1       1.767   6.189  20.779  0.00  0.00    +0.000 A 
ATOM     13  C   UNL     1       2.548   5.829  19.674  0.00  0.00    +0.000 A 
ENDBRANCH   1   5
BRANCH   1  14
ATOM     14  C   UNL     1       6.140   4.791  15.892  0.00  0.00    +0.000 A 
ATOM     15  C   UNL     1       5.171   4.084  15.167  0.00  0.00    +0.000 A 
ATOM     16  C   UNL     1       5.360   3.679  13.843  0.00  0.00    +0.000 A 
ATOM     17  C   UNL     1       6.547   3.996  13.191  0.00  0.00    +0.000 A 
ATOM     18 BR   UNL     1       6.798   3.477  11.396  0.00  0.00    +0.000 Br
ATOM     19  C   UNL     1       7.538   4.690  13.865  0.00  0.00    +0.000 A 
ATOM     20  C   UNL     1       7.335   5.080  15.199  0.00  0.00    +0.000 A 
ENDBRANCH   1  14
BRANCH   1  21
ATOM     21  C   UNL     1       7.204   5.441  18.046  0.00  0.00    +0.000 C 
BRANCH  21  22
ATOM     22  C   UNL     1       7.728   6.856  18.047  0.00  0.00    +0.000 A 
ATOM     23  C   UNL     1       8.574   7.500  18.925  0.00  0.00    +0.000 A 
ATOM     24  N   UNL     1       8.428   8.826  18.609  0.00  0.00    +0.000 N 
ATOM     25  N   UNL     1       7.708   8.975  17.482  0.00  0.00    +0.000 NA
ATOM     26  N   UNL     1       7.284   7.773  17.121  0.00  0.00    +0.000 NA
BRANCH  24  27
ATOM     27  C   UNL     1       8.977   9.987  19.296  0.00  0.00    +0.000 C 
BRANCH  27  28
ATOM     28  C   UNL     1       9.517  11.091  18.404  0.00  0.00    +0.000 A 
ATOM     29  C   UNL     1       8.768  12.196  17.969  0.00  0.00    +0.000 A 
ATOM     30  C   UNL     1       9.395  13.287  17.361  0.00  0.00    +0.000 A 
ATOM     31  C   UNL     1      10.770  13.272  17.137  0.00  0.00    +0.000 A 
ATOM     32  C   UNL     1      11.510  12.141  17.463  0.00  0.00    +0.000 A 
ATOM     33  C   UNL     1      10.887  11.055  18.082  0.00  0.00    +0.000 A 
ENDBRANCH  27  28
ENDBRANCH  24  27
ENDBRANCH  21  22
ENDBRANCH   1  21
TORSDOF 6
ENDMDL
MODEL 6
REMARK VINA RESULT:      -8.3      7.200     10.644
REMARK  Name = 
REMARK  6 active torsions:
REMARK  status: ('A' for Active; 'I' for Inactive)
REMARK    1  A    between atoms: C_4  and  N_5
REMARK    2  A    between atoms: N_5  and  C_6
REMARK    3  A    between atoms: N_5  and  C_19
REMARK    4  A    between atoms: C_6  and  C_7
REMARK    5  A    between atoms: N_9  and  C_10
REMARK    6  A    between atoms: C_10  and  C_11
REMARK                            x       y       z     vdW  Elec       q    Type
REMARK                         _______ _______ _______ _____ _____    ______ ____
ROOT
ATOM      1  N   UNL     1      -0.334  11.876  19.960  0.00  0.00    +0.000 N 
ENDROOT
BRANCH   1   5
ATOM      2  O   UNL     1      -3.483  11.205  16.453  0.00  0.00    +0.000 OA
ATOM      3  C   UNL     1      -3.257  11.514  17.613  0.00  0.00    +0.000 C 
ATOM      4  C   UNL     1      -1.879  11.557  18.136  0.00  0.00    +0.000 C 
ATOM      5  C   UNL     1      -1.569  12.097  19.326  0.00  0.00    +0.000 C 
ATOM      6  C   UNL     1      -2.666  12.801  20.090  0.00  0.00    +0.000 C 
ATOM      7  O   UNL     1      -2.431  13.629  20.958  0.00  0.00    +0.000 OA
ATOM      8  C   UNL     1      -4.057  12.377  19.791  0.00  0.00    +0.000 A 
ATOM      9  C   UNL     1      -5.071  12.549  20.737  0.00  0.00    +0.000 A 
ATOM     10  C   UNL     1      -6.353  12.036  20.494  0.00  0.00    +0.000 A 
ATOM     11  C   UNL     1      -6.629  11.379  19.292  0.00  0.00    +0.000 A 
ATOM     12  C   UNL     1      -5.630  11.246  18.327  0.00  0.00    +0.000 A 
ATOM     13  C   UNL     1      -4.345  11.738  18.592  0.00  0.00    +0.000 A 
ENDBRANCH   1   5
BRANCH   1  14
ATOM     14  C   UNL     1       0.735  12.804  19.800  0.00  0.00    +0.000 A 
ATOM     15  C   UNL     1       1.753  12.972  20.749  0.00  0.00    +0.000 A 
ATOM     16  C   UNL     1       2.781  13.906  20.601  0.00  0.00    +0.000 A 
ATOM     17  C   UNL     1       2.825  14.703  19.463  0.00  0.00    +0.000 A 
ATOM     18 BR   UNL     1       4.225  15.948  19.243  0.00  0.00    +0.000 Br
ATOM     19  C   UNL     1       1.840  14.579  18.496  0.00  0.00    +0.000 A 
ATOM     20  C   UNL     1       0.809  13.642  18.666  0.00  0.00    +0.000 A 
ENDBRANCH   1  14
BRANCH   1  21
ATOM     21  C   UNL     1      -0.038  10.622  20.715  0.00  0.00    +0.000 C 
BRANCH  21  22
ATOM     22  C   UNL     1       0.673   9.523  19.963  0.00  0.00    +0.000 A 
ATOM     23  C   UNL     1       1.256   8.358  20.415  0.00  0.00    +0.000 A 
ATOM     24  N   UNL     1       2.013   7.936  19.352  0.00  0.00    +0.000 N 
ATOM     25  N   UNL     1       1.752   8.670  18.255  0.00  0.00    +0.000 NA
ATOM     26  N   UNL     1       0.923   9.639  18.614  0.00  0.00    +0.000 NA
BRANCH  24  27
ATOM     27  C   UNL     1       2.955   6.827  19.295  0.00  0.00    +0.000 C 
BRANCH  27  28
ATOM     28  C   UNL     1       2.357   5.440  19.445  0.00  0.00    +0.000 A 
ATOM     29  C   UNL     1       1.969   4.872  20.669  0.00  0.00    +0.000 A 
ATOM     30  C   UNL     1       1.206   3.702  20.702  0.00  0.00    +0.000 A 
ATOM     31  C   UNL     1       0.856   3.058  19.518  0.00  0.00    +0.000 A 
ATOM     32  C   UNL     1       1.323   3.547  18.303  0.00  0.00    +0.000 A 
ATOM     33  C   UNL     1       2.076   4.722  18.267  0.00  0.00    +0.000 A 
ENDBRANCH  27  28
ENDBRANCH  24  27
ENDBRANCH  21  22
ENDBRANCH   1  21
TORSDOF 6
ENDMDL
MODEL 7
REMARK VINA RESULT:      -8.2      6.865     11.010
REMARK  Name = 
REMARK  6 active torsions:
REMARK  status: ('A' for Active; 'I' for Inactive)
REMARK    1  A    between atoms: C_4  and  N_5
REMARK    2  A    between atoms: N_5  and  C_6
REMARK    3  A    between atoms: N_5  and  C_19
REMARK    4  A    between atoms: C_6  and  C_7
REMARK    5  A    between atoms: N_9  and  C_10
REMARK    6  A    between atoms: C_10  and  C_11
REMARK                            x       y       z     vdW  Elec       q    Type
REMARK                         _______ _______ _______ _____ _____    ______ ____
ROOT
ATOM      1  N   UNL     1       0.147  11.520  20.098  0.00  0.00    +0.000 N 
ENDROOT
BRANCH   1   5
ATOM      2  O   UNL     1       3.427  14.116  17.826  0.00  0.00    +0.000 OA
ATOM      3  C   UNL     1       2.519  14.056  18.641  0.00  0.00    +0.000 C 
ATOM      4  C   UNL     1       1.851  12.777  18.945  0.00  0.00    +0.000 C 
ATOM      5  C   UNL     1       1.009  12.624  19.980  0.00  0.00    +0.000 C 
ATOM      6  C   UNL     1       0.850  13.780  20.938  0.00  0.00    +0.000 C 
ATOM      7  O   UNL     1       0.435  13.632  22.079  0.00  0.00    +0.000 OA
ATOM      8  C   UNL     1       1.151  15.131  20.401  0.00  0.00    +0.000 A 
ATOM      9  C   UNL     1       0.576  16.268  20.976  0.00  0.00    +0.000 A 
ATOM     10  C   UNL     1       0.767  17.527  20.387  0.00  0.00    +0.000 A 
ATOM     11  C   UNL     1       1.561  17.652  19.243  0.00  0.00    +0.000 A 
ATOM     12  C   UNL     1       2.173  16.524  18.695  0.00  0.00    +0.000 A 
ATOM     13  C   UNL     1       1.952  15.268  19.274  0.00  0.00    +0.000 A 
ENDBRANCH   1   5
BRANCH   1  14
ATOM     14  C   UNL     1      -1.149  11.550  19.506  0.00  0.00    +0.000 A 
ATOM     15  C   UNL     1      -2.227  12.255  20.058  0.00  0.00    +0.000 A 
ATOM     16  C   UNL     1      -3.503  12.254  19.489  0.00  0.00    +0.000 A 
ATOM     17  C   UNL     1      -3.732  11.543  18.316  0.00  0.00    +0.000 A 
ATOM     18 BR   UNL     1      -5.445  11.559  17.529  0.00  0.00    +0.000 Br
ATOM     19  C   UNL     1      -2.700  10.826  17.734  0.00  0.00    +0.000 A 
ATOM     20  C   UNL     1      -1.426  10.829  18.324  0.00  0.00    +0.000 A 
ENDBRANCH   1  14
BRANCH   1  21
ATOM     21  C   UNL     1       0.483  10.331  20.937  0.00  0.00    +0.000 C 
BRANCH  21  22
ATOM     22  C   UNL     1       1.084   9.142  20.228  0.00  0.00    +0.000 A 
ATOM     23  C   UNL     1       1.449   7.901  20.706  0.00  0.00    +0.000 A 
ATOM     24  N   UNL     1       2.220   7.376  19.701  0.00  0.00    +0.000 N 
ATOM     25  N   UNL     1       2.161   8.145  18.598  0.00  0.00    +0.000 NA
ATOM     26  N   UNL     1       1.457   9.224  18.905  0.00  0.00    +0.000 NA
BRANCH  24  27
ATOM     27  C   UNL     1       2.990   6.140  19.702  0.00  0.00    +0.000 C 
BRANCH  27  28
ATOM     28  C   UNL     1       2.194   4.863  19.507  0.00  0.00    +0.000 A 
ATOM     29  C   UNL     1       1.994   4.234  18.268  0.00  0.00    +0.000 A 
ATOM     30  C   UNL     1       1.465   2.942  18.200  0.00  0.00    +0.000 A 
ATOM     31  C   UNL     1       1.087   2.277  19.363  0.00  0.00    +0.000 A 
ATOM     32  C   UNL     1       1.177   2.925  20.590  0.00  0.00    +0.000 A 
ATOM     33  C   UNL     1       1.716   4.212  20.660  0.00  0.00    +0.000 A 
ENDBRANCH  27  28
ENDBRANCH  24  27
ENDBRANCH  21  22
ENDBRANCH   1  21
TORSDOF 6
ENDMDL
MODEL 8
REMARK VINA RESULT:      -8.2      6.906     10.160
REMARK  Name = 
REMARK  6 active torsions:
REMARK  status: ('A' for Active; 'I' for Inactive)
REMARK    1  A    between atoms: C_4  and  N_5
REMARK    2  A    between atoms: N_5  and  C_6
REMARK    3  A    between atoms: N_5  and  C_19
REMARK    4  A    between atoms: C_6  and  C_7
REMARK    5  A    between atoms: N_9  and  C_10
REMARK    6  A    between atoms: C_10  and  C_11
REMARK                            x       y       z     vdW  Elec       q    Type
REMARK                         _______ _______ _______ _____ _____    ______ ____
ROOT
ATOM      1  N   UNL     1      -0.136  11.496  19.862  0.00  0.00    +0.000 N 
ENDROOT
BRANCH   1   5
ATOM      2  O   UNL     1      -2.760  10.873  15.939  0.00  0.00    +0.000 OA
ATOM      3  C   UNL     1      -2.695  11.192  17.117  0.00  0.00    +0.000 C 
ATOM      4  C   UNL     1      -1.408  11.199  17.835  0.00  0.00    +0.000 C 
ATOM      5  C   UNL     1      -1.257  11.747  19.052  0.00  0.00    +0.000 C 
ATOM      6  C   UNL     1      -2.429  12.496  19.640  0.00  0.00    +0.000 C 
ATOM      7  O   UNL     1      -2.296  13.330  20.524  0.00  0.00    +0.000 OA
ATOM      8  C   UNL     1      -3.775  12.112  19.145  0.00  0.00    +0.000 A 
ATOM      9  C   UNL     1      -4.910  12.332  19.931  0.00  0.00    +0.000 A 
ATOM     10  C   UNL     1      -6.160  11.856  19.509  0.00  0.00    +0.000 A 
ATOM     11  C   UNL     1      -6.280  11.190  18.285  0.00  0.00    +0.000 A 
ATOM     12  C   UNL     1      -5.155  11.011  17.479  0.00  0.00    +0.000 A 
ATOM     13  C   UNL     1      -3.907  11.465  17.923  0.00  0.00    +0.000 A 
ENDBRANCH   1   5
BRANCH   1  14
ATOM     14  C   UNL     1       0.982  12.379  19.840  0.00  0.00    +0.000 A 
ATOM     15  C   UNL     1       1.422  13.086  20.968  0.00  0.00    +0.000 A 
ATOM     16  C   UNL     1       2.499  13.975  20.931  0.00  0.00    +0.000 A 
ATOM     17  C   UNL     1       3.189  14.169  19.740  0.00  0.00    +0.000 A 
ATOM     18 BR   UNL     1       4.661  15.347  19.691  0.00  0.00    +0.000 Br
ATOM     19  C   UNL     1       2.791  13.497  18.596  0.00  0.00    +0.000 A 
ATOM     20  C   UNL     1       1.700  12.615  18.648  0.00  0.00    +0.000 A 
ENDBRANCH   1  14
BRANCH   1  21
ATOM     21  C   UNL     1      -0.003  10.251  20.676  0.00  0.00    +0.000 C 
BRANCH  21  22
ATOM     22  C   UNL     1       0.981   9.216  20.187  0.00  0.00    +0.000 A 
ATOM     23  C   UNL     1       1.576   9.055  18.953  0.00  0.00    +0.000 A 
ATOM     24  N   UNL     1       2.098   7.789  19.003  0.00  0.00    +0.000 N 
ATOM     25  N   UNL     1       2.017   7.284  20.247  0.00  0.00    +0.000 NA
ATOM     26  N   UNL     1       1.345   8.155  20.985  0.00  0.00    +0.000 NA
BRANCH  24  27
ATOM     27  C   UNL     1       2.727   7.026  17.934  0.00  0.00    +0.000 C 
BRANCH  27  28
ATOM     28  C   UNL     1       2.869   5.535  18.179  0.00  0.00    +0.000 A 
ATOM     29  C   UNL     1       1.898   4.579  17.840  0.00  0.00    +0.000 A 
ATOM     30  C   UNL     1       2.200   3.215  17.869  0.00  0.00    +0.000 A 
ATOM     31  C   UNL     1       3.458   2.782  18.279  0.00  0.00    +0.000 A 
ATOM     32  C   UNL     1       4.396   3.709  18.721  0.00  0.00    +0.000 A 
ATOM     33  C   UNL     1       4.100   5.073  18.681  0.00  0.00    +0.000 A 
ENDBRANCH  27  28
ENDBRANCH  24  27
ENDBRANCH  21  22
ENDBRANCH   1  21
TORSDOF 6
ENDMDL
MODEL 9
REMARK VINA RESULT:      -8.2      7.599     10.809
REMARK  Name = 
REMARK  6 active torsions:
REMARK  status: ('A' for Active; 'I' for Inactive)
REMARK    1  A    between atoms: C_4  and  N_5
REMARK    2  A    between atoms: N_5  and  C_6
REMARK    3  A    between atoms: N_5  and  C_19
REMARK    4  A    between atoms: C_6  and  C_7
REMARK    5  A    between atoms: N_9  and  C_10
REMARK    6  A    between atoms: C_10  and  C_11
REMARK                            x       y       z     vdW  Elec       q    Type
REMARK                         _______ _______ _______ _____ _____    ______ ____
ROOT
ATOM      1  N   UNL     1      -0.506  12.114  20.309  0.00  0.00    +0.000 N 
ENDROOT
BRANCH   1   5
ATOM      2  O   UNL     1      -4.132  15.184  20.609  0.00  0.00    +0.000 OA
ATOM      3  C   UNL     1      -3.484  14.276  21.107  0.00  0.00    +0.000 C 
ATOM      4  C   UNL     1      -2.305  13.716  20.423  0.00  0.00    +0.000 C 
ATOM      5  C   UNL     1      -1.443  12.880  21.025  0.00  0.00    +0.000 C 
ATOM      6  C   UNL     1      -1.630  12.614  22.500  0.00  0.00    +0.000 C 
ATOM      7  O   UNL     1      -0.724  12.201  23.210  0.00  0.00    +0.000 OA
ATOM      8  C   UNL     1      -3.001  12.803  23.037  0.00  0.00    +0.000 A 
ATOM      9  C   UNL     1      -3.411  12.128  24.190  0.00  0.00    +0.000 A 
ATOM     10  C   UNL     1      -4.743  12.218  24.621  0.00  0.00    +0.000 A 
ATOM     11  C   UNL     1      -5.655  13.009  23.917  0.00  0.00    +0.000 A 
ATOM     12  C   UNL     1      -5.235  13.720  22.792  0.00  0.00    +0.000 A 
ATOM     13  C   UNL     1      -3.910  13.601  22.355  0.00  0.00    +0.000 A 
ENDBRANCH   1   5
BRANCH   1  14
ATOM     14  C   UNL     1       0.704  12.704  19.845  0.00  0.00    +0.000 A 
ATOM     15  C   UNL     1       1.741  13.102  20.701  0.00  0.00    +0.000 A 
ATOM     16  C   UNL     1       2.911  13.710  20.240  0.00  0.00    +0.000 A 
ATOM     17  C   UNL     1       3.085  13.924  18.878  0.00  0.00    +0.000 A 
ATOM     18 BR   UNL     1       4.674  14.719  18.248  0.00  0.00    +0.000 Br
ATOM     19  C   UNL     1       2.088  13.552  17.990  0.00  0.00    +0.000 A 
ATOM     20  C   UNL     1       0.913  12.952  18.471  0.00  0.00    +0.000 A 
ENDBRANCH   1  14
BRANCH   1  21
ATOM     21  C   UNL     1      -0.778  10.704  19.896  0.00  0.00    +0.000 C 
BRANCH  21  22
ATOM     22  C   UNL     1       0.336   9.706  20.100  0.00  0.00    +0.000 A 
ATOM     23  C   UNL     1       1.246   9.181  19.206  0.00  0.00    +0.000 A 
ATOM     24  N   UNL     1       1.779   8.109  19.873  0.00  0.00    +0.000 N 
ATOM     25  N   UNL     1       1.383   8.097  21.160  0.00  0.00    +0.000 NA
ATOM     26  N   UNL     1       0.508   9.080  21.314  0.00  0.00    +0.000 NA
BRANCH  24  27
ATOM     27  C   UNL     1       2.697   7.095  19.372  0.00  0.00    +0.000 C 
BRANCH  27  28
ATOM     28  C   UNL     1       2.193   5.664  19.416  0.00  0.00    +0.000 A 
ATOM     29  C   UNL     1       1.705   5.030  20.569  0.00  0.00    +0.000 A 
ATOM     30  C   UNL     1       1.035   3.806  20.481  0.00  0.00    +0.000 A 
ATOM     31  C   UNL     1       0.881   3.177  19.248  0.00  0.00    +0.000 A 
ATOM     32  C   UNL     1       1.453   3.738  18.111  0.00  0.00    +0.000 A 
ATOM     33  C   UNL     1       2.113   4.966  18.196  0.00  0.00    +0.000 A 
ENDBRANCH  27  28
ENDBRANCH  24  27
ENDBRANCH  21  22
ENDBRANCH   1  21
TORSDOF 6
ENDMDL
