MODEL 1
REMARK VINA RESULT:      -7.0      0.000      0.000
REMARK  Name = 
REMARK  8 active torsions:
REMARK  status: ('A' for Active; 'I' for Inactive)
REMARK    1  A    between atoms: C_1  and  C_2
REMARK    2  A    between atoms: C_2  and  N_3
REMARK    3  A    between atoms: N_3  and  C_4
REMARK    4  A    between atoms: C_4  and  C_5
REMARK    5  A    between atoms: N_7  and  C_8
REMARK    6  A    between atoms: C_8  and  C_9
REMARK    7  A    between atoms: C_8  and  C_10
REMARK    8  A    between atoms: C_11  and  C_13
REMARK                            x       y       z     vdW  Elec       q    Type
REMARK                         _______ _______ _______ _____ _____    ______ ____
ROOT
ATOM      1  N   UNL     1       6.649   5.948  17.880  0.00  0.00    +0.000 N 
ATOM      2  C   UNL     1       6.040   5.355  19.006  0.00  0.00    +0.000 C 
ATOM      3  O   UNL     1       6.584   5.352  20.114  0.00  0.00    +0.000 OA
ENDROOT
BRANCH   2   4
ATOM      4  C   UNL     1       4.706   4.671  18.922  0.00  0.00    +0.000 A 
ATOM      5  C   UNL     1       4.679   3.269  18.989  0.00  0.00    +0.000 A 
ATOM      6  C   UNL     1       3.464   2.571  18.946  0.00  0.00    +0.000 A 
ATOM      7  C   UNL     1       2.267   3.272  18.825  0.00  0.00    +0.000 A 
ATOM      8 CL   UNL     1       0.775   2.423  18.726  0.00  0.00    +0.000 Cl
ATOM      9  C   UNL     1       2.273   4.662  18.812  0.00  0.00    +0.000 A 
ATOM     10  C   UNL     1       3.484   5.355  18.909  0.00  0.00    +0.000 A 
ENDBRANCH   2   4
BRANCH   1  12
ATOM     11  C   UNL     1       7.719   8.194  17.591  0.00  0.00    +0.000 C 
ATOM     12  C   UNL     1       7.829   6.782  18.148  0.00  0.00    +0.000 C 
ENDBRANCH   1  12
BRANCH   1  13
ATOM     13  C   UNL     1       6.128   5.852  16.509  0.00  0.00    +0.000 C 
BRANCH  13  14
ATOM     14  C   UNL     1       6.701   4.903  15.449  0.00  0.00    +0.000 C 
ATOM     15  O   UNL     1       7.793   4.359  15.618  0.00  0.00    +0.000 OA
ATOM     16  N   UNL     1       5.973   4.751  14.295  0.00  0.00    +0.000 N 
ATOM     17  H   UNL     1       5.184   5.365  14.131  0.00  0.00    +0.000 HD
BRANCH  16  18
ATOM     18  C   UNL     1       6.502   3.968  13.183  0.00  0.00    +0.000 C 
ATOM     19  C   UNL     1       5.365   3.361  12.372  0.00  0.00    +0.000 C 
ATOM     20  C   UNL     1       7.416   4.819  12.303  0.00  0.00    +0.000 C 
ENDBRANCH  16  18
ENDBRANCH  13  14
ENDBRANCH   1  13
TORSDOF 5
ENDMDL
MODEL 2
REMARK VINA RESULT:      -6.7      0.346      1.139
REMARK  Name = 
REMARK  8 active torsions:
REMARK  status: ('A' for Active; 'I' for Inactive)
REMARK    1  A    between atoms: C_1  and  C_2
REMARK    2  A    between atoms: C_2  and  N_3
REMARK    3  A    between atoms: N_3  and  C_4
REMARK    4  A    between atoms: C_4  and  C_5
REMARK    5  A    between atoms: N_7  and  C_8
REMARK    6  A    between atoms: C_8  and  C_9
REMARK    7  A    between atoms: C_8  and  C_10
REMARK    8  A    between atoms: C_11  and  C_13
REMARK                            x       y       z     vdW  Elec       q    Type
REMARK                         _______ _______ _______ _____ _____    ______ ____
ROOT
ATOM      1  N   UNL     1       6.780   6.083  17.983  0.00  0.00    +0.000 N 
ATOM      2  C   UNL     1       6.233   5.424  19.103  0.00  0.00    +0.000 C 
ATOM      3  O   UNL     1       6.816   5.397  20.191  0.00  0.00    +0.000 OA
ENDROOT
BRANCH   2   4
ATOM      4  C   UNL     1       4.922   4.696  19.038  0.00  0.00    +0.000 A 
ATOM      5  C   UNL     1       3.745   5.438  19.224  0.00  0.00    +0.000 A 
ATOM      6  C   UNL     1       2.488   4.823  19.146  0.00  0.00    +0.000 A 
ATOM      7  C   UNL     1       2.400   3.457  18.894  0.00  0.00    +0.000 A 
ATOM      8 CL   UNL     1       0.865   2.685  18.842  0.00  0.00    +0.000 Cl
ATOM      9  C   UNL     1       3.553   2.718  18.655  0.00  0.00    +0.000 A 
ATOM     10  C   UNL     1       4.802   3.347  18.680  0.00  0.00    +0.000 A 
ENDBRANCH   2   4
BRANCH   1  12
ATOM     11  C   UNL     1       7.802   8.346  17.657  0.00  0.00    +0.000 C 
ATOM     12  C   UNL     1       7.938   6.949  18.244  0.00  0.00    +0.000 C 
ENDBRANCH   1  12
BRANCH   1  13
ATOM     13  C   UNL     1       6.214   6.023  16.628  0.00  0.00    +0.000 C 
BRANCH  13  14
ATOM     14  C   UNL     1       6.542   4.914  15.620  0.00  0.00    +0.000 C 
ATOM     15  O   UNL     1       7.153   3.905  15.975  0.00  0.00    +0.000 OA
ATOM     16  N   UNL     1       6.184   5.138  14.314  0.00  0.00    +0.000 N 
ATOM     17  H   UNL     1       5.859   6.059  14.048  0.00  0.00    +0.000 HD
BRANCH  16  18
ATOM     18  C   UNL     1       6.568   4.195  13.268  0.00  0.00    +0.000 C 
ATOM     19  C   UNL     1       5.332   3.618  12.592  0.00  0.00    +0.000 C 
ATOM     20  C   UNL     1       7.497   4.856  12.252  0.00  0.00    +0.000 C 
ENDBRANCH  16  18
ENDBRANCH  13  14
ENDBRANCH   1  13
TORSDOF 5
ENDMDL
MODEL 3
REMARK VINA RESULT:      -6.6      1.127      1.734
REMARK  Name = 
REMARK  8 active torsions:
REMARK  status: ('A' for Active; 'I' for Inactive)
REMARK    1  A    between atoms: C_1  and  C_2
REMARK    2  A    between atoms: C_2  and  N_3
REMARK    3  A    between atoms: N_3  and  C_4
REMARK    4  A    between atoms: C_4  and  C_5
REMARK    5  A    between atoms: N_7  and  C_8
REMARK    6  A    between atoms: C_8  and  C_9
REMARK    7  A    between atoms: C_8  and  C_10
REMARK    8  A    between atoms: C_11  and  C_13
REMARK                            x       y       z     vdW  Elec       q    Type
REMARK                         _______ _______ _______ _____ _____    ______ ____
ROOT
ATOM      1  N   UNL     1       6.523   4.821  17.641  0.00  0.00    +0.000 N 
ATOM      2  C   UNL     1       5.648   4.889  18.744  0.00  0.00    +0.000 C 
ATOM      3  O   UNL     1       5.926   5.539  19.756  0.00  0.00    +0.000 OA
ENDROOT
BRANCH   2   4
ATOM      4  C   UNL     1       4.337   4.158  18.769  0.00  0.00    +0.000 A 
ATOM      5  C   UNL     1       3.244   4.741  18.108  0.00  0.00    +0.000 A 
ATOM      6  C   UNL     1       2.000   4.097  18.068  0.00  0.00    +0.000 A 
ATOM      7  C   UNL     1       1.838   2.866  18.701  0.00  0.00    +0.000 A 
ATOM      8 CL   UNL     1       0.305   2.089  18.696  0.00  0.00    +0.000 Cl
ATOM      9  C   UNL     1       2.923   2.250  19.313  0.00  0.00    +0.000 A 
ATOM     10  C   UNL     1       4.176   2.873  19.303  0.00  0.00    +0.000 A 
ENDBRANCH   2   4
BRANCH   1  12
ATOM     11  C   UNL     1       7.247   7.200  17.345  0.00  0.00    +0.000 C 
ATOM     12  C   UNL     1       7.649   5.765  17.649  0.00  0.00    +0.000 C 
ENDBRANCH   1  12
BRANCH   1  13
ATOM     13  C   UNL     1       6.322   3.947  16.476  0.00  0.00    +0.000 C 
BRANCH  13  14
ATOM     14  C   UNL     1       6.014   4.470  15.067  0.00  0.00    +0.000 C 
ATOM     15  O   UNL     1       5.378   5.513  14.911  0.00  0.00    +0.000 OA
ATOM     16  N   UNL     1       6.419   3.689  14.014  0.00  0.00    +0.000 N 
ATOM     17  H   UNL     1       6.765   2.756  14.202  0.00  0.00    +0.000 HD
BRANCH  16  18
ATOM     18  C   UNL     1       6.058   4.045  12.645  0.00  0.00    +0.000 C 
ATOM     19  C   UNL     1       7.294   4.058  11.756  0.00  0.00    +0.000 C 
ATOM     20  C   UNL     1       4.992   3.097  12.098  0.00  0.00    +0.000 C 
ENDBRANCH  16  18
ENDBRANCH  13  14
ENDBRANCH   1  13
TORSDOF 5
ENDMDL
MODEL 4
REMARK VINA RESULT:      -6.3      1.224      1.779
REMARK  Name = 
REMARK  8 active torsions:
REMARK  status: ('A' for Active; 'I' for Inactive)
REMARK    1  A    between atoms: C_1  and  C_2
REMARK    2  A    between atoms: C_2  and  N_3
REMARK    3  A    between atoms: N_3  and  C_4
REMARK    4  A    between atoms: C_4  and  C_5
REMARK    5  A    between atoms: N_7  and  C_8
REMARK    6  A    between atoms: C_8  and  C_9
REMARK    7  A    between atoms: C_8  and  C_10
REMARK    8  A    between atoms: C_11  and  C_13
REMARK                            x       y       z     vdW  Elec       q    Type
REMARK                         _______ _______ _______ _____ _____    ______ ____
ROOT
ATOM      1  N   UNL     1       6.222   5.230  16.929  0.00  0.00    +0.000 N 
ATOM      2  C   UNL     1       5.824   4.568  18.110  0.00  0.00    +0.000 C 
ATOM      3  O   UNL     1       6.585   4.443  19.074  0.00  0.00    +0.000 OA
ENDROOT
BRANCH   2   4
ATOM      4  C   UNL     1       4.463   3.954  18.258  0.00  0.00    +0.000 A 
ATOM      5  C   UNL     1       3.453   4.725  18.857  0.00  0.00    +0.000 A 
ATOM      6  C   UNL     1       2.153   4.221  18.999  0.00  0.00    +0.000 A 
ATOM      7  C   UNL     1       1.856   2.936  18.553  0.00  0.00    +0.000 A 
ATOM      8 CL   UNL     1       0.276   2.292  18.764  0.00  0.00    +0.000 Cl
ATOM      9  C   UNL     1       2.830   2.180  17.911  0.00  0.00    +0.000 A 
ATOM     10  C   UNL     1       4.111   2.709  17.723  0.00  0.00    +0.000 A 
ENDBRANCH   2   4
BRANCH   1  12
ATOM     11  C   UNL     1       7.305   7.425  17.461  0.00  0.00    +0.000 C 
ATOM     12  C   UNL     1       7.481   5.984  17.005  0.00  0.00    +0.000 C 
ENDBRANCH   1  12
BRANCH   1  13
ATOM     13  C   UNL     1       5.424   5.278  15.697  0.00  0.00    +0.000 C 
BRANCH  13  14
ATOM     14  C   UNL     1       5.950   4.833  14.327  0.00  0.00    +0.000 C 
ATOM     15  O   UNL     1       7.027   5.254  13.902  0.00  0.00    +0.000 OA
ATOM     16  N   UNL     1       5.137   4.010  13.588  0.00  0.00    +0.000 N 
ATOM     17  H   UNL     1       4.188   3.851  13.902  0.00  0.00    +0.000 HD
BRANCH  16  18
ATOM     18  C   UNL     1       5.501   3.639  12.224  0.00  0.00    +0.000 C 
ATOM     19  C   UNL     1       6.462   2.458  12.232  0.00  0.00    +0.000 C 
ATOM     20  C   UNL     1       4.257   3.336  11.391  0.00  0.00    +0.000 C 
ENDBRANCH  16  18
ENDBRANCH  13  14
ENDBRANCH   1  13
TORSDOF 5
ENDMDL
MODEL 5
REMARK VINA RESULT:      -6.2      3.901      6.679
REMARK  Name = 
REMARK  8 active torsions:
REMARK  status: ('A' for Active; 'I' for Inactive)
REMARK    1  A    between atoms: C_1  and  C_2
REMARK    2  A    between atoms: C_2  and  N_3
REMARK    3  A    between atoms: N_3  and  C_4
REMARK    4  A    between atoms: C_4  and  C_5
REMARK    5  A    between atoms: N_7  and  C_8
REMARK    6  A    between atoms: C_8  and  C_9
REMARK    7  A    between atoms: C_8  and  C_10
REMARK    8  A    between atoms: C_11  and  C_13
REMARK                            x       y       z     vdW  Elec       q    Type
REMARK                         _______ _______ _______ _____ _____    ______ ____
ROOT
ATOM      1  N   UNL     1       3.085   3.179  19.388  0.00  0.00    +0.000 N 
ATOM      2  C   UNL     1       4.006   3.234  18.322  0.00  0.00    +0.000 C 
ATOM      3  O   UNL     1       4.131   2.301  17.523  0.00  0.00    +0.000 OA
ENDROOT
BRANCH   2   4
ATOM      4  C   UNL     1       4.908   4.414  18.107  0.00  0.00    +0.000 A 
ATOM      5  C   UNL     1       4.470   5.430  17.242  0.00  0.00    +0.000 A 
ATOM      6  C   UNL     1       5.251   6.572  17.021  0.00  0.00    +0.000 A 
ATOM      7  C   UNL     1       6.484   6.701  17.655  0.00  0.00    +0.000 A 
ATOM      8 CL   UNL     1       7.470   8.077  17.355  0.00  0.00    +0.000 Cl
ATOM      9  C   UNL     1       6.908   5.730  18.554  0.00  0.00    +0.000 A 
ATOM     10  C   UNL     1       6.100   4.618  18.813  0.00  0.00    +0.000 A 
ENDBRANCH   2   4
BRANCH   1  12
ATOM     11  C   UNL     1       0.800   2.456  18.660  0.00  0.00    +0.000 C 
ATOM     12  C   UNL     1       2.108   2.083  19.343  0.00  0.00    +0.000 C 
ENDBRANCH   1  12
BRANCH   1  13
ATOM     13  C   UNL     1       2.995   4.184  20.457  0.00  0.00    +0.000 C 
BRANCH  13  14
ATOM     14  C   UNL     1       2.012   5.361  20.435  0.00  0.00    +0.000 C 
ATOM     15  O   UNL     1       0.818   5.185  20.685  0.00  0.00    +0.000 OA
ATOM     16  N   UNL     1       2.515   6.582  20.062  0.00  0.00    +0.000 N 
ATOM     17  H   UNL     1       3.454   6.629  19.687  0.00  0.00    +0.000 HD
BRANCH  16  18
ATOM     18  C   UNL     1       1.628   7.728  19.892  0.00  0.00    +0.000 C 
ATOM     19  C   UNL     1       1.562   8.544  21.176  0.00  0.00    +0.000 C 
ATOM     20  C   UNL     1       2.070   8.590  18.711  0.00  0.00    +0.000 C 
ENDBRANCH  16  18
ENDBRANCH  13  14
ENDBRANCH   1  13
TORSDOF 5
ENDMDL
MODEL 6
REMARK VINA RESULT:      -6.2      3.871      7.077
REMARK  Name = 
REMARK  8 active torsions:
REMARK  status: ('A' for Active; 'I' for Inactive)
REMARK    1  A    between atoms: C_1  and  C_2
REMARK    2  A    between atoms: C_2  and  N_3
REMARK    3  A    between atoms: N_3  and  C_4
REMARK    4  A    between atoms: C_4  and  C_5
REMARK    5  A    between atoms: N_7  and  C_8
REMARK    6  A    between atoms: C_8  and  C_9
REMARK    7  A    between atoms: C_8  and  C_10
REMARK    8  A    between atoms: C_11  and  C_13
REMARK                            x       y       z     vdW  Elec       q    Type
REMARK                         _______ _______ _______ _____ _____    ______ ____
ROOT
ATOM      1  N   UNL     1       2.957   4.066  19.131  0.00  0.00    +0.000 N 
ATOM      2  C   UNL     1       3.947   4.025  18.127  0.00  0.00    +0.000 C 
ATOM      3  O   UNL     1       4.029   3.083  17.332  0.00  0.00    +0.000 OA
ENDROOT
BRANCH   2   4
ATOM      4  C   UNL     1       4.975   5.107  17.975  0.00  0.00    +0.000 A 
ATOM      5  C   UNL     1       6.156   5.006  18.728  0.00  0.00    +0.000 A 
ATOM      6  C   UNL     1       7.168   5.969  18.611  0.00  0.00    +0.000 A 
ATOM      7  C   UNL     1       7.000   7.048  17.747  0.00  0.00    +0.000 A 
ATOM      8 CL   UNL     1       8.216   8.257  17.630  0.00  0.00    +0.000 Cl
ATOM      9  C   UNL     1       5.861   7.135  16.955  0.00  0.00    +0.000 A 
ATOM     10  C   UNL     1       4.878   6.142  17.036  0.00  0.00    +0.000 A 
ENDBRANCH   2   4
BRANCH   1  12
ATOM     11  C   UNL     1       0.969   3.018  20.235  0.00  0.00    +0.000 C 
ATOM     12  C   UNL     1       1.880   3.074  19.018  0.00  0.00    +0.000 C 
ENDBRANCH   1  12
BRANCH   1  13
ATOM     13  C   UNL     1       2.901   5.076  20.197  0.00  0.00    +0.000 C 
BRANCH  13  14
ATOM     14  C   UNL     1       2.199   6.431  20.044  0.00  0.00    +0.000 C 
ATOM     15  O   UNL     1       2.186   7.012  18.958  0.00  0.00    +0.000 OA
ATOM     16  N   UNL     1       1.657   6.980  21.180  0.00  0.00    +0.000 N 
ATOM     17  H   UNL     1       1.862   6.553  22.074  0.00  0.00    +0.000 HD
BRANCH  16  18
ATOM     18  C   UNL     1       1.082   8.321  21.153  0.00  0.00    +0.000 C 
ATOM     19  C   UNL     1      -0.433   8.253  21.284  0.00  0.00    +0.000 C 
ATOM     20  C   UNL     1       1.693   9.199  22.244  0.00  0.00    +0.000 C 
ENDBRANCH  16  18
ENDBRANCH  13  14
ENDBRANCH   1  13
TORSDOF 5
ENDMDL
MODEL 7
REMARK VINA RESULT:      -6.2      3.921      7.193
REMARK  Name = 
REMARK  8 active torsions:
REMARK  status: ('A' for Active; 'I' for Inactive)
REMARK    1  A    between atoms: C_1  and  C_2
REMARK    2  A    between atoms: C_2  and  N_3
REMARK    3  A    between atoms: N_3  and  C_4
REMARK    4  A    between atoms: C_4  and  C_5
REMARK    5  A    between atoms: N_7  and  C_8
REMARK    6  A    between atoms: C_8  and  C_9
REMARK    7  A    between atoms: C_8  and  C_10
REMARK    8  A    between atoms: C_11  and  C_13
REMARK                            x       y       z     vdW  Elec       q    Type
REMARK                         _______ _______ _______ _____ _____    ______ ____
ROOT
ATOM      1  N   UNL     1       2.803   4.204  19.137  0.00  0.00    +0.000 N 
ATOM      2  C   UNL     1       3.808   4.073  18.156  0.00  0.00    +0.000 C 
ATOM      3  O   UNL     1       3.821   3.130  17.359  0.00  0.00    +0.000 OA
ENDROOT
BRANCH   2   4
ATOM      4  C   UNL     1       4.936   5.056  18.033  0.00  0.00    +0.000 A 
ATOM      5  C   UNL     1       4.782   6.129  17.140  0.00  0.00    +0.000 A 
ATOM      6  C   UNL     1       5.785   7.098  17.001  0.00  0.00    +0.000 A 
ATOM      7  C   UNL     1       6.956   6.993  17.747  0.00  0.00    +0.000 A 
ATOM      8 CL   UNL     1       8.211   8.151  17.549  0.00  0.00    +0.000 Cl
ATOM      9  C   UNL     1       7.102   5.968  18.674  0.00  0.00    +0.000 A 
ATOM     10  C   UNL     1       6.075   5.035  18.848  0.00  0.00    +0.000 A 
ENDBRANCH   2   4
BRANCH   1  12
ATOM     11  C   UNL     1       1.050   2.864  20.321  0.00  0.00    +0.000 C 
ATOM     12  C   UNL     1       1.641   3.316  18.994  0.00  0.00    +0.000 C 
ENDBRANCH   1  12
BRANCH   1  13
ATOM     13  C   UNL     1       2.815   5.212  20.205  0.00  0.00    +0.000 C 
BRANCH  13  14
ATOM     14  C   UNL     1       2.138   6.583  20.085  0.00  0.00    +0.000 C 
ATOM     15  O   UNL     1       2.151   7.198  19.018  0.00  0.00    +0.000 OA
ATOM     16  N   UNL     1       1.587   7.105  21.230  0.00  0.00    +0.000 N 
ATOM     17  H   UNL     1       1.771   6.646  22.113  0.00  0.00    +0.000 HD
BRANCH  16  18
ATOM     18  C   UNL     1       1.034   8.455  21.237  0.00  0.00    +0.000 C 
ATOM     19  C   UNL     1      -0.484   8.408  21.347  0.00  0.00    +0.000 C 
ATOM     20  C   UNL     1       1.645   9.289  22.361  0.00  0.00    +0.000 C 
ENDBRANCH  16  18
ENDBRANCH  13  14
ENDBRANCH   1  13
TORSDOF 5
ENDMDL
MODEL 8
REMARK VINA RESULT:      -6.0      3.725      6.353
REMARK  Name = 
REMARK  8 active torsions:
REMARK  status: ('A' for Active; 'I' for Inactive)
REMARK    1  A    between atoms: C_1  and  C_2
REMARK    2  A    between atoms: C_2  and  N_3
REMARK    3  A    between atoms: N_3  and  C_4
REMARK    4  A    between atoms: C_4  and  C_5
REMARK    5  A    between atoms: N_7  and  C_8
REMARK    6  A    between atoms: C_8  and  C_9
REMARK    7  A    between atoms: C_8  and  C_10
REMARK    8  A    between atoms: C_11  and  C_13
REMARK                            x       y       z     vdW  Elec       q    Type
REMARK                         _______ _______ _______ _____ _____    ______ ____
ROOT
ATOM      1  N   UNL     1       3.321   5.050  19.215  0.00  0.00    +0.000 N 
ATOM      2  C   UNL     1       4.510   4.349  18.924  0.00  0.00    +0.000 C 
ATOM      3  O   UNL     1       4.993   3.533  19.715  0.00  0.00    +0.000 OA
ENDROOT
BRANCH   2   4
ATOM      4  C   UNL     1       5.273   4.566  17.651  0.00  0.00    +0.000 A 
ATOM      5  C   UNL     1       4.831   3.902  16.495  0.00  0.00    +0.000 A 
ATOM      6  C   UNL     1       5.482   4.085  15.267  0.00  0.00    +0.000 A 
ATOM      7  C   UNL     1       6.589   4.926  15.190  0.00  0.00    +0.000 A 
ATOM      8 CL   UNL     1       7.421   5.122  13.698  0.00  0.00    +0.000 Cl
ATOM      9  C   UNL     1       7.007   5.632  16.312  0.00  0.00    +0.000 A 
ATOM     10  C   UNL     1       6.320   5.488  17.522  0.00  0.00    +0.000 A 
ENDBRANCH   2   4
BRANCH   1  12
ATOM     11  C   UNL     1       1.180   4.028  20.018  0.00  0.00    +0.000 C 
ATOM     12  C   UNL     1       2.555   4.573  20.375  0.00  0.00    +0.000 C 
ENDBRANCH   1  12
BRANCH   1  13
ATOM     13  C   UNL     1       2.780   6.139  18.390  0.00  0.00    +0.000 C 
BRANCH  13  14
ATOM     14  C   UNL     1       2.293   7.476  18.963  0.00  0.00    +0.000 C 
ATOM     15  O   UNL     1       2.138   7.619  20.177  0.00  0.00    +0.000 OA
ATOM     16  N   UNL     1       1.982   8.462  18.060  0.00  0.00    +0.000 N 
ATOM     17  H   UNL     1       1.947   8.228  17.076  0.00  0.00    +0.000 HD
BRANCH  16  18
ATOM     18  C   UNL     1       1.393   9.719  18.509  0.00  0.00    +0.000 C 
ATOM     19  C   UNL     1       2.211  10.900  18.001  0.00  0.00    +0.000 C 
ATOM     20  C   UNL     1      -0.066   9.827  18.070  0.00  0.00    +0.000 C 
ENDBRANCH  16  18
ENDBRANCH  13  14
ENDBRANCH   1  13
TORSDOF 5
ENDMDL
MODEL 9
REMARK VINA RESULT:      -6.0      3.748      6.379
REMARK  Name = 
REMARK  8 active torsions:
REMARK  status: ('A' for Active; 'I' for Inactive)
REMARK    1  A    between atoms: C_1  and  C_2
REMARK    2  A    between atoms: C_2  and  N_3
REMARK    3  A    between atoms: N_3  and  C_4
REMARK    4  A    between atoms: C_4  and  C_5
REMARK    5  A    between atoms: N_7  and  C_8
REMARK    6  A    between atoms: C_8  and  C_9
REMARK    7  A    between atoms: C_8  and  C_10
REMARK    8  A    between atoms: C_11  and  C_13
REMARK                            x       y       z     vdW  Elec       q    Type
REMARK                         _______ _______ _______ _____ _____    ______ ____
ROOT
ATOM      1  N   UNL     1       3.327   5.099  19.276  0.00  0.00    +0.000 N 
ATOM      2  C   UNL     1       4.488   4.373  18.939  0.00  0.00    +0.000 C 
ATOM      3  O   UNL     1       5.009   3.577  19.726  0.00  0.00    +0.000 OA
ENDROOT
BRANCH   2   4
ATOM      4  C   UNL     1       5.176   4.540  17.616  0.00  0.00    +0.000 A 
ATOM      5  C   UNL     1       6.410   5.209  17.593  0.00  0.00    +0.000 A 
ATOM      6  C   UNL     1       7.118   5.373  16.394  0.00  0.00    +0.000 A 
ATOM      7  C   UNL     1       6.589   4.876  15.206  0.00  0.00    +0.000 A 
ATOM      8 CL   UNL     1       7.427   5.111  13.724  0.00  0.00    +0.000 Cl
ATOM      9  C   UNL     1       5.395   4.164  15.219  0.00  0.00    +0.000 A 
ATOM     10  C   UNL     1       4.720   3.957  16.426  0.00  0.00    +0.000 A 
ENDBRANCH   2   4
BRANCH   1  12
ATOM     11  C   UNL     1       1.319   3.939  20.224  0.00  0.00    +0.000 C 
ATOM     12  C   UNL     1       2.626   4.670  20.495  0.00  0.00    +0.000 C 
ENDBRANCH   1  12
BRANCH   1  13
ATOM     13  C   UNL     1       2.748   6.168  18.450  0.00  0.00    +0.000 C 
BRANCH  13  14
ATOM     14  C   UNL     1       2.274   7.513  19.013  0.00  0.00    +0.000 C 
ATOM     15  O   UNL     1       2.091   7.657  20.222  0.00  0.00    +0.000 OA
ATOM     16  N   UNL     1       2.005   8.506  18.103  0.00  0.00    +0.000 N 
ATOM     17  H   UNL     1       1.990   8.274  17.118  0.00  0.00    +0.000 HD
BRANCH  16  18
ATOM     18  C   UNL     1       1.430   9.774  18.539  0.00  0.00    +0.000 C 
ATOM     19  C   UNL     1       2.226  10.942  17.971  0.00  0.00    +0.000 C 
ATOM     20  C   UNL     1      -0.044   9.868  18.151  0.00  0.00    +0.000 C 
ENDBRANCH  16  18
ENDBRANCH  13  14
ENDBRANCH   1  13
TORSDOF 5
ENDMDL
