MODEL 1
REMARK VINA RESULT:      -7.9      0.000      0.000
REMARK  Name = 
REMARK  7 active torsions:
REMARK  status: ('A' for Active; 'I' for Inactive)
REMARK    1  A    between atoms: C_6  and  N_7
REMARK    2  A    between atoms: N_10  and  C_11
REMARK    3  A    between atoms: C_11  and  C_12
REMARK    4  A    between atoms: C_12  and  C_13
REMARK    5  A    between atoms: C_13  and  C_14
REMARK    6  A    between atoms: C_14  and  N_15
REMARK    7  A    between atoms: C_19  and  C_20
REMARK                            x       y       z     vdW  Elec       q    Type
REMARK                         _______ _______ _______ _____ _____    ______ ____
ROOT
ATOM      1  C   UNL     1       8.183   8.446  18.051  0.00  0.00    +0.000 C 
ENDROOT
BRANCH   1   2
ATOM      2  C   UNL     1       6.909   8.100  17.262  0.00  0.00    +0.000 C 
BRANCH   2   6
ATOM      3  N   UNL     1       4.878   5.307  18.059  0.00  0.00    +0.000 N 
ATOM      4  C   UNL     1       6.156   5.526  18.731  0.00  0.00    +0.000 C 
ATOM      5  C   UNL     1       7.266   5.673  17.678  0.00  0.00    +0.000 C 
ATOM      6  N   UNL     1       6.942   6.726  16.690  0.00  0.00    +0.000 NA
ATOM      7  C   UNL     1       5.677   6.378  16.006  0.00  0.00    +0.000 C 
ATOM      8  C   UNL     1       4.525   6.271  17.014  0.00  0.00    +0.000 C 
BRANCH   3  14
ATOM      9 CL   UNL     1       1.038   3.090  20.952  0.00  0.00    +0.000 Cl
ATOM     10  C   UNL     1       2.238   3.102  19.661  0.00  0.00    +0.000 A 
ATOM     11  C   UNL     1       2.331   1.976  18.847  0.00  0.00    +0.000 A 
ATOM     12  C   UNL     1       3.246   1.940  17.804  0.00  0.00    +0.000 A 
ATOM     13  C   UNL     1       4.079   3.028  17.564  0.00  0.00    +0.000 A 
ATOM     14  C   UNL     1       4.021   4.191  18.367  0.00  0.00    +0.000 A 
ATOM     15  C   UNL     1       3.068   4.217  19.437  0.00  0.00    +0.000 A 
ATOM     16 CL   UNL     1       2.793   5.636  20.460  0.00  0.00    +0.000 Cl
ENDBRANCH   3  14
ENDBRANCH   2   6
ENDBRANCH   1   2
BRANCH   1  17
ATOM     17  C   UNL     1       8.408   9.956  18.202  0.00  0.00    +0.000 C 
BRANCH  17  18
ATOM     18  C   UNL     1       9.479  10.241  19.254  0.00  0.00    +0.000 C 
BRANCH  18  19
ATOM     19  N   UNL     1       9.789  11.645  19.356  0.00  0.00    +0.000 N 
ATOM     20  C   UNL     1       9.439  12.325  20.548  0.00  0.00    +0.000 A 
ATOM     21  N   UNL     1       9.650  13.634  20.766  0.00  0.00    +0.000 NA
ATOM     22  O   UNL     1       9.182  13.851  21.964  0.00  0.00    +0.000 OA
ATOM     23  C   UNL     1       8.704  12.733  22.466  0.00  0.00    +0.000 A 
ATOM     24  N   UNL     1       8.844  11.722  21.592  0.00  0.00    +0.000 NA
ATOM     25  H   UNL     1      10.230  12.158  18.579  0.00  0.00    +0.000 HD
BRANCH  23  26
ATOM     26  C   UNL     1       8.100  12.586  23.799  0.00  0.00    +0.000 A 
ATOM     27  C   UNL     1       8.564  13.365  24.869  0.00  0.00    +0.000 A 
ATOM     28  C   UNL     1       8.000  13.223  26.139  0.00  0.00    +0.000 A 
ATOM     29  C   UNL     1       6.968  12.305  26.352  0.00  0.00    +0.000 A 
ATOM     30  C   UNL     1       6.497  11.526  25.291  0.00  0.00    +0.000 A 
ATOM     31  C   UNL     1       7.059  11.664  24.019  0.00  0.00    +0.000 A 
ENDBRANCH  23  26
ENDBRANCH  18  19
ENDBRANCH  17  18
ENDBRANCH   1  17
TORSDOF 7
ENDMDL
MODEL 2
REMARK VINA RESULT:      -7.7      4.844     11.118
REMARK  Name = 
REMARK  7 active torsions:
REMARK  status: ('A' for Active; 'I' for Inactive)
REMARK    1  A    between atoms: C_6  and  N_7
REMARK    2  A    between atoms: N_10  and  C_11
REMARK    3  A    between atoms: C_11  and  C_12
REMARK    4  A    between atoms: C_12  and  C_13
REMARK    5  A    between atoms: C_13  and  C_14
REMARK    6  A    between atoms: C_14  and  N_15
REMARK    7  A    between atoms: C_19  and  C_20
REMARK                            x       y       z     vdW  Elec       q    Type
REMARK                         _______ _______ _______ _____ _____    ______ ____
ROOT
ATOM      1  C   UNL     1       8.667   8.974  18.592  0.00  0.00    +0.000 C 
ENDROOT
BRANCH   1   2
ATOM      2  C   UNL     1       9.059  10.406  18.193  0.00  0.00    +0.000 C 
BRANCH   2   6
ATOM      3  N   UNL     1       9.762  13.763  19.089  0.00  0.00    +0.000 N 
ATOM      4  C   UNL     1      10.341  13.166  17.888  0.00  0.00    +0.000 C 
ATOM      5  C   UNL     1      11.072  11.868  18.266  0.00  0.00    +0.000 C 
ATOM      6  N   UNL     1      10.186  10.941  19.005  0.00  0.00    +0.000 NA
ATOM      7  C   UNL     1       9.715  11.602  20.242  0.00  0.00    +0.000 C 
ATOM      8  C   UNL     1       8.932  12.881  19.911  0.00  0.00    +0.000 C 
BRANCH   3  14
ATOM      9 CL   UNL     1       8.037  18.629  20.262  0.00  0.00    +0.000 Cl
ATOM     10  C   UNL     1       9.286  17.405  20.042  0.00  0.00    +0.000 A 
ATOM     11  C   UNL     1      10.605  17.764  20.309  0.00  0.00    +0.000 A 
ATOM     12  C   UNL     1      11.625  16.833  20.170  0.00  0.00    +0.000 A 
ATOM     13  C   UNL     1      11.339  15.535  19.760  0.00  0.00    +0.000 A 
ATOM     14  C   UNL     1      10.014  15.128  19.475  0.00  0.00    +0.000 A 
ATOM     15  C   UNL     1       8.970  16.096  19.628  0.00  0.00    +0.000 A 
ATOM     16 CL   UNL     1       7.253  15.717  19.420  0.00  0.00    +0.000 Cl
ENDBRANCH   3  14
ENDBRANCH   2   6
ENDBRANCH   1   2
BRANCH   1  17
ATOM     17  C   UNL     1       7.646   8.339  17.638  0.00  0.00    +0.000 C 
BRANCH  17  18
ATOM     18  C   UNL     1       7.697   6.815  17.728  0.00  0.00    +0.000 C 
BRANCH  18  19
ATOM     19  N   UNL     1       7.175   6.178  16.544  0.00  0.00    +0.000 N 
ATOM     20  C   UNL     1       6.027   5.359  16.674  0.00  0.00    +0.000 A 
ATOM     21  N   UNL     1       5.451   4.691  15.660  0.00  0.00    +0.000 NA
ATOM     22  O   UNL     1       4.444   4.066  16.203  0.00  0.00    +0.000 OA
ATOM     23  C   UNL     1       4.396   4.331  17.490  0.00  0.00    +0.000 A 
ATOM     24  N   UNL     1       5.395   5.157  17.843  0.00  0.00    +0.000 NA
ATOM     25  H   UNL     1       7.631   6.287  15.627  0.00  0.00    +0.000 HD
BRANCH  23  26
ATOM     26  C   UNL     1       3.393   3.809  18.431  0.00  0.00    +0.000 A 
ATOM     27  C   UNL     1       2.029   3.880  18.113  0.00  0.00    +0.000 A 
ATOM     28  C   UNL     1       1.072   3.395  19.007  0.00  0.00    +0.000 A 
ATOM     29  C   UNL     1       1.467   2.832  20.224  0.00  0.00    +0.000 A 
ATOM     30  C   UNL     1       2.824   2.754  20.549  0.00  0.00    +0.000 A 
ATOM     31  C   UNL     1       3.786   3.240  19.658  0.00  0.00    +0.000 A 
ENDBRANCH  23  26
ENDBRANCH  18  19
ENDBRANCH  17  18
ENDBRANCH   1  17
TORSDOF 7
ENDMDL
MODEL 3
REMARK VINA RESULT:      -7.6      2.611      4.127
REMARK  Name = 
REMARK  7 active torsions:
REMARK  status: ('A' for Active; 'I' for Inactive)
REMARK    1  A    between atoms: C_6  and  N_7
REMARK    2  A    between atoms: N_10  and  C_11
REMARK    3  A    between atoms: C_11  and  C_12
REMARK    4  A    between atoms: C_12  and  C_13
REMARK    5  A    between atoms: C_13  and  C_14
REMARK    6  A    between atoms: C_14  and  N_15
REMARK    7  A    between atoms: C_19  and  C_20
REMARK                            x       y       z     vdW  Elec       q    Type
REMARK                         _______ _______ _______ _____ _____    ______ ____
ROOT
ATOM      1  C   UNL     1       7.808   8.651  17.372  0.00  0.00    +0.000 C 
ENDROOT
BRANCH   1   2
ATOM      2  C   UNL     1       7.860   7.340  18.173  0.00  0.00    +0.000 C 
BRANCH   2   6
ATOM      3  N   UNL     1       5.160   5.049  18.319  0.00  0.00    +0.000 N 
ATOM      4  C   UNL     1       6.397   4.804  19.055  0.00  0.00    +0.000 C 
ATOM      5  C   UNL     1       7.588   4.868  18.086  0.00  0.00    +0.000 C 
ATOM      6  N   UNL     1       7.606   6.140  17.330  0.00  0.00    +0.000 NA
ATOM      7  C   UNL     1       6.351   6.263  16.555  0.00  0.00    +0.000 C 
ATOM      8  C   UNL     1       5.132   6.255  17.488  0.00  0.00    +0.000 C 
BRANCH   3  14
ATOM      9 CL   UNL     1       0.467   3.610  20.303  0.00  0.00    +0.000 Cl
ATOM     10  C   UNL     1       1.855   3.424  19.233  0.00  0.00    +0.000 A 
ATOM     11  C   UNL     1       1.845   2.363  18.331  0.00  0.00    +0.000 A 
ATOM     12  C   UNL     1       2.904   2.182  17.451  0.00  0.00    +0.000 A 
ATOM     13  C   UNL     1       3.984   3.058  17.465  0.00  0.00    +0.000 A 
ATOM     14  C   UNL     1       4.037   4.147  18.366  0.00  0.00    +0.000 A 
ATOM     15  C   UNL     1       2.936   4.327  19.264  0.00  0.00    +0.000 A 
ATOM     16 CL   UNL     1       2.797   5.701  20.372  0.00  0.00    +0.000 Cl
ENDBRANCH   3  14
ENDBRANCH   2   6
ENDBRANCH   1   2
BRANCH   1  17
ATOM     17  C   UNL     1       8.082   9.894  18.230  0.00  0.00    +0.000 C 
BRANCH  17  18
ATOM     18  C   UNL     1       9.436   9.782  18.929  0.00  0.00    +0.000 C 
BRANCH  18  19
ATOM     19  N   UNL     1       9.434  10.399  20.232  0.00  0.00    +0.000 N 
ATOM     20  C   UNL     1       9.837  11.753  20.334  0.00  0.00    +0.000 A 
ATOM     21  N   UNL     1       9.902  12.442  21.486  0.00  0.00    +0.000 NA
ATOM     22  O   UNL     1      10.318  13.628  21.141  0.00  0.00    +0.000 OA
ATOM     23  C   UNL     1      10.503  13.675  19.839  0.00  0.00    +0.000 A 
ATOM     24  N   UNL     1      10.209  12.492  19.275  0.00  0.00    +0.000 NA
ATOM     25  H   UNL     1       9.173   9.872  21.078  0.00  0.00    +0.000 HD
BRANCH  23  26
ATOM     26  C   UNL     1      10.963  14.851  19.085  0.00  0.00    +0.000 A 
ATOM     27  C   UNL     1      11.249  14.738  17.716  0.00  0.00    +0.000 A 
ATOM     28  C   UNL     1      11.695  15.849  16.997  0.00  0.00    +0.000 A 
ATOM     29  C   UNL     1      11.856  17.082  17.635  0.00  0.00    +0.000 A 
ATOM     30  C   UNL     1      11.571  17.206  18.998  0.00  0.00    +0.000 A 
ATOM     31  C   UNL     1      11.126  16.096  19.722  0.00  0.00    +0.000 A 
ENDBRANCH  23  26
ENDBRANCH  18  19
ENDBRANCH  17  18
ENDBRANCH   1  17
TORSDOF 7
ENDMDL
MODEL 4
REMARK VINA RESULT:      -7.5      3.332      3.604
REMARK  Name = 
REMARK  7 active torsions:
REMARK  status: ('A' for Active; 'I' for Inactive)
REMARK    1  A    between atoms: C_6  and  N_7
REMARK    2  A    between atoms: N_10  and  C_11
REMARK    3  A    between atoms: C_11  and  C_12
REMARK    4  A    between atoms: C_12  and  C_13
REMARK    5  A    between atoms: C_13  and  C_14
REMARK    6  A    between atoms: C_14  and  N_15
REMARK    7  A    between atoms: C_19  and  C_20
REMARK                            x       y       z     vdW  Elec       q    Type
REMARK                         _______ _______ _______ _____ _____    ______ ____
ROOT
ATOM      1  C   UNL     1       8.488   8.530  17.801  0.00  0.00    +0.000 C 
ENDROOT
BRANCH   1   2
ATOM      2  C   UNL     1       7.168   7.787  17.539  0.00  0.00    +0.000 C 
BRANCH   2   6
ATOM      3  N   UNL     1       4.957   5.103  18.224  0.00  0.00    +0.000 N 
ATOM      4  C   UNL     1       5.960   5.521  19.200  0.00  0.00    +0.000 C 
ATOM      5  C   UNL     1       7.348   5.516  18.538  0.00  0.00    +0.000 C 
ATOM      6  N   UNL     1       7.364   6.331  17.304  0.00  0.00    +0.000 NA
ATOM      7  C   UNL     1       6.376   5.784  16.347  0.00  0.00    +0.000 C 
ATOM      8  C   UNL     1       4.963   5.818  16.946  0.00  0.00    +0.000 C 
BRANCH   3  14
ATOM      9 CL   UNL     1       0.739   3.121  20.735  0.00  0.00    +0.000 Cl
ATOM     10  C   UNL     1       2.079   3.044  19.593  0.00  0.00    +0.000 A 
ATOM     11  C   UNL     1       2.228   1.882  18.841  0.00  0.00    +0.000 A 
ATOM     12  C   UNL     1       3.255   1.775  17.913  0.00  0.00    +0.000 A 
ATOM     13  C   UNL     1       4.146   2.828  17.730  0.00  0.00    +0.000 A 
ATOM     14  C   UNL     1       4.034   4.026  18.474  0.00  0.00    +0.000 A 
ATOM     15  C   UNL     1       2.966   4.125  19.424  0.00  0.00    +0.000 A 
ATOM     16 CL   UNL     1       2.621   5.593  20.352  0.00  0.00    +0.000 Cl
ENDBRANCH   3  14
ENDBRANCH   2   6
ENDBRANCH   1   2
BRANCH   1  17
ATOM     17  C   UNL     1       8.293  10.021  18.106  0.00  0.00    +0.000 C 
BRANCH  17  18
ATOM     18  C   UNL     1       9.474  10.569  18.906  0.00  0.00    +0.000 C 
BRANCH  18  19
ATOM     19  N   UNL     1      10.340  11.399  18.107  0.00  0.00    +0.000 N 
ATOM     20  C   UNL     1      10.091  12.793  18.074  0.00  0.00    +0.000 A 
ATOM     21  N   UNL     1      10.805  13.675  17.355  0.00  0.00    +0.000 NA
ATOM     22  O   UNL     1      10.250  14.830  17.599  0.00  0.00    +0.000 OA
ATOM     23  C   UNL     1       9.240  14.673  18.426  0.00  0.00    +0.000 A 
ATOM     24  N   UNL     1       9.095  13.379  18.760  0.00  0.00    +0.000 NA
ATOM     25  H   UNL     1      11.108  10.998  17.549  0.00  0.00    +0.000 HD
BRANCH  23  26
ATOM     26  C   UNL     1       8.377  15.751  18.934  0.00  0.00    +0.000 A 
ATOM     27  C   UNL     1       8.884  16.680  19.854  0.00  0.00    +0.000 A 
ATOM     28  C   UNL     1       8.067  17.701  20.346  0.00  0.00    +0.000 A 
ATOM     29  C   UNL     1       6.739  17.804  19.923  0.00  0.00    +0.000 A 
ATOM     30  C   UNL     1       6.225  16.885  19.004  0.00  0.00    +0.000 A 
ATOM     31  C   UNL     1       7.039  15.861  18.510  0.00  0.00    +0.000 A 
ENDBRANCH  23  26
ENDBRANCH  18  19
ENDBRANCH  17  18
ENDBRANCH   1  17
TORSDOF 7
ENDMDL
MODEL 5
REMARK VINA RESULT:      -7.5      4.518     11.018
REMARK  Name = 
REMARK  7 active torsions:
REMARK  status: ('A' for Active; 'I' for Inactive)
REMARK    1  A    between atoms: C_6  and  N_7
REMARK    2  A    between atoms: N_10  and  C_11
REMARK    3  A    between atoms: C_11  and  C_12
REMARK    4  A    between atoms: C_12  and  C_13
REMARK    5  A    between atoms: C_13  and  C_14
REMARK    6  A    between atoms: C_14  and  N_15
REMARK    7  A    between atoms: C_19  and  C_20
REMARK                            x       y       z     vdW  Elec       q    Type
REMARK                         _______ _______ _______ _____ _____    ______ ____
ROOT
ATOM      1  C   UNL     1       8.847   9.073  17.871  0.00  0.00    +0.000 C 
ENDROOT
BRANCH   1   2
ATOM      2  C   UNL     1       8.888  10.326  18.761  0.00  0.00    +0.000 C 
BRANCH   2   6
ATOM      3  N   UNL     1       9.934  13.332  20.320  0.00  0.00    +0.000 N 
ATOM      4  C   UNL     1       8.809  13.318  19.389  0.00  0.00    +0.000 C 
ATOM      5  C   UNL     1       9.255  12.685  18.061  0.00  0.00    +0.000 C 
ATOM      6  N   UNL     1       9.852  11.348  18.270  0.00  0.00    +0.000 NA
ATOM      7  C   UNL     1      11.029  11.474  19.158  0.00  0.00    +0.000 C 
ATOM      8  C   UNL     1      10.622  12.055  20.520  0.00  0.00    +0.000 C 
BRANCH   3  14
ATOM      9 CL   UNL     1       9.887  16.597  24.488  0.00  0.00    +0.000 Cl
ATOM     10  C   UNL     1      10.413  16.088  22.885  0.00  0.00    +0.000 A 
ATOM     11  C   UNL     1      11.363  16.869  22.231  0.00  0.00    +0.000 A 
ATOM     12  C   UNL     1      11.826  16.503  20.975  0.00  0.00    +0.000 A 
ATOM     13  C   UNL     1      11.344  15.354  20.357  0.00  0.00    +0.000 A 
ATOM     14  C   UNL     1      10.377  14.532  20.983  0.00  0.00    +0.000 A 
ATOM     15  C   UNL     1       9.912  14.918  22.282  0.00  0.00    +0.000 A 
ATOM     16 CL   UNL     1       8.791  13.941  23.244  0.00  0.00    +0.000 Cl
ENDBRANCH   3  14
ENDBRANCH   2   6
ENDBRANCH   1   2
BRANCH   1  17
ATOM     17  C   UNL     1       7.431   8.512  17.682  0.00  0.00    +0.000 C 
BRANCH  17  18
ATOM     18  C   UNL     1       7.410   7.002  17.918  0.00  0.00    +0.000 C 
BRANCH  18  19
ATOM     19  N   UNL     1       6.990   6.271  16.748  0.00  0.00    +0.000 N 
ATOM     20  C   UNL     1       5.809   5.494  16.831  0.00  0.00    +0.000 A 
ATOM     21  N   UNL     1       5.318   4.749  15.827  0.00  0.00    +0.000 NA
ATOM     22  O   UNL     1       4.241   4.200  16.317  0.00  0.00    +0.000 OA
ATOM     23  C   UNL     1       4.072   4.583  17.563  0.00  0.00    +0.000 A 
ATOM     24  N   UNL     1       5.056   5.416  17.942  0.00  0.00    +0.000 NA
ATOM     25  H   UNL     1       7.540   6.284  15.877  0.00  0.00    +0.000 HD
BRANCH  23  26
ATOM     26  C   UNL     1       2.963   4.174  18.438  0.00  0.00    +0.000 A 
ATOM     27  C   UNL     1       2.096   3.146  18.038  0.00  0.00    +0.000 A 
ATOM     28  C   UNL     1       1.036   2.760  18.861  0.00  0.00    +0.000 A 
ATOM     29  C   UNL     1       0.832   3.393  20.090  0.00  0.00    +0.000 A 
ATOM     30  C   UNL     1       1.692   4.417  20.500  0.00  0.00    +0.000 A 
ATOM     31  C   UNL     1       2.754   4.808  19.678  0.00  0.00    +0.000 A 
ENDBRANCH  23  26
ENDBRANCH  18  19
ENDBRANCH  17  18
ENDBRANCH   1  17
TORSDOF 7
ENDMDL
MODEL 6
REMARK VINA RESULT:      -7.5      5.215     11.274
REMARK  Name = 
REMARK  7 active torsions:
REMARK  status: ('A' for Active; 'I' for Inactive)
REMARK    1  A    between atoms: C_6  and  N_7
REMARK    2  A    between atoms: N_10  and  C_11
REMARK    3  A    between atoms: C_11  and  C_12
REMARK    4  A    between atoms: C_12  and  C_13
REMARK    5  A    between atoms: C_13  and  C_14
REMARK    6  A    between atoms: C_14  and  N_15
REMARK    7  A    between atoms: C_19  and  C_20
REMARK                            x       y       z     vdW  Elec       q    Type
REMARK                         _______ _______ _______ _____ _____    ______ ____
ROOT
ATOM      1  C   UNL     1       8.932   9.375  18.965  0.00  0.00    +0.000 C 
ENDROOT
BRANCH   1   2
ATOM      2  C   UNL     1      10.037  10.421  18.750  0.00  0.00    +0.000 C 
BRANCH   2   6
ATOM      3  N   UNL     1      10.239  13.954  18.958  0.00  0.00    +0.000 N 
ATOM      4  C   UNL     1      11.438  13.139  18.780  0.00  0.00    +0.000 C 
ATOM      5  C   UNL     1      11.503  12.078  19.889  0.00  0.00    +0.000 C 
ATOM      6  N   UNL     1      10.261  11.276  19.947  0.00  0.00    +0.000 NA
ATOM      7  C   UNL     1       9.114  12.174  20.211  0.00  0.00    +0.000 C 
ATOM      8  C   UNL     1       8.978  13.223  19.098  0.00  0.00    +0.000 C 
BRANCH   3  14
ATOM      9 CL   UNL     1      12.249  18.604  17.421  0.00  0.00    +0.000 Cl
ATOM     10  C   UNL     1      11.160  17.586  18.360  0.00  0.00    +0.000 A 
ATOM     11  C   UNL     1      10.239  18.214  19.196  0.00  0.00    +0.000 A 
ATOM     12  C   UNL     1       9.345  17.460  19.944  0.00  0.00    +0.000 A 
ATOM     13  C   UNL     1       9.363  16.071  19.867  0.00  0.00    +0.000 A 
ATOM     14  C   UNL     1      10.282  15.392  19.033  0.00  0.00    +0.000 A 
ATOM     15  C   UNL     1      11.195  16.181  18.262  0.00  0.00    +0.000 A 
ATOM     16 CL   UNL     1      12.330  15.492  17.091  0.00  0.00    +0.000 Cl
ENDBRANCH   3  14
ENDBRANCH   2   6
ENDBRANCH   1   2
BRANCH   1  17
ATOM     17  C   UNL     1       7.967   9.262  17.776  0.00  0.00    +0.000 C 
BRANCH  17  18
ATOM     18  C   UNL     1       7.804   7.805  17.347  0.00  0.00    +0.000 C 
BRANCH  18  19
ATOM     19  N   UNL     1       8.075   6.883  18.423  0.00  0.00    +0.000 N 
ATOM     20  C   UNL     1       7.068   5.953  18.778  0.00  0.00    +0.000 A 
ATOM     21  N   UNL     1       7.179   5.055  19.771  0.00  0.00    +0.000 NA
ATOM     22  O   UNL     1       6.045   4.411  19.766  0.00  0.00    +0.000 OA
ATOM     23  C   UNL     1       5.267   4.885  18.817  0.00  0.00    +0.000 A 
ATOM     24  N   UNL     1       5.879   5.880  18.154  0.00  0.00    +0.000 NA
ATOM     25  H   UNL     1       8.963   6.907  18.944  0.00  0.00    +0.000 HD
BRANCH  23  26
ATOM     26  C   UNL     1       3.913   4.403  18.504  0.00  0.00    +0.000 A 
ATOM     27  C   UNL     1       3.658   3.026  18.432  0.00  0.00    +0.000 A 
ATOM     28  C   UNL     1       2.376   2.563  18.126  0.00  0.00    +0.000 A 
ATOM     29  C   UNL     1       1.338   3.469  17.893  0.00  0.00    +0.000 A 
ATOM     30  C   UNL     1       1.581   4.843  17.966  0.00  0.00    +0.000 A 
ATOM     31  C   UNL     1       2.863   5.311  18.270  0.00  0.00    +0.000 A 
ENDBRANCH  23  26
ENDBRANCH  18  19
ENDBRANCH  17  18
ENDBRANCH   1  17
TORSDOF 7
ENDMDL
MODEL 7
REMARK VINA RESULT:      -7.4      1.396      1.778
REMARK  Name = 
REMARK  7 active torsions:
REMARK  status: ('A' for Active; 'I' for Inactive)
REMARK    1  A    between atoms: C_6  and  N_7
REMARK    2  A    between atoms: N_10  and  C_11
REMARK    3  A    between atoms: C_11  and  C_12
REMARK    4  A    between atoms: C_12  and  C_13
REMARK    5  A    between atoms: C_13  and  C_14
REMARK    6  A    between atoms: C_14  and  N_15
REMARK    7  A    between atoms: C_19  and  C_20
REMARK                            x       y       z     vdW  Elec       q    Type
REMARK                         _______ _______ _______ _____ _____    ______ ____
ROOT
ATOM      1  C   UNL     1       7.824   8.578  17.217  0.00  0.00    +0.000 C 
ENDROOT
BRANCH   1   2
ATOM      2  C   UNL     1       7.846   7.289  18.054  0.00  0.00    +0.000 C 
BRANCH   2   6
ATOM      3  N   UNL     1       4.781   5.728  18.909  0.00  0.00    +0.000 N 
ATOM      4  C   UNL     1       6.053   5.219  19.415  0.00  0.00    +0.000 C 
ATOM      5  C   UNL     1       7.001   4.956  18.234  0.00  0.00    +0.000 C 
ATOM      6  N   UNL     1       7.154   6.156  17.382  0.00  0.00    +0.000 NA
ATOM      7  C   UNL     1       5.829   6.548  16.853  0.00  0.00    +0.000 C 
ATOM      8  C   UNL     1       4.860   6.872  17.999  0.00  0.00    +0.000 C 
BRANCH   3  14
ATOM      9 CL   UNL     1       1.242   1.820  18.423  0.00  0.00    +0.000 Cl
ATOM     10  C   UNL     1       1.832   3.345  19.080  0.00  0.00    +0.000 A 
ATOM     11  C   UNL     1       1.048   3.993  20.031  0.00  0.00    +0.000 A 
ATOM     12  C   UNL     1       1.474   5.187  20.595  0.00  0.00    +0.000 A 
ATOM     13  C   UNL     1       2.688   5.749  20.212  0.00  0.00    +0.000 A 
ATOM     14  C   UNL     1       3.516   5.128  19.248  0.00  0.00    +0.000 A 
ATOM     15  C   UNL     1       3.067   3.892  18.678  0.00  0.00    +0.000 A 
ATOM     16 CL   UNL     1       4.033   2.935  17.545  0.00  0.00    +0.000 Cl
ENDBRANCH   3  14
ENDBRANCH   2   6
ENDBRANCH   1   2
BRANCH   1  17
ATOM     17  C   UNL     1       8.087   9.842  18.048  0.00  0.00    +0.000 C 
BRANCH  17  18
ATOM     18  C   UNL     1       9.186   9.592  19.080  0.00  0.00    +0.000 C 
BRANCH  18  19
ATOM     19  N   UNL     1      10.001  10.759  19.307  0.00  0.00    +0.000 N 
ATOM     20  C   UNL     1       9.735  11.550  20.451  0.00  0.00    +0.000 A 
ATOM     21  N   UNL     1      10.402  12.673  20.771  0.00  0.00    +0.000 NA
ATOM     22  O   UNL     1       9.846  13.086  21.876  0.00  0.00    +0.000 OA
ATOM     23  C   UNL     1       8.882  12.263  22.226  0.00  0.00    +0.000 A 
ATOM     24  N   UNL     1       8.769  11.259  21.340  0.00  0.00    +0.000 NA
ATOM     25  H   UNL     1      10.744  11.036  18.649  0.00  0.00    +0.000 HD
BRANCH  23  26
ATOM     26  C   UNL     1       8.034  12.401  23.420  0.00  0.00    +0.000 A 
ATOM     27  C   UNL     1       8.594  12.252  24.698  0.00  0.00    +0.000 A 
ATOM     28  C   UNL     1       7.792  12.372  25.835  0.00  0.00    +0.000 A 
ATOM     29  C   UNL     1       6.427  12.644  25.708  0.00  0.00    +0.000 A 
ATOM     30  C   UNL     1       5.861  12.797  24.439  0.00  0.00    +0.000 A 
ATOM     31  C   UNL     1       6.659  12.676  23.298  0.00  0.00    +0.000 A 
ENDBRANCH  23  26
ENDBRANCH  18  19
ENDBRANCH  17  18
ENDBRANCH   1  17
TORSDOF 7
ENDMDL
MODEL 8
REMARK VINA RESULT:      -7.4      4.578     11.111
REMARK  Name = 
REMARK  7 active torsions:
REMARK  status: ('A' for Active; 'I' for Inactive)
REMARK    1  A    between atoms: C_6  and  N_7
REMARK    2  A    between atoms: N_10  and  C_11
REMARK    3  A    between atoms: C_11  and  C_12
REMARK    4  A    between atoms: C_12  and  C_13
REMARK    5  A    between atoms: C_13  and  C_14
REMARK    6  A    between atoms: C_14  and  N_15
REMARK    7  A    between atoms: C_19  and  C_20
REMARK                            x       y       z     vdW  Elec       q    Type
REMARK                         _______ _______ _______ _____ _____    ______ ____
ROOT
ATOM      1  C   UNL     1       8.873   9.902  17.886  0.00  0.00    +0.000 C 
ENDROOT
BRANCH   1   2
ATOM      2  C   UNL     1       9.203  10.335  19.324  0.00  0.00    +0.000 C 
BRANCH   2   6
ATOM      3  N   UNL     1       9.566  13.841  19.697  0.00  0.00    +0.000 N 
ATOM      4  C   UNL     1       9.542  13.222  18.374  0.00  0.00    +0.000 C 
ATOM      5  C   UNL     1      10.610  12.119  18.309  0.00  0.00    +0.000 C 
ATOM      6  N   UNL     1      10.451  11.142  19.409  0.00  0.00    +0.000 NA
ATOM      7  C   UNL     1      10.570  11.846  20.705  0.00  0.00    +0.000 C 
ATOM      8  C   UNL     1       9.487  12.927  20.838  0.00  0.00    +0.000 C 
BRANCH   3  14
ATOM      9 CL   UNL     1       7.421  18.619  20.467  0.00  0.00    +0.000 Cl
ATOM     10  C   UNL     1       8.773  17.510  20.254  0.00  0.00    +0.000 A 
ATOM     11  C   UNL     1      10.063  18.032  20.325  0.00  0.00    +0.000 A 
ATOM     12  C   UNL     1      11.164  17.199  20.183  0.00  0.00    +0.000 A 
ATOM     13  C   UNL     1      10.989  15.836  19.967  0.00  0.00    +0.000 A 
ATOM     14  C   UNL     1       9.698  15.263  19.886  0.00  0.00    +0.000 A 
ATOM     15  C   UNL     1       8.570  16.133  20.040  0.00  0.00    +0.000 A 
ATOM     16 CL   UNL     1       6.896  15.558  20.076  0.00  0.00    +0.000 Cl
ENDBRANCH   3  14
ENDBRANCH   2   6
ENDBRANCH   1   2
BRANCH   1  17
ATOM     17  C   UNL     1       7.574   9.091  17.782  0.00  0.00    +0.000 C 
BRANCH  17  18
ATOM     18  C   UNL     1       7.855   7.596  17.926  0.00  0.00    +0.000 C 
BRANCH  18  19
ATOM     19  N   UNL     1       7.785   6.902  16.664  0.00  0.00    +0.000 N 
ATOM     20  C   UNL     1       6.715   5.997  16.456  0.00  0.00    +0.000 A 
ATOM     21  N   UNL     1       6.542   5.270  15.339  0.00  0.00    +0.000 NA
ATOM     22  O   UNL     1       5.460   4.575  15.559  0.00  0.00    +0.000 OA
ATOM     23  C   UNL     1       4.985   4.856  16.753  0.00  0.00    +0.000 A 
ATOM     24  N   UNL     1       5.759   5.764  17.371  0.00  0.00    +0.000 NA
ATOM     25  H   UNL     1       8.501   7.032  15.935  0.00  0.00    +0.000 HD
BRANCH  23  26
ATOM     26  C   UNL     1       3.773   4.272  17.348  0.00  0.00    +0.000 A 
ATOM     27  C   UNL     1       2.782   5.108  17.884  0.00  0.00    +0.000 A 
ATOM     28  C   UNL     1       1.634   4.559  18.458  0.00  0.00    +0.000 A 
ATOM     29  C   UNL     1       1.462   3.172  18.500  0.00  0.00    +0.000 A 
ATOM     30  C   UNL     1       2.442   2.331  17.965  0.00  0.00    +0.000 A 
ATOM     31  C   UNL     1       3.594   2.876  17.391  0.00  0.00    +0.000 A 
ENDBRANCH  23  26
ENDBRANCH  18  19
ENDBRANCH  17  18
ENDBRANCH   1  17
TORSDOF 7
ENDMDL
MODEL 9
REMARK VINA RESULT:      -7.4      4.943     10.882
REMARK  Name = 
REMARK  7 active torsions:
REMARK  status: ('A' for Active; 'I' for Inactive)
REMARK    1  A    between atoms: C_6  and  N_7
REMARK    2  A    between atoms: N_10  and  C_11
REMARK    3  A    between atoms: C_11  and  C_12
REMARK    4  A    between atoms: C_12  and  C_13
REMARK    5  A    between atoms: C_13  and  C_14
REMARK    6  A    between atoms: C_14  and  N_15
REMARK    7  A    between atoms: C_19  and  C_20
REMARK                            x       y       z     vdW  Elec       q    Type
REMARK                         _______ _______ _______ _____ _____    ______ ____
ROOT
ATOM      1  C   UNL     1       8.593   8.890  19.195  0.00  0.00    +0.000 C 
ENDROOT
BRANCH   1   2
ATOM      2  C   UNL     1       8.990  10.082  18.309  0.00  0.00    +0.000 C 
BRANCH   2   6
ATOM      3  N   UNL     1       9.905  13.452  18.913  0.00  0.00    +0.000 N 
ATOM      4  C   UNL     1      10.018  12.868  17.579  0.00  0.00    +0.000 C 
ATOM      5  C   UNL     1      10.861  11.585  17.655  0.00  0.00    +0.000 C 
ATOM      6  N   UNL     1      10.324  10.640  18.659  0.00  0.00    +0.000 NA
ATOM      7  C   UNL     1      10.323  11.291  19.988  0.00  0.00    +0.000 C 
ATOM      8  C   UNL     1       9.449  12.553  19.975  0.00  0.00    +0.000 C 
BRANCH   3  14
ATOM      9 CL   UNL     1       8.818  18.630  18.723  0.00  0.00    +0.000 Cl
ATOM     10  C   UNL     1       9.811  17.238  19.149  0.00  0.00    +0.000 A 
ATOM     11  C   UNL     1      10.992  17.470  19.850  0.00  0.00    +0.000 A 
ATOM     12  C   UNL     1      11.803  16.408  20.227  0.00  0.00    +0.000 A 
ATOM     13  C   UNL     1      11.443  15.103  19.905  0.00  0.00    +0.000 A 
ATOM     14  C   UNL     1      10.254  14.822  19.192  0.00  0.00    +0.000 A 
ATOM     15  C   UNL     1       9.424  15.926  18.814  0.00  0.00    +0.000 A 
ATOM     16 CL   UNL     1       7.854  15.736  18.018  0.00  0.00    +0.000 Cl
ENDBRANCH   3  14
ENDBRANCH   2   6
ENDBRANCH   1   2
BRANCH   1  17
ATOM     17  C   UNL     1       8.234   7.632  18.391  0.00  0.00    +0.000 C 
BRANCH  17  18
ATOM     18  C   UNL     1       7.079   7.915  17.432  0.00  0.00    +0.000 C 
BRANCH  18  19
ATOM     19  N   UNL     1       6.870   6.841  16.493  0.00  0.00    +0.000 N 
ATOM     20  C   UNL     1       5.810   5.934  16.737  0.00  0.00    +0.000 A 
ATOM     21  N   UNL     1       5.519   4.879  15.958  0.00  0.00    +0.000 NA
ATOM     22  O   UNL     1       4.495   4.312  16.533  0.00  0.00    +0.000 OA
ATOM     23  C   UNL     1       4.167   4.981  17.617  0.00  0.00    +0.000 A 
ATOM     24  N   UNL     1       4.985   6.032  17.794  0.00  0.00    +0.000 NA
ATOM     25  H   UNL     1       7.484   6.711  15.676  0.00  0.00    +0.000 HD
BRANCH  23  26
ATOM     26  C   UNL     1       3.058   4.645  18.524  0.00  0.00    +0.000 A 
ATOM     27  C   UNL     1       2.916   5.328  19.741  0.00  0.00    +0.000 A 
ATOM     28  C   UNL     1       1.871   5.006  20.610  0.00  0.00    +0.000 A 
ATOM     29  C   UNL     1       0.957   4.005  20.271  0.00  0.00    +0.000 A 
ATOM     30  C   UNL     1       1.088   3.321  19.059  0.00  0.00    +0.000 A 
ATOM     31  C   UNL     1       2.134   3.638  18.187  0.00  0.00    +0.000 A 
ENDBRANCH  23  26
ENDBRANCH  18  19
ENDBRANCH  17  18
ENDBRANCH   1  17
TORSDOF 7
ENDMDL
