MODEL 1
REMARK VINA RESULT:      -7.4      0.000      0.000
REMARK  Name = 
REMARK  4 active torsions:
REMARK  status: ('A' for Active; 'I' for Inactive)
REMARK    1  A    between atoms: C_1  and  S_2
REMARK    2  A    between atoms: S_2  and  C_3
REMARK    3  A    between atoms: C_6  and  C_7
REMARK    4  A    between atoms: C_12  and  O_13
REMARK                            x       y       z     vdW  Elec       q    Type
REMARK                         _______ _______ _______ _____ _____    ______ ____
ROOT
ATOM      1  C   UNL     1       2.798   7.093  18.488  0.00  0.00    +0.000 A 
ATOM      2  C   UNL     1       2.454   5.874  18.927  0.00  0.00    +0.000 A 
ATOM      3  C   UNL     1       3.319   4.741  18.635  0.00  0.00    +0.000 A 
ATOM      4  O   UNL     1       3.234   3.687  19.253  0.00  0.00    +0.000 OA
ATOM      5  C   UNL     1       4.237   4.915  17.516  0.00  0.00    +0.000 A 
ATOM      6  C   UNL     1       4.791   3.798  16.885  0.00  0.00    +0.000 A 
ATOM      7  C   UNL     1       5.504   3.969  15.711  0.00  0.00    +0.000 A 
ATOM      8  C   UNL     1       5.695   5.254  15.195  0.00  0.00    +0.000 A 
ATOM      9  C   UNL     1       5.189   6.377  15.867  0.00  0.00    +0.000 A 
ATOM     10  C   UNL     1       4.436   6.207  17.026  0.00  0.00    +0.000 A 
ATOM     11  O   UNL     1       3.875   7.318  17.627  0.00  0.00    +0.000 OA
ENDROOT
BRANCH   1  15
ATOM     12  C   UNL     1       0.115  10.279  19.594  0.00  0.00    +0.000 A 
ATOM     13  C   UNL     1       0.572   9.373  20.544  0.00  0.00    +0.000 A 
ATOM     14  C   UNL     1       1.510   8.405  20.189  0.00  0.00    +0.000 A 
ATOM     15  C   UNL     1       1.969   8.267  18.866  0.00  0.00    +0.000 A 
ATOM     16  C   UNL     1       1.568   9.233  17.936  0.00  0.00    +0.000 A 
ATOM     17  C   UNL     1       0.640  10.225  18.296  0.00  0.00    +0.000 A 
BRANCH  12  19
ATOM     18  C   UNL     1      -1.623  11.985  18.305  0.00  0.00    +0.000 C 
ATOM     19  S   UNL     1      -1.173  11.448  19.976  0.00  0.00    +0.000 S 
ENDBRANCH  12  19
ENDBRANCH   1  15
BRANCH   6  20
ATOM     20  O   UNL     1       4.626   2.531  17.355  0.00  0.00    +0.000 OA
ATOM     21  H   UNL     1       4.462   2.562  18.323  0.00  0.00    +0.000 HD
ENDBRANCH   6  20
TORSDOF 3
ENDMDL
MODEL 2
REMARK VINA RESULT:      -7.3      4.975      5.986
REMARK  Name = 
REMARK  4 active torsions:
REMARK  status: ('A' for Active; 'I' for Inactive)
REMARK    1  A    between atoms: C_1  and  S_2
REMARK    2  A    between atoms: S_2  and  C_3
REMARK    3  A    between atoms: C_6  and  C_7
REMARK    4  A    between atoms: C_12  and  O_13
REMARK                            x       y       z     vdW  Elec       q    Type
REMARK                         _______ _______ _______ _____ _____    ______ ____
ROOT
ATOM      1  C   UNL     1       4.965   4.249  16.341  0.00  0.00    +0.000 A 
ATOM      2  C   UNL     1       6.097   4.884  16.678  0.00  0.00    +0.000 A 
ATOM      3  C   UNL     1       6.930   5.459  15.633  0.00  0.00    +0.000 A 
ATOM      4  O   UNL     1       7.786   6.299  15.879  0.00  0.00    +0.000 OA
ATOM      5  C   UNL     1       6.732   4.918  14.294  0.00  0.00    +0.000 A 
ATOM      6  C   UNL     1       7.727   5.068  13.324  0.00  0.00    +0.000 A 
ATOM      7  C   UNL     1       7.610   4.389  12.124  0.00  0.00    +0.000 A 
ATOM      8  C   UNL     1       6.484   3.596  11.882  0.00  0.00    +0.000 A 
ATOM      9  C   UNL     1       5.459   3.499  12.834  0.00  0.00    +0.000 A 
ATOM     10  C   UNL     1       5.592   4.148  14.060  0.00  0.00    +0.000 A 
ATOM     11  O   UNL     1       4.611   3.972  15.019  0.00  0.00    +0.000 OA
ENDROOT
BRANCH   1  15
ATOM     12  C   UNL     1       2.187   3.107  19.431  0.00  0.00    +0.000 A 
ATOM     13  C   UNL     1       1.798   3.124  18.097  0.00  0.00    +0.000 A 
ATOM     14  C   UNL     1       2.732   3.406  17.102  0.00  0.00    +0.000 A 
ATOM     15  C   UNL     1       4.063   3.746  17.409  0.00  0.00    +0.000 A 
ATOM     16  C   UNL     1       4.466   3.647  18.745  0.00  0.00    +0.000 A 
ATOM     17  C   UNL     1       3.532   3.339  19.750  0.00  0.00    +0.000 A 
BRANCH  12  19
ATOM     18  C   UNL     1       2.098   2.910  22.178  0.00  0.00    +0.000 C 
ATOM     19  S   UNL     1       1.000   2.874  20.738  0.00  0.00    +0.000 S 
ENDBRANCH  12  19
ENDBRANCH   1  15
BRANCH   6  20
ATOM     20  O   UNL     1       8.839   5.829  13.523  0.00  0.00    +0.000 OA
ATOM     21  H   UNL     1       9.445   5.364  14.141  0.00  0.00    +0.000 HD
ENDBRANCH   6  20
TORSDOF 3
ENDMDL
MODEL 3
REMARK VINA RESULT:      -7.3      0.462      1.170
REMARK  Name = 
REMARK  4 active torsions:
REMARK  status: ('A' for Active; 'I' for Inactive)
REMARK    1  A    between atoms: C_1  and  S_2
REMARK    2  A    between atoms: S_2  and  C_3
REMARK    3  A    between atoms: C_6  and  C_7
REMARK    4  A    between atoms: C_12  and  O_13
REMARK                            x       y       z     vdW  Elec       q    Type
REMARK                         _______ _______ _______ _____ _____    ______ ____
ROOT
ATOM      1  C   UNL     1       2.757   7.084  18.558  0.00  0.00    +0.000 A 
ATOM      2  C   UNL     1       2.436   5.851  18.976  0.00  0.00    +0.000 A 
ATOM      3  C   UNL     1       3.320   4.739  18.660  0.00  0.00    +0.000 A 
ATOM      4  O   UNL     1       3.256   3.673  19.259  0.00  0.00    +0.000 OA
ATOM      5  C   UNL     1       4.230   4.949  17.541  0.00  0.00    +0.000 A 
ATOM      6  C   UNL     1       4.801   3.854  16.888  0.00  0.00    +0.000 A 
ATOM      7  C   UNL     1       5.506   4.059  15.714  0.00  0.00    +0.000 A 
ATOM      8  C   UNL     1       5.672   5.357  15.221  0.00  0.00    +0.000 A 
ATOM      9  C   UNL     1       5.149   6.458  15.915  0.00  0.00    +0.000 A 
ATOM     10  C   UNL     1       4.404   6.254  17.074  0.00  0.00    +0.000 A 
ATOM     11  O   UNL     1       3.826   7.344  17.697  0.00  0.00    +0.000 OA
ENDROOT
BRANCH   1  15
ATOM     12  C   UNL     1       0.593  10.624  19.722  0.00  0.00    +0.000 A 
ATOM     13  C   UNL     1       0.971  10.425  18.399  0.00  0.00    +0.000 A 
ATOM     14  C   UNL     1       1.589   9.234  18.022  0.00  0.00    +0.000 A 
ATOM     15  C   UNL     1       1.910   8.236  18.961  0.00  0.00    +0.000 A 
ATOM     16  C   UNL     1       1.453   8.408  20.273  0.00  0.00    +0.000 A 
ATOM     17  C   UNL     1       0.808   9.599  20.651  0.00  0.00    +0.000 A 
BRANCH  12  19
ATOM     18  C   UNL     1      -0.689  12.833  18.689  0.00  0.00    +0.000 C 
ATOM     19  S   UNL     1      -0.085  12.178  20.266  0.00  0.00    +0.000 S 
ENDBRANCH  12  19
ENDBRANCH   1  15
BRANCH   6  20
ATOM     20  O   UNL     1       4.660   2.576  17.335  0.00  0.00    +0.000 OA
ATOM     21  H   UNL     1       5.061   2.498  18.229  0.00  0.00    +0.000 HD
ENDBRANCH   6  20
TORSDOF 3
ENDMDL
MODEL 4
REMARK VINA RESULT:      -7.3      1.001      1.668
REMARK  Name = 
REMARK  4 active torsions:
REMARK  status: ('A' for Active; 'I' for Inactive)
REMARK    1  A    between atoms: C_1  and  S_2
REMARK    2  A    between atoms: S_2  and  C_3
REMARK    3  A    between atoms: C_6  and  C_7
REMARK    4  A    between atoms: C_12  and  O_13
REMARK                            x       y       z     vdW  Elec       q    Type
REMARK                         _______ _______ _______ _____ _____    ______ ____
ROOT
ATOM      1  C   UNL     1       2.714   6.883  19.014  0.00  0.00    +0.000 A 
ATOM      2  C   UNL     1       2.466   5.604  19.338  0.00  0.00    +0.000 A 
ATOM      3  C   UNL     1       3.365   4.563  18.864  0.00  0.00    +0.000 A 
ATOM      4  O   UNL     1       3.381   3.446  19.366  0.00  0.00    +0.000 OA
ATOM      5  C   UNL     1       4.187   4.910  17.711  0.00  0.00    +0.000 A 
ATOM      6  C   UNL     1       4.750   3.901  16.924  0.00  0.00    +0.000 A 
ATOM      7  C   UNL     1       5.364   4.239  15.730  0.00  0.00    +0.000 A 
ATOM      8  C   UNL     1       5.448   5.581  15.348  0.00  0.00    +0.000 A 
ATOM      9  C   UNL     1       4.937   6.594  16.172  0.00  0.00    +0.000 A 
ATOM     10  C   UNL     1       4.282   6.256  17.354  0.00  0.00    +0.000 A 
ATOM     11  O   UNL     1       3.710   7.262  18.112  0.00  0.00    +0.000 OA
ENDROOT
BRANCH   1  15
ATOM     12  C   UNL     1       0.517  10.201  20.668  0.00  0.00    +0.000 A 
ATOM     13  C   UNL     1       0.899  10.196  19.331  0.00  0.00    +0.000 A 
ATOM     14  C   UNL     1       1.528   9.077  18.790  0.00  0.00    +0.000 A 
ATOM     15  C   UNL     1       1.856   7.957  19.576  0.00  0.00    +0.000 A 
ATOM     16  C   UNL     1       1.396   7.936  20.898  0.00  0.00    +0.000 A 
ATOM     17  C   UNL     1       0.740   9.054  21.442  0.00  0.00    +0.000 A 
BRANCH  12  19
ATOM     18  C   UNL     1      -0.972  10.912  22.874  0.00  0.00    +0.000 C 
ATOM     19  S   UNL     1      -0.174  11.655  21.427  0.00  0.00    +0.000 S 
ENDBRANCH  12  19
ENDBRANCH   1  15
BRANCH   6  20
ATOM     20  O   UNL     1       4.686   2.584  17.261  0.00  0.00    +0.000 OA
ATOM     21  H   UNL     1       3.779   2.247  17.089  0.00  0.00    +0.000 HD
ENDBRANCH   6  20
TORSDOF 3
ENDMDL
MODEL 5
REMARK VINA RESULT:      -7.2      2.092      2.737
REMARK  Name = 
REMARK  4 active torsions:
REMARK  status: ('A' for Active; 'I' for Inactive)
REMARK    1  A    between atoms: C_1  and  S_2
REMARK    2  A    between atoms: S_2  and  C_3
REMARK    3  A    between atoms: C_6  and  C_7
REMARK    4  A    between atoms: C_12  and  O_13
REMARK                            x       y       z     vdW  Elec       q    Type
REMARK                         _______ _______ _______ _____ _____    ______ ____
ROOT
ATOM      1  C   UNL     1       2.759   6.447  18.856  0.00  0.00    +0.000 A 
ATOM      2  C   UNL     1       3.952   6.173  19.404  0.00  0.00    +0.000 A 
ATOM      3  C   UNL     1       4.514   4.838  19.255  0.00  0.00    +0.000 A 
ATOM      4  O   UNL     1       5.702   4.613  19.450  0.00  0.00    +0.000 OA
ATOM      5  C   UNL     1       3.563   3.781  18.936  0.00  0.00    +0.000 A 
ATOM      6  C   UNL     1       3.892   2.446  19.186  0.00  0.00    +0.000 A 
ATOM      7  C   UNL     1       2.914   1.474  19.058  0.00  0.00    +0.000 A 
ATOM      8  C   UNL     1       1.627   1.834  18.646  0.00  0.00    +0.000 A 
ATOM      9  C   UNL     1       1.320   3.167  18.337  0.00  0.00    +0.000 A 
ATOM     10  C   UNL     1       2.289   4.154  18.503  0.00  0.00    +0.000 A 
ATOM     11  O   UNL     1       1.944   5.473  18.275  0.00  0.00    +0.000 OA
ENDROOT
BRANCH   1  15
ATOM     12  C   UNL     1       0.891  10.328  19.009  0.00  0.00    +0.000 A 
ATOM     13  C   UNL     1       0.889   9.493  20.121  0.00  0.00    +0.000 A 
ATOM     14  C   UNL     1       1.575   8.282  20.084  0.00  0.00    +0.000 A 
ATOM     15  C   UNL     1       2.227   7.833  18.921  0.00  0.00    +0.000 A 
ATOM     16  C   UNL     1       2.295   8.713  17.835  0.00  0.00    +0.000 A 
ATOM     17  C   UNL     1       1.623   9.947  17.876  0.00  0.00    +0.000 A 
BRANCH  12  19
ATOM     18  C   UNL     1      -1.539  11.236  18.081  0.00  0.00    +0.000 C 
ATOM     19  S   UNL     1      -0.075  11.823  18.972  0.00  0.00    +0.000 S 
ENDBRANCH  12  19
ENDBRANCH   1  15
BRANCH   6  20
ATOM     20  O   UNL     1       5.132   2.057  19.591  0.00  0.00    +0.000 OA
ATOM     21  H   UNL     1       5.696   2.851  19.718  0.00  0.00    +0.000 HD
ENDBRANCH   6  20
TORSDOF 3
ENDMDL
MODEL 6
REMARK VINA RESULT:      -7.2      1.498      2.533
REMARK  Name = 
REMARK  4 active torsions:
REMARK  status: ('A' for Active; 'I' for Inactive)
REMARK    1  A    between atoms: C_1  and  S_2
REMARK    2  A    between atoms: S_2  and  C_3
REMARK    3  A    between atoms: C_6  and  C_7
REMARK    4  A    between atoms: C_12  and  O_13
REMARK                            x       y       z     vdW  Elec       q    Type
REMARK                         _______ _______ _______ _____ _____    ______ ____
ROOT
ATOM      1  C   UNL     1       2.574   6.969  18.200  0.00  0.00    +0.000 A 
ATOM      2  C   UNL     1       3.849   6.955  17.784  0.00  0.00    +0.000 A 
ATOM      3  C   UNL     1       4.373   5.762  17.135  0.00  0.00    +0.000 A 
ATOM      4  O   UNL     1       5.399   5.789  16.468  0.00  0.00    +0.000 OA
ATOM      5  C   UNL     1       3.643   4.527  17.391  0.00  0.00    +0.000 A 
ATOM      6  C   UNL     1       4.265   3.292  17.190  0.00  0.00    +0.000 A 
ATOM      7  C   UNL     1       3.630   2.138  17.617  0.00  0.00    +0.000 A 
ATOM      8  C   UNL     1       2.364   2.219  18.204  0.00  0.00    +0.000 A 
ATOM      9  C   UNL     1       1.718   3.456  18.347  0.00  0.00    +0.000 A 
ATOM     10  C   UNL     1       2.370   4.623  17.957  0.00  0.00    +0.000 A 
ATOM     11  O   UNL     1       1.753   5.840  18.182  0.00  0.00    +0.000 OA
ENDROOT
BRANCH   1  15
ATOM     12  C   UNL     1       0.613  10.429  19.861  0.00  0.00    +0.000 A 
ATOM     13  C   UNL     1       0.904   9.326  20.656  0.00  0.00    +0.000 A 
ATOM     14  C   UNL     1       1.619   8.254  20.127  0.00  0.00    +0.000 A 
ATOM     15  C   UNL     1       2.007   8.217  18.775  0.00  0.00    +0.000 A 
ATOM     16  C   UNL     1       1.784   9.363  18.004  0.00  0.00    +0.000 A 
ATOM     17  C   UNL     1       1.082  10.457  18.541  0.00  0.00    +0.000 A 
BRANCH  12  19
ATOM     18  C   UNL     1      -0.624  11.243  22.184  0.00  0.00    +0.000 C 
ATOM     19  S   UNL     1      -0.405  11.760  20.462  0.00  0.00    +0.000 S 
ENDBRANCH  12  19
ENDBRANCH   1  15
BRANCH   6  20
ATOM     20  O   UNL     1       5.497   3.173  16.623  0.00  0.00    +0.000 OA
ATOM     21  H   UNL     1       6.026   3.976  16.824  0.00  0.00    +0.000 HD
ENDBRANCH   6  20
TORSDOF 3
ENDMDL
MODEL 7
REMARK VINA RESULT:      -7.1      3.885      7.827
REMARK  Name = 
REMARK  4 active torsions:
REMARK  status: ('A' for Active; 'I' for Inactive)
REMARK    1  A    between atoms: C_1  and  S_2
REMARK    2  A    between atoms: S_2  and  C_3
REMARK    3  A    between atoms: C_6  and  C_7
REMARK    4  A    between atoms: C_12  and  O_13
REMARK                            x       y       z     vdW  Elec       q    Type
REMARK                         _______ _______ _______ _____ _____    ______ ____
ROOT
ATOM      1  C   UNL     1       1.640   7.942  20.268  0.00  0.00    +0.000 A 
ATOM      2  C   UNL     1       1.459   8.796  19.249  0.00  0.00    +0.000 A 
ATOM      3  C   UNL     1       1.047  10.163  19.529  0.00  0.00    +0.000 A 
ATOM      4  O   UNL     1       1.166  11.056  18.700  0.00  0.00    +0.000 OA
ATOM      5  C   UNL     1       0.419  10.383  20.826  0.00  0.00    +0.000 A 
ATOM      6  C   UNL     1      -0.380  11.511  21.034  0.00  0.00    +0.000 A 
ATOM      7  C   UNL     1      -1.121  11.608  22.199  0.00  0.00    +0.000 A 
ATOM      8  C   UNL     1      -1.031  10.603  23.166  0.00  0.00    +0.000 A 
ATOM      9  C   UNL     1      -0.180   9.504  22.979  0.00  0.00    +0.000 A 
ATOM     10  C   UNL     1       0.536   9.380  21.791  0.00  0.00    +0.000 A 
ATOM     11  O   UNL     1       1.305   8.249  21.588  0.00  0.00    +0.000 OA
ENDROOT
BRANCH   1  15
ATOM     12  C   UNL     1       3.325   4.007  19.769  0.00  0.00    +0.000 A 
ATOM     13  C   UNL     1       2.297   4.230  20.678  0.00  0.00    +0.000 A 
ATOM     14  C   UNL     1       1.701   5.487  20.762  0.00  0.00    +0.000 A 
ATOM     15  C   UNL     1       2.154   6.575  19.994  0.00  0.00    +0.000 A 
ATOM     16  C   UNL     1       3.131   6.323  19.024  0.00  0.00    +0.000 A 
ATOM     17  C   UNL     1       3.719   5.050  18.921  0.00  0.00    +0.000 A 
BRANCH  12  19
ATOM     18  C   UNL     1       3.437   1.711  18.251  0.00  0.00    +0.000 C 
ATOM     19  S   UNL     1       4.194   2.454  19.719  0.00  0.00    +0.000 S 
ENDBRANCH  12  19
ENDBRANCH   1  15
BRANCH   6  20
ATOM     20  O   UNL     1      -0.496  12.509  20.116  0.00  0.00    +0.000 OA
ATOM     21  H   UNL     1      -0.875  13.306  20.548  0.00  0.00    +0.000 HD
ENDBRANCH   6  20
TORSDOF 3
ENDMDL
MODEL 8
REMARK VINA RESULT:      -7.0      2.089      3.398
REMARK  Name = 
REMARK  4 active torsions:
REMARK  status: ('A' for Active; 'I' for Inactive)
REMARK    1  A    between atoms: C_1  and  S_2
REMARK    2  A    between atoms: S_2  and  C_3
REMARK    3  A    between atoms: C_6  and  C_7
REMARK    4  A    between atoms: C_12  and  O_13
REMARK                            x       y       z     vdW  Elec       q    Type
REMARK                         _______ _______ _______ _____ _____    ______ ____
ROOT
ATOM      1  C   UNL     1       1.955   7.015  19.956  0.00  0.00    +0.000 A 
ATOM      2  C   UNL     1       2.895   6.950  19.001  0.00  0.00    +0.000 A 
ATOM      3  C   UNL     1       3.359   5.649  18.545  0.00  0.00    +0.000 A 
ATOM      4  O   UNL     1       3.964   5.513  17.490  0.00  0.00    +0.000 OA
ATOM      5  C   UNL     1       3.125   4.536  19.457  0.00  0.00    +0.000 A 
ATOM      6  C   UNL     1       3.876   3.364  19.338  0.00  0.00    +0.000 A 
ATOM      7  C   UNL     1       3.779   2.396  20.323  0.00  0.00    +0.000 A 
ATOM      8  C   UNL     1       2.905   2.584  21.398  0.00  0.00    +0.000 A 
ATOM      9  C   UNL     1       2.108   3.735  21.480  0.00  0.00    +0.000 A 
ATOM     10  C   UNL     1       2.232   4.731  20.513  0.00  0.00    +0.000 A 
ATOM     11  O   UNL     1       1.500   5.895  20.655  0.00  0.00    +0.000 OA
ENDROOT
BRANCH   1  15
ATOM     12  C   UNL     1       0.051  10.697  21.135  0.00  0.00    +0.000 A 
ATOM     13  C   UNL     1       0.349   9.717  22.076  0.00  0.00    +0.000 A 
ATOM     14  C   UNL     1       1.046   8.573  21.694  0.00  0.00    +0.000 A 
ATOM     15  C   UNL     1       1.409   8.338  20.355  0.00  0.00    +0.000 A 
ATOM     16  C   UNL     1       1.179   9.363  19.431  0.00  0.00    +0.000 A 
ATOM     17  C   UNL     1       0.496  10.530  19.817  0.00  0.00    +0.000 A 
BRANCH  12  19
ATOM     18  C   UNL     1      -1.669  11.540  23.116  0.00  0.00    +0.000 C 
ATOM     19  S   UNL     1      -0.945  12.111  21.556  0.00  0.00    +0.000 S 
ENDBRANCH  12  19
ENDBRANCH   1  15
BRANCH   6  20
ATOM     20  O   UNL     1       4.738   3.144  18.308  0.00  0.00    +0.000 OA
ATOM     21  H   UNL     1       5.140   3.998  18.033  0.00  0.00    +0.000 HD
ENDBRANCH   6  20
TORSDOF 3
ENDMDL
MODEL 9
REMARK VINA RESULT:      -7.0      1.905      3.245
REMARK  Name = 
REMARK  4 active torsions:
REMARK  status: ('A' for Active; 'I' for Inactive)
REMARK    1  A    between atoms: C_1  and  S_2
REMARK    2  A    between atoms: S_2  and  C_3
REMARK    3  A    between atoms: C_6  and  C_7
REMARK    4  A    between atoms: C_12  and  O_13
REMARK                            x       y       z     vdW  Elec       q    Type
REMARK                         _______ _______ _______ _____ _____    ______ ____
ROOT
ATOM      1  C   UNL     1       2.444   6.670  19.230  0.00  0.00    +0.000 A 
ATOM      2  C   UNL     1       3.612   6.339  18.659  0.00  0.00    +0.000 A 
ATOM      3  C   UNL     1       4.020   4.942  18.629  0.00  0.00    +0.000 A 
ATOM      4  O   UNL     1       4.893   4.541  17.871  0.00  0.00    +0.000 OA
ATOM      5  C   UNL     1       3.380   4.073  19.608  0.00  0.00    +0.000 A 
ATOM      6  C   UNL     1       3.974   2.858  19.960  0.00  0.00    +0.000 A 
ATOM      7  C   UNL     1       3.460   2.137  21.024  0.00  0.00    +0.000 A 
ATOM      8  C   UNL     1       2.335   2.611  21.705  0.00  0.00    +0.000 A 
ATOM      9  C   UNL     1       1.705   3.800  21.308  0.00  0.00    +0.000 A 
ATOM     10  C   UNL     1       2.243   4.549  20.264  0.00  0.00    +0.000 A 
ATOM     11  O   UNL     1       1.659   5.760  19.942  0.00  0.00    +0.000 OA
ENDROOT
BRANCH   1  15
ATOM     12  C   UNL     1       0.760  10.632  19.047  0.00  0.00    +0.000 A 
ATOM     13  C   UNL     1       0.716   9.895  20.225  0.00  0.00    +0.000 A 
ATOM     14  C   UNL     1       1.345   8.653  20.294  0.00  0.00    +0.000 A 
ATOM     15  C   UNL     1       1.978   8.079  19.175  0.00  0.00    +0.000 A 
ATOM     16  C   UNL     1       2.089   8.861  18.020  0.00  0.00    +0.000 A 
ATOM     17  C   UNL     1       1.475  10.124  17.955  0.00  0.00    +0.000 A 
BRANCH  12  19
ATOM     18  C   UNL     1      -1.606  11.578  18.000  0.00  0.00    +0.000 C 
ATOM     19  S   UNL     1      -0.135  12.162  18.881  0.00  0.00    +0.000 S 
ENDBRANCH  12  19
ENDBRANCH   1  15
BRANCH   6  20
ATOM     20  O   UNL     1       5.072   2.365  19.324  0.00  0.00    +0.000 OA
ATOM     21  H   UNL     1       5.349   1.527  19.755  0.00  0.00    +0.000 HD
ENDBRANCH   6  20
TORSDOF 3
ENDMDL
