MODEL 1
REMARK VINA RESULT:      -8.2      0.000      0.000
REMARK  Name = 
REMARK  9 active torsions:
REMARK  status: ('A' for Active; 'I' for Inactive)
REMARK    1  A    between atoms: C_1  and  O_2
REMARK    2  A    between atoms: O_2  and  C_3
REMARK    3  A    between atoms: N_11  and  C_12
REMARK    4  A    between atoms: C_12  and  C_13
REMARK    5  A    between atoms: C_13  and  N_14
REMARK    6  A    between atoms: N_14  and  C_15
REMARK    7  A    between atoms: N_14  and  C_16
REMARK    8  A    between atoms: C_21  and  O_22
REMARK    9  A    between atoms: O_22  and  C_23
REMARK                            x       y       z     vdW  Elec       q    Type
REMARK                         _______ _______ _______ _____ _____    ______ ____
ROOT
ATOM      1  C   UNL     1       5.150   5.336  16.451  0.00  0.00    +0.000 A 
ATOM      2  C   UNL     1       5.024   4.304  17.376  0.00  0.00    +0.000 A 
ATOM      3  C   UNL     1       4.223   4.448  18.518  0.00  0.00    +0.000 A 
ATOM      4  C   UNL     1       3.549   5.664  18.731  0.00  0.00    +0.000 A 
ATOM      5  C   UNL     1       3.669   6.709  17.816  0.00  0.00    +0.000 A 
ATOM      6  C   UNL     1       4.473   6.540  16.669  0.00  0.00    +0.000 A 
ATOM      7  C   UNL     1       2.868   7.767  18.298  0.00  0.00    +0.000 A 
ATOM      8  C   UNL     1       2.299   7.401  19.511  0.00  0.00    +0.000 A 
ATOM      9  N   UNL     1       2.685   6.087  19.746  0.00  0.00    +0.000 N 
ATOM     10  C   UNL     1       1.376   8.313  20.224  0.00  0.00    +0.000 A 
ATOM     11  C   UNL     1       1.093   8.238  21.589  0.00  0.00    +0.000 A 
ATOM     12  C   UNL     1       0.183   9.127  22.173  0.00  0.00    +0.000 A 
ATOM     13  C   UNL     1      -0.436  10.120  21.413  0.00  0.00    +0.000 A 
ATOM     14  C   UNL     1      -0.124  10.266  20.062  0.00  0.00    +0.000 A 
ATOM     15  C   UNL     1       0.799   9.378  19.469  0.00  0.00    +0.000 A 
ATOM     16  C   UNL     1       1.151   9.525  17.990  0.00  0.00    +0.000 C 
ATOM     17  C   UNL     1       2.591   9.093  17.681  0.00  0.00    +0.000 C 
ENDROOT
BRANCH   1  19
ATOM     18  C   UNL     1       6.000   4.050  14.641  0.00  0.00    +0.000 C 
ATOM     19  O   UNL     1       5.897   5.304  15.305  0.00  0.00    +0.000 OA
ENDBRANCH   1  19
BRANCH  14  20
ATOM     20  O   UNL     1      -0.655  11.227  19.240  0.00  0.00    +0.000 OA
ATOM     21  C   UNL     1      -0.442  12.590  19.588  0.00  0.00    +0.000 C 
ENDBRANCH  14  20
BRANCH   9  22
ATOM     22  C   UNL     1       2.236   5.197  20.817  0.00  0.00    +0.000 C 
BRANCH  22  23
ATOM     23  C   UNL     1       1.004   4.368  20.421  0.00  0.00    +0.000 C 
BRANCH  23  24
ATOM     24  N   UNL     1       1.125   2.904  20.624  0.00  0.00    +0.000 NA
ATOM     25  C   UNL     1       1.366   2.268  19.319  0.00  0.00    +0.000 C 
ATOM     26  C   UNL     1       2.225   2.554  21.528  0.00  0.00    +0.000 C 
ENDBRANCH  23  24
ENDBRANCH  22  23
ENDBRANCH   9  22
TORSDOF 5
ENDMDL
MODEL 2
REMARK VINA RESULT:      -7.2      1.092      1.305
REMARK  Name = 
REMARK  9 active torsions:
REMARK  status: ('A' for Active; 'I' for Inactive)
REMARK    1  A    between atoms: C_1  and  O_2
REMARK    2  A    between atoms: O_2  and  C_3
REMARK    3  A    between atoms: N_11  and  C_12
REMARK    4  A    between atoms: C_12  and  C_13
REMARK    5  A    between atoms: C_13  and  N_14
REMARK    6  A    between atoms: N_14  and  C_15
REMARK    7  A    between atoms: N_14  and  C_16
REMARK    8  A    between atoms: C_21  and  O_22
REMARK    9  A    between atoms: O_22  and  C_23
REMARK                            x       y       z     vdW  Elec       q    Type
REMARK                         _______ _______ _______ _____ _____    ______ ____
ROOT
ATOM      1  C   UNL     1       6.156   5.464  16.471  0.00  0.00    +0.000 A 
ATOM      2  C   UNL     1       6.012   4.387  17.341  0.00  0.00    +0.000 A 
ATOM      3  C   UNL     1       5.073   4.418  18.383  0.00  0.00    +0.000 A 
ATOM      4  C   UNL     1       4.277   5.566  18.551  0.00  0.00    +0.000 A 
ATOM      5  C   UNL     1       4.414   6.655  17.691  0.00  0.00    +0.000 A 
ATOM      6  C   UNL     1       5.358   6.599  16.644  0.00  0.00    +0.000 A 
ATOM      7  C   UNL     1       3.475   7.623  18.105  0.00  0.00    +0.000 A 
ATOM      8  C   UNL     1       2.800   7.162  19.229  0.00  0.00    +0.000 A 
ATOM      9  N   UNL     1       3.267   5.875  19.467  0.00  0.00    +0.000 N 
ATOM     10  C   UNL     1       1.725   7.966  19.854  0.00  0.00    +0.000 A 
ATOM     11  C   UNL     1       1.291   7.812  21.172  0.00  0.00    +0.000 A 
ATOM     12  C   UNL     1       0.247   8.599  21.670  0.00  0.00    +0.000 A 
ATOM     13  C   UNL     1      -0.362   9.570  20.873  0.00  0.00    +0.000 A 
ATOM     14  C   UNL     1       0.094   9.796  19.574  0.00  0.00    +0.000 A 
ATOM     15  C   UNL     1       1.152   9.011  19.069  0.00  0.00    +0.000 A 
ATOM     16  C   UNL     1       1.662   9.248  17.648  0.00  0.00    +0.000 C 
ATOM     17  C   UNL     1       3.160   8.947  17.502  0.00  0.00    +0.000 C 
ENDROOT
BRANCH   1  19
ATOM     18  C   UNL     1       6.794   4.672  14.322  0.00  0.00    +0.000 C 
ATOM     19  O   UNL     1       7.033   5.540  15.423  0.00  0.00    +0.000 OA
ENDBRANCH   1  19
BRANCH  14  20
ATOM     20  O   UNL     1      -0.417  10.744  18.725  0.00  0.00    +0.000 OA
ATOM     21  C   UNL     1      -1.770  10.603  18.307  0.00  0.00    +0.000 C 
ENDBRANCH  14  20
BRANCH   9  22
ATOM     22  C   UNL     1       2.773   4.909  20.448  0.00  0.00    +0.000 C 
BRANCH  22  23
ATOM     23  C   UNL     1       1.492   4.196  19.984  0.00  0.00    +0.000 C 
BRANCH  23  24
ATOM     24  N   UNL     1       1.637   3.335  18.786  0.00  0.00    +0.000 NA
ATOM     25  C   UNL     1       0.733   2.182  18.925  0.00  0.00    +0.000 C 
ATOM     26  C   UNL     1       1.307   4.043  17.545  0.00  0.00    +0.000 C 
ENDBRANCH  23  24
ENDBRANCH  22  23
ENDBRANCH   9  22
TORSDOF 5
ENDMDL
MODEL 3
REMARK VINA RESULT:      -6.9      0.867      6.233
REMARK  Name = 
REMARK  9 active torsions:
REMARK  status: ('A' for Active; 'I' for Inactive)
REMARK    1  A    between atoms: C_1  and  O_2
REMARK    2  A    between atoms: O_2  and  C_3
REMARK    3  A    between atoms: N_11  and  C_12
REMARK    4  A    between atoms: C_12  and  C_13
REMARK    5  A    between atoms: C_13  and  N_14
REMARK    6  A    between atoms: N_14  and  C_15
REMARK    7  A    between atoms: N_14  and  C_16
REMARK    8  A    between atoms: C_21  and  O_22
REMARK    9  A    between atoms: O_22  and  C_23
REMARK                            x       y       z     vdW  Elec       q    Type
REMARK                         _______ _______ _______ _____ _____    ______ ____
ROOT
ATOM      1  C   UNL     1       0.660  10.177  20.323  0.00  0.00    +0.000 A 
ATOM      2  C   UNL     1       0.363   9.281  21.345  0.00  0.00    +0.000 A 
ATOM      3  C   UNL     1       0.823   7.956  21.305  0.00  0.00    +0.000 A 
ATOM      4  C   UNL     1       1.587   7.532  20.202  0.00  0.00    +0.000 A 
ATOM      5  C   UNL     1       1.888   8.416  19.167  0.00  0.00    +0.000 A 
ATOM      6  C   UNL     1       1.423   9.747  19.233  0.00  0.00    +0.000 A 
ATOM      7  C   UNL     1       2.672   7.702  18.236  0.00  0.00    +0.000 A 
ATOM      8  C   UNL     1       2.815   6.388  18.663  0.00  0.00    +0.000 A 
ATOM      9  N   UNL     1       2.184   6.305  19.898  0.00  0.00    +0.000 N 
ATOM     10  C   UNL     1       3.628   5.421  17.889  0.00  0.00    +0.000 A 
ATOM     11  C   UNL     1       3.501   4.035  17.982  0.00  0.00    +0.000 A 
ATOM     12  C   UNL     1       4.334   3.196  17.232  0.00  0.00    +0.000 A 
ATOM     13  C   UNL     1       5.285   3.726  16.358  0.00  0.00    +0.000 A 
ATOM     14  C   UNL     1       5.391   5.106  16.192  0.00  0.00    +0.000 A 
ATOM     15  C   UNL     1       4.548   5.957  16.938  0.00  0.00    +0.000 A 
ATOM     16  C   UNL     1       4.652   7.471  16.766  0.00  0.00    +0.000 C 
ATOM     17  C   UNL     1       3.309   8.183  16.978  0.00  0.00    +0.000 C 
ENDROOT
BRANCH   1  19
ATOM     18  C   UNL     1      -0.740  11.811  19.311  0.00  0.00    +0.000 C 
ATOM     19  O   UNL     1       0.269  11.487  20.261  0.00  0.00    +0.000 OA
ENDBRANCH   1  19
BRANCH  14  20
ATOM     20  O   UNL     1       6.270   5.721  15.338  0.00  0.00    +0.000 OA
ATOM     21  C   UNL     1       6.931   4.914  14.370  0.00  0.00    +0.000 C 
ENDBRANCH  14  20
BRANCH   9  22
ATOM     22  C   UNL     1       2.174   5.174  20.826  0.00  0.00    +0.000 C 
BRANCH  22  23
ATOM     23  C   UNL     1       0.978   4.235  20.600  0.00  0.00    +0.000 C 
BRANCH  23  24
ATOM     24  N   UNL     1       1.234   2.798  20.859  0.00  0.00    +0.000 NA
ATOM     25  C   UNL     1       1.224   2.081  19.574  0.00  0.00    +0.000 C 
ATOM     26  C   UNL     1       2.525   2.569  21.515  0.00  0.00    +0.000 C 
ENDBRANCH  23  24
ENDBRANCH  22  23
ENDBRANCH   9  22
TORSDOF 5
ENDMDL
MODEL 4
REMARK VINA RESULT:      -6.9      3.525      8.765
REMARK  Name = 
REMARK  9 active torsions:
REMARK  status: ('A' for Active; 'I' for Inactive)
REMARK    1  A    between atoms: C_1  and  O_2
REMARK    2  A    between atoms: O_2  and  C_3
REMARK    3  A    between atoms: N_11  and  C_12
REMARK    4  A    between atoms: C_12  and  C_13
REMARK    5  A    between atoms: C_13  and  N_14
REMARK    6  A    between atoms: N_14  and  C_15
REMARK    7  A    between atoms: N_14  and  C_16
REMARK    8  A    between atoms: C_21  and  O_22
REMARK    9  A    between atoms: O_22  and  C_23
REMARK                            x       y       z     vdW  Elec       q    Type
REMARK                         _______ _______ _______ _____ _____    ______ ____
ROOT
ATOM      1  C   UNL     1      -2.961  13.068  23.182  0.00  0.00    +0.000 A 
ATOM      2  C   UNL     1      -3.266  13.763  22.015  0.00  0.00    +0.000 A 
ATOM      3  C   UNL     1      -2.660  13.432  20.795  0.00  0.00    +0.000 A 
ATOM      4  C   UNL     1      -1.719  12.387  20.761  0.00  0.00    +0.000 A 
ATOM      5  C   UNL     1      -1.398  11.685  21.921  0.00  0.00    +0.000 A 
ATOM      6  C   UNL     1      -2.028  12.028  23.137  0.00  0.00    +0.000 A 
ATOM      7  C   UNL     1      -0.454  10.702  21.556  0.00  0.00    +0.000 A 
ATOM      8  C   UNL     1      -0.160  10.823  20.204  0.00  0.00    +0.000 A 
ATOM      9  N   UNL     1      -0.979  11.832  19.712  0.00  0.00    +0.000 N 
ATOM     10  C   UNL     1       0.779   9.887  19.543  0.00  0.00    +0.000 A 
ATOM     11  C   UNL     1       1.450  10.158  18.350  0.00  0.00    +0.000 A 
ATOM     12  C   UNL     1       2.299   9.200  17.782  0.00  0.00    +0.000 A 
ATOM     13  C   UNL     1       2.513   7.971  18.409  0.00  0.00    +0.000 A 
ATOM     14  C   UNL     1       1.911   7.697  19.637  0.00  0.00    +0.000 A 
ATOM     15  C   UNL     1       1.061   8.662  20.219  0.00  0.00    +0.000 A 
ATOM     16  C   UNL     1       0.395   8.376  21.563  0.00  0.00    +0.000 C 
ATOM     17  C   UNL     1       0.177   9.646  22.396  0.00  0.00    +0.000 C 
ENDROOT
BRANCH   1  19
ATOM     18  C   UNL     1      -4.577  12.470  24.821  0.00  0.00    +0.000 C 
ATOM     19  O   UNL     1      -3.493  13.301  24.421  0.00  0.00    +0.000 OA
ENDBRANCH   1  19
BRANCH  14  20
ATOM     20  O   UNL     1       2.083   6.535  20.344  0.00  0.00    +0.000 OA
ATOM     21  C   UNL     1       2.556   5.392  19.641  0.00  0.00    +0.000 C 
ENDBRANCH  14  20
BRANCH   9  22
ATOM     22  C   UNL     1      -1.154  12.247  18.320  0.00  0.00    +0.000 C 
BRANCH  22  23
ATOM     23  C   UNL     1      -2.472  11.739  17.713  0.00  0.00    +0.000 C 
BRANCH  23  24
ATOM     24  N   UNL     1      -2.372  10.492  16.917  0.00  0.00    +0.000 NA
ATOM     25  C   UNL     1      -3.219   9.466  17.544  0.00  0.00    +0.000 C 
ATOM     26  C   UNL     1      -2.808  10.678  15.530  0.00  0.00    +0.000 C 
ENDBRANCH  23  24
ENDBRANCH  22  23
ENDBRANCH   9  22
TORSDOF 5
ENDMDL
MODEL 5
REMARK VINA RESULT:      -6.8      1.073      1.129
REMARK  Name = 
REMARK  9 active torsions:
REMARK  status: ('A' for Active; 'I' for Inactive)
REMARK    1  A    between atoms: C_1  and  O_2
REMARK    2  A    between atoms: O_2  and  C_3
REMARK    3  A    between atoms: N_11  and  C_12
REMARK    4  A    between atoms: C_12  and  C_13
REMARK    5  A    between atoms: C_13  and  N_14
REMARK    6  A    between atoms: N_14  and  C_15
REMARK    7  A    between atoms: N_14  and  C_16
REMARK    8  A    between atoms: C_21  and  O_22
REMARK    9  A    between atoms: O_22  and  C_23
REMARK                            x       y       z     vdW  Elec       q    Type
REMARK                         _______ _______ _______ _____ _____    ______ ____
ROOT
ATOM      1  C   UNL     1       5.507   5.446  15.655  0.00  0.00    +0.000 A 
ATOM      2  C   UNL     1       5.104   4.238  16.216  0.00  0.00    +0.000 A 
ATOM      3  C   UNL     1       4.155   4.199  17.249  0.00  0.00    +0.000 A 
ATOM      4  C   UNL     1       3.618   5.408  17.729  0.00  0.00    +0.000 A 
ATOM      5  C   UNL     1       4.016   6.626  17.181  0.00  0.00    +0.000 A 
ATOM      6  C   UNL     1       4.964   6.642  16.135  0.00  0.00    +0.000 A 
ATOM      7  C   UNL     1       3.291   7.633  17.854  0.00  0.00    +0.000 A 
ATOM      8  C   UNL     1       2.493   7.053  18.831  0.00  0.00    +0.000 A 
ATOM      9  N   UNL     1       2.664   5.679  18.715  0.00  0.00    +0.000 N 
ATOM     10  C   UNL     1       1.593   7.880  19.668  0.00  0.00    +0.000 A 
ATOM     11  C   UNL     1       1.088   7.485  20.908  0.00  0.00    +0.000 A 
ATOM     12  C   UNL     1       0.218   8.322  21.617  0.00  0.00    +0.000 A 
ATOM     13  C   UNL     1      -0.139   9.575  21.114  0.00  0.00    +0.000 A 
ATOM     14  C   UNL     1       0.402  10.027  19.910  0.00  0.00    +0.000 A 
ATOM     15  C   UNL     1       1.286   9.191  19.195  0.00  0.00    +0.000 A 
ATOM     16  C   UNL     1       1.886   9.672  17.876  0.00  0.00    +0.000 C 
ATOM     17  C   UNL     1       3.289   9.104  17.624  0.00  0.00    +0.000 C 
ENDROOT
BRANCH   1  19
ATOM     18  C   UNL     1       6.502   4.550  13.691  0.00  0.00    +0.000 C 
ATOM     19  O   UNL     1       6.418   5.601  14.645  0.00  0.00    +0.000 OA
ENDBRANCH   1  19
BRANCH  14  20
ATOM     20  O   UNL     1       0.137  11.250  19.350  0.00  0.00    +0.000 OA
ATOM     21  C   UNL     1      -0.551  12.210  20.143  0.00  0.00    +0.000 C 
ENDBRANCH  14  20
BRANCH   9  22
ATOM     22  C   UNL     1       1.940   4.621  19.419  0.00  0.00    +0.000 C 
BRANCH  22  23
ATOM     23  C   UNL     1       2.728   4.058  20.613  0.00  0.00    +0.000 C 
BRANCH  23  24
ATOM     24  N   UNL     1       3.062   2.615  20.537  0.00  0.00    +0.000 NA
ATOM     25  C   UNL     1       2.628   2.102  19.228  0.00  0.00    +0.000 C 
ATOM     26  C   UNL     1       4.498   2.365  20.688  0.00  0.00    +0.000 C 
ENDBRANCH  23  24
ENDBRANCH  22  23
ENDBRANCH   9  22
TORSDOF 5
ENDMDL
MODEL 6
REMARK VINA RESULT:      -6.8      3.404      8.506
REMARK  Name = 
REMARK  9 active torsions:
REMARK  status: ('A' for Active; 'I' for Inactive)
REMARK    1  A    between atoms: C_1  and  O_2
REMARK    2  A    between atoms: O_2  and  C_3
REMARK    3  A    between atoms: N_11  and  C_12
REMARK    4  A    between atoms: C_12  and  C_13
REMARK    5  A    between atoms: C_13  and  N_14
REMARK    6  A    between atoms: N_14  and  C_15
REMARK    7  A    between atoms: N_14  and  C_16
REMARK    8  A    between atoms: C_21  and  O_22
REMARK    9  A    between atoms: O_22  and  C_23
REMARK                            x       y       z     vdW  Elec       q    Type
REMARK                         _______ _______ _______ _____ _____    ______ ____
ROOT
ATOM      1  C   UNL     1      -2.357  12.563  22.763  0.00  0.00    +0.000 A 
ATOM      2  C   UNL     1      -2.727  13.138  21.550  0.00  0.00    +0.000 A 
ATOM      3  C   UNL     1      -2.170  12.698  20.340  0.00  0.00    +0.000 A 
ATOM      4  C   UNL     1      -1.214  11.666  20.363  0.00  0.00    +0.000 A 
ATOM      5  C   UNL     1      -0.829  11.085  21.570  0.00  0.00    +0.000 A 
ATOM      6  C   UNL     1      -1.409  11.536  22.775  0.00  0.00    +0.000 A 
ATOM      7  C   UNL     1       0.115  10.083  21.258  0.00  0.00    +0.000 A 
ATOM      8  C   UNL     1       0.345  10.076  19.888  0.00  0.00    +0.000 A 
ATOM      9  N   UNL     1      -0.513  11.021  19.340  0.00  0.00    +0.000 N 
ATOM     10  C   UNL     1       1.269   9.092  19.278  0.00  0.00    +0.000 A 
ATOM     11  C   UNL     1       1.880   9.254  18.034  0.00  0.00    +0.000 A 
ATOM     12  C   UNL     1       2.719   8.257  17.522  0.00  0.00    +0.000 A 
ATOM     13  C   UNL     1       2.983   7.097  18.254  0.00  0.00    +0.000 A 
ATOM     14  C   UNL     1       2.442   6.936  19.529  0.00  0.00    +0.000 A 
ATOM     15  C   UNL     1       1.603   7.942  20.055  0.00  0.00    +0.000 A 
ATOM     16  C   UNL     1       1.004   7.780  21.450  0.00  0.00    +0.000 C 
ATOM     17  C   UNL     1       0.802   9.123  22.165  0.00  0.00    +0.000 C 
ENDROOT
BRANCH   1  19
ATOM     18  C   UNL     1      -4.247  13.046  24.123  0.00  0.00    +0.000 C 
ATOM     19  O   UNL     1      -2.836  12.909  23.997  0.00  0.00    +0.000 OA
ENDBRANCH   1  19
BRANCH  14  20
ATOM     20  O   UNL     1       2.666   5.851  20.337  0.00  0.00    +0.000 OA
ATOM     21  C   UNL     1       2.506   4.556  19.770  0.00  0.00    +0.000 C 
ENDBRANCH  14  20
BRANCH   9  22
ATOM     22  C   UNL     1      -0.758  11.296  17.924  0.00  0.00    +0.000 C 
BRANCH  22  23
ATOM     23  C   UNL     1      -1.907  10.452  17.348  0.00  0.00    +0.000 C 
BRANCH  23  24
ATOM     24  N   UNL     1      -3.000  11.216  16.700  0.00  0.00    +0.000 NA
ATOM     25  C   UNL     1      -3.152  10.736  15.318  0.00  0.00    +0.000 C 
ATOM     26  C   UNL     1      -4.281  11.058  17.396  0.00  0.00    +0.000 C 
ENDBRANCH  23  24
ENDBRANCH  22  23
ENDBRANCH   9  22
TORSDOF 5
ENDMDL
MODEL 7
REMARK VINA RESULT:      -6.4      3.378      8.924
REMARK  Name = 
REMARK  9 active torsions:
REMARK  status: ('A' for Active; 'I' for Inactive)
REMARK    1  A    between atoms: C_1  and  O_2
REMARK    2  A    between atoms: O_2  and  C_3
REMARK    3  A    between atoms: N_11  and  C_12
REMARK    4  A    between atoms: C_12  and  C_13
REMARK    5  A    between atoms: C_13  and  N_14
REMARK    6  A    between atoms: N_14  and  C_15
REMARK    7  A    between atoms: N_14  and  C_16
REMARK    8  A    between atoms: C_21  and  O_22
REMARK    9  A    between atoms: O_22  and  C_23
REMARK                            x       y       z     vdW  Elec       q    Type
REMARK                         _______ _______ _______ _____ _____    ______ ____
ROOT
ATOM      1  C   UNL     1      -2.824  12.494  23.272  0.00  0.00    +0.000 A 
ATOM      2  C   UNL     1      -3.242  13.152  22.119  0.00  0.00    +0.000 A 
ATOM      3  C   UNL     1      -2.683  12.847  20.868  0.00  0.00    +0.000 A 
ATOM      4  C   UNL     1      -1.676  11.869  20.790  0.00  0.00    +0.000 A 
ATOM      5  C   UNL     1      -1.243  11.206  21.937  0.00  0.00    +0.000 A 
ATOM      6  C   UNL     1      -1.825  11.520  23.184  0.00  0.00    +0.000 A 
ATOM      7  C   UNL     1      -0.254  10.285  21.528  0.00  0.00    +0.000 A 
ATOM      8  C   UNL     1      -0.046  10.409  20.160  0.00  0.00    +0.000 A 
ATOM      9  N   UNL     1      -0.960  11.352  19.706  0.00  0.00    +0.000 N 
ATOM     10  C   UNL     1       0.917   9.531  19.455  0.00  0.00    +0.000 A 
ATOM     11  C   UNL     1       1.499   9.831  18.223  0.00  0.00    +0.000 A 
ATOM     12  C   UNL     1       2.379   8.927  17.616  0.00  0.00    +0.000 A 
ATOM     13  C   UNL     1       2.713   7.724  18.241  0.00  0.00    +0.000 A 
ATOM     14  C   UNL     1       2.201   7.425  19.503  0.00  0.00    +0.000 A 
ATOM     15  C   UNL     1       1.321   8.337  20.124  0.00  0.00    +0.000 A 
ATOM     16  C   UNL     1       0.753   8.023  21.507  0.00  0.00    +0.000 C 
ATOM     17  C   UNL     1       0.495   9.286  22.339  0.00  0.00    +0.000 C 
ENDROOT
BRANCH   1  19
ATOM     18  C   UNL     1      -4.700  12.545  24.732  0.00  0.00    +0.000 C 
ATOM     19  O   UNL     1      -3.300  12.706  24.538  0.00  0.00    +0.000 OA
ENDBRANCH   1  19
BRANCH  14  20
ATOM     20  O   UNL     1       2.493   6.287  20.210  0.00  0.00    +0.000 OA
ATOM     21  C   UNL     1       3.326   5.314  19.591  0.00  0.00    +0.000 C 
ENDBRANCH  14  20
BRANCH   9  22
ATOM     22  C   UNL     1      -1.241  11.736  18.323  0.00  0.00    +0.000 C 
BRANCH  22  23
ATOM     23  C   UNL     1      -0.527  13.034  17.913  0.00  0.00    +0.000 C 
BRANCH  23  24
ATOM     24  N   UNL     1       0.402  13.600  18.920  0.00  0.00    +0.000 NA
ATOM     25  C   UNL     1       1.762  13.592  18.359  0.00  0.00    +0.000 C 
ATOM     26  C   UNL     1       0.055  14.975  19.291  0.00  0.00    +0.000 C 
ENDBRANCH  23  24
ENDBRANCH  22  23
ENDBRANCH   9  22
TORSDOF 5
ENDMDL
MODEL 8
REMARK VINA RESULT:      -6.3      3.444      5.622
REMARK  Name = 
REMARK  9 active torsions:
REMARK  status: ('A' for Active; 'I' for Inactive)
REMARK    1  A    between atoms: C_1  and  O_2
REMARK    2  A    between atoms: O_2  and  C_3
REMARK    3  A    between atoms: N_11  and  C_12
REMARK    4  A    between atoms: C_12  and  C_13
REMARK    5  A    between atoms: C_13  and  N_14
REMARK    6  A    between atoms: N_14  and  C_15
REMARK    7  A    between atoms: N_14  and  C_16
REMARK    8  A    between atoms: C_21  and  O_22
REMARK    9  A    between atoms: O_22  and  C_23
REMARK                            x       y       z     vdW  Elec       q    Type
REMARK                         _______ _______ _______ _____ _____    ______ ____
ROOT
ATOM      1  C   UNL     1       6.425   3.843  13.241  0.00  0.00    +0.000 A 
ATOM      2  C   UNL     1       7.198   4.960  13.544  0.00  0.00    +0.000 A 
ATOM      3  C   UNL     1       6.928   5.743  14.676  0.00  0.00    +0.000 A 
ATOM      4  C   UNL     1       5.847   5.393  15.507  0.00  0.00    +0.000 A 
ATOM      5  C   UNL     1       5.061   4.280  15.214  0.00  0.00    +0.000 A 
ATOM      6  C   UNL     1       5.356   3.500  14.075  0.00  0.00    +0.000 A 
ATOM      7  C   UNL     1       4.089   4.188  16.233  0.00  0.00    +0.000 A 
ATOM      8  C   UNL     1       4.241   5.250  17.115  0.00  0.00    +0.000 A 
ATOM      9  N   UNL     1       5.357   5.960  16.688  0.00  0.00    +0.000 N 
ATOM     10  C   UNL     1       3.372   5.379  18.307  0.00  0.00    +0.000 A 
ATOM     11  C   UNL     1       3.156   6.573  18.998  0.00  0.00    +0.000 A 
ATOM     12  C   UNL     1       2.339   6.595  20.134  0.00  0.00    +0.000 A 
ATOM     13  C   UNL     1       1.703   5.436  20.582  0.00  0.00    +0.000 A 
ATOM     14  C   UNL     1       1.844   4.242  19.875  0.00  0.00    +0.000 A 
ATOM     15  C   UNL     1       2.659   4.215  18.724  0.00  0.00    +0.000 A 
ATOM     16  C   UNL     1       2.822   2.915  17.939  0.00  0.00    +0.000 C 
ATOM     17  C   UNL     1       3.036   3.155  16.438  0.00  0.00    +0.000 C 
ENDROOT
BRANCH   1  19
ATOM     18  C   UNL     1       5.432   2.393  11.640  0.00  0.00    +0.000 C 
ATOM     19  O   UNL     1       6.600   3.009  12.171  0.00  0.00    +0.000 OA
ENDBRANCH   1  19
BRANCH  14  20
ATOM     20  O   UNL     1       1.237   3.060  20.216  0.00  0.00    +0.000 OA
ATOM     21  C   UNL     1       1.426   2.574  21.540  0.00  0.00    +0.000 C 
ENDBRANCH  14  20
BRANCH   9  22
ATOM     22  C   UNL     1       6.018   7.080  17.356  0.00  0.00    +0.000 C 
BRANCH  22  23
ATOM     23  C   UNL     1       7.517   6.829  17.587  0.00  0.00    +0.000 C 
BRANCH  23  24
ATOM     24  N   UNL     1       7.845   5.753  18.554  0.00  0.00    +0.000 NA
ATOM     25  C   UNL     1       6.771   5.681  19.557  0.00  0.00    +0.000 C 
ATOM     26  C   UNL     1       7.974   4.442  17.909  0.00  0.00    +0.000 C 
ENDBRANCH  23  24
ENDBRANCH  22  23
ENDBRANCH   9  22
TORSDOF 5
ENDMDL
MODEL 9
REMARK VINA RESULT:      -6.0      3.586      6.445
REMARK  Name = 
REMARK  9 active torsions:
REMARK  status: ('A' for Active; 'I' for Inactive)
REMARK    1  A    between atoms: C_1  and  O_2
REMARK    2  A    between atoms: O_2  and  C_3
REMARK    3  A    between atoms: N_11  and  C_12
REMARK    4  A    between atoms: C_12  and  C_13
REMARK    5  A    between atoms: C_13  and  N_14
REMARK    6  A    between atoms: N_14  and  C_15
REMARK    7  A    between atoms: N_14  and  C_16
REMARK    8  A    between atoms: C_21  and  O_22
REMARK    9  A    between atoms: O_22  and  C_23
REMARK                            x       y       z     vdW  Elec       q    Type
REMARK                         _______ _______ _______ _____ _____    ______ ____
ROOT
ATOM      1  C   UNL     1       1.998   7.862  19.522  0.00  0.00    +0.000 A 
ATOM      2  C   UNL     1       1.921   8.404  18.242  0.00  0.00    +0.000 A 
ATOM      3  C   UNL     1       1.087   9.499  17.968  0.00  0.00    +0.000 A 
ATOM      4  C   UNL     1       0.310  10.043  19.007  0.00  0.00    +0.000 A 
ATOM      5  C   UNL     1       0.373   9.507  20.292  0.00  0.00    +0.000 A 
ATOM      6  C   UNL     1       1.225   8.412  20.549  0.00  0.00    +0.000 A 
ATOM      7  C   UNL     1      -0.496  10.275  21.097  0.00  0.00    +0.000 A 
ATOM      8  C   UNL     1      -1.119  11.239  20.316  0.00  0.00    +0.000 A 
ATOM      9  N   UNL     1      -0.580  11.120  19.040  0.00  0.00    +0.000 N 
ATOM     10  C   UNL     1      -2.059  12.214  20.916  0.00  0.00    +0.000 A 
ATOM     11  C   UNL     1      -3.026  12.919  20.198  0.00  0.00    +0.000 A 
ATOM     12  C   UNL     1      -3.854  13.844  20.845  0.00  0.00    +0.000 A 
ATOM     13  C   UNL     1      -3.749  14.059  22.221  0.00  0.00    +0.000 A 
ATOM     14  C   UNL     1      -2.840  13.321  22.978  0.00  0.00    +0.000 A 
ATOM     15  C   UNL     1      -2.008  12.381  22.333  0.00  0.00    +0.000 A 
ATOM     16  C   UNL     1      -1.007  11.565  23.149  0.00  0.00    +0.000 C 
ATOM     17  C   UNL     1      -0.763  10.169  22.558  0.00  0.00    +0.000 C 
ENDROOT
BRANCH   1  19
ATOM     18  C   UNL     1       3.412   6.068  18.862  0.00  0.00    +0.000 C 
ATOM     19  O   UNL     1       2.777   6.802  19.902  0.00  0.00    +0.000 OA
ENDBRANCH   1  19
BRANCH  14  20
ATOM     20  O   UNL     1      -2.683  13.437  24.335  0.00  0.00    +0.000 OA
ATOM     21  C   UNL     1      -3.085  14.656  24.949  0.00  0.00    +0.000 C 
ENDBRANCH  14  20
BRANCH   9  22
ATOM     22  C   UNL     1      -0.800  11.994  17.888  0.00  0.00    +0.000 C 
BRANCH  22  23
ATOM     23  C   UNL     1      -2.129  11.705  17.172  0.00  0.00    +0.000 C 
BRANCH  23  24
ATOM     24  N   UNL     1      -2.270  10.342  16.606  0.00  0.00    +0.000 NA
ATOM     25  C   UNL     1      -3.183   9.570  17.464  0.00  0.00    +0.000 C 
ATOM     26  C   UNL     1      -2.806  10.355  15.242  0.00  0.00    +0.000 C 
ENDBRANCH  23  24
ENDBRANCH  22  23
ENDBRANCH   9  22
TORSDOF 5
ENDMDL
