MODEL 1
REMARK VINA RESULT:      -8.5      0.000      0.000
REMARK  Name = 
REMARK  6 active torsions:
REMARK  status: ('A' for Active; 'I' for Inactive)
REMARK    1  A    between atoms: C_4  and  C_5
REMARK    2  A    between atoms: C_7  and  N_8
REMARK    3  A    between atoms: C_10  and  O_11
REMARK    4  A    between atoms: C_12  and  O_13
REMARK    5  A    between atoms: C_17  and  O_18
REMARK    6  A    between atoms: C_20  and  C_21
REMARK                            x       y       z     vdW  Elec       q    Type
REMARK                         _______ _______ _______ _____ _____    ______ ____
ROOT
ATOM      1  C   UNL     1       1.759   8.458  19.307  0.00  0.00    +0.000 A 
ATOM      2  C   UNL     1       2.040   7.158  19.802  0.00  0.00    +0.000 A 
ATOM      3  C   UNL     1       2.850   6.225  19.126  0.00  0.00    +0.000 A 
ATOM      4  C   UNL     1       3.372   6.637  17.892  0.00  0.00    +0.000 A 
ATOM      5  C   UNL     1       3.133   7.910  17.375  0.00  0.00    +0.000 A 
ATOM      6  C   UNL     1       2.345   8.813  18.081  0.00  0.00    +0.000 A 
ENDROOT
BRANCH   1  10
ATOM      7  N   UNL     1      -0.413   9.511  23.372  0.00  0.00    +0.000 N 
ATOM      8  C   UNL     1      -0.159   9.847  22.058  0.00  0.00    +0.000 A 
ATOM      9  N   UNL     1       0.689   9.074  21.377  0.00  0.00    +0.000 NA
ATOM     10  C   UNL     1       0.874   9.367  20.069  0.00  0.00    +0.000 A 
ATOM     11  C   UNL     1       0.192  10.405  19.463  0.00  0.00    +0.000 A 
ATOM     12  C   UNL     1      -0.667  11.147  20.247  0.00  0.00    +0.000 A 
ATOM     13  N   UNL     1      -0.818  10.895  21.561  0.00  0.00    +0.000 NA
ATOM     14  H   UNL     1       0.351   8.967  23.747  0.00  0.00    +0.000 HD
ATOM     15  H   UNL     1      -0.714  10.326  23.883  0.00  0.00    +0.000 HD
BRANCH  12  16
ATOM     16  C   UNL     1      -1.691  12.041  19.559  0.00  0.00    +0.000 C 
ATOM     17  C   UNL     1      -1.865  11.508  18.126  0.00  0.00    +0.000 C 
ATOM     18  C   UNL     1      -2.885  10.376  18.001  0.00  0.00    +0.000 C 
ATOM     19  C   UNL     1      -4.277  10.898  17.678  0.00  0.00    +0.000 C 
ATOM     20  C   UNL     1      -4.967  11.666  18.803  0.00  0.00    +0.000 C 
ATOM     21  C   UNL     1      -4.154  12.769  19.484  0.00  0.00    +0.000 C 
ATOM     22  C   UNL     1      -3.001  12.231  20.343  0.00  0.00    +0.000 C 
ENDBRANCH  12  16
ENDBRANCH   1  10
BRANCH   3  23
ATOM     23  N   UNL     1       3.182   5.007  19.667  0.00  0.00    +0.000 N 
ATOM     24  C   UNL     1       2.461   4.366  20.763  0.00  0.00    +0.000 C 
ATOM     25  C   UNL     1       2.877   2.888  20.658  0.00  0.00    +0.000 C 
ATOM     26  C   UNL     1       4.201   2.894  19.864  0.00  0.00    +0.000 C 
ATOM     27  C   UNL     1       4.494   4.373  19.543  0.00  0.00    +0.000 C 
BRANCH  25  28
ATOM     28  O   UNL     1       3.004   2.283  21.941  0.00  0.00    +0.000 OA
ATOM     29  H   UNL     1       3.941   2.306  22.193  0.00  0.00    +0.000 HD
ENDBRANCH  25  28
BRANCH  26  30
ATOM     30  O   UNL     1       4.027   2.159  18.642  0.00  0.00    +0.000 OA
ATOM     31  H   UNL     1       3.928   2.822  17.932  0.00  0.00    +0.000 HD
ENDBRANCH  26  30
ENDBRANCH   3  23
BRANCH   6  32
ATOM     32  O   UNL     1       2.168  10.068  17.569  0.00  0.00    +0.000 OA
ATOM     33  H   UNL     1       1.699   9.998  16.725  0.00  0.00    +0.000 HD
ENDBRANCH   6  32
TORSDOF 6
ENDMDL
MODEL 2
REMARK VINA RESULT:      -8.3      2.575      3.918
REMARK  Name = 
REMARK  6 active torsions:
REMARK  status: ('A' for Active; 'I' for Inactive)
REMARK    1  A    between atoms: C_4  and  C_5
REMARK    2  A    between atoms: C_7  and  N_8
REMARK    3  A    between atoms: C_10  and  O_11
REMARK    4  A    between atoms: C_12  and  O_13
REMARK    5  A    between atoms: C_17  and  O_18
REMARK    6  A    between atoms: C_20  and  C_21
REMARK                            x       y       z     vdW  Elec       q    Type
REMARK                         _______ _______ _______ _____ _____    ______ ____
ROOT
ATOM      1  C   UNL     1       2.509   6.080  19.382  0.00  0.00    +0.000 A 
ATOM      2  C   UNL     1       3.602   5.954  18.486  0.00  0.00    +0.000 A 
ATOM      3  C   UNL     1       4.129   4.717  18.069  0.00  0.00    +0.000 A 
ATOM      4  C   UNL     1       3.524   3.573  18.608  0.00  0.00    +0.000 A 
ATOM      5  C   UNL     1       2.439   3.650  19.481  0.00  0.00    +0.000 A 
ATOM      6  C   UNL     1       1.930   4.891  19.852  0.00  0.00    +0.000 A 
ENDROOT
BRANCH   1  10
ATOM      7  N   UNL     1       0.951   8.948  22.803  0.00  0.00    +0.000 N 
ATOM      8  C   UNL     1       1.285   8.783  21.475  0.00  0.00    +0.000 A 
ATOM      9  N   UNL     1       1.779   7.599  21.105  0.00  0.00    +0.000 NA
ATOM     10  C   UNL     1       2.033   7.422  19.788  0.00  0.00    +0.000 A 
ATOM     11  C   UNL     1       1.767   8.416  18.867  0.00  0.00    +0.000 A 
ATOM     12  C   UNL     1       1.255   9.606  19.342  0.00  0.00    +0.000 A 
ATOM     13  N   UNL     1       1.047   9.809  20.656  0.00  0.00    +0.000 NA
ATOM     14  H   UNL     1       1.470   8.298  23.377  0.00  0.00    +0.000 HD
ATOM     15  H   UNL     1       0.980   9.926  23.045  0.00  0.00    +0.000 HD
BRANCH  12  16
ATOM     16  C   UNL     1       0.616  10.571  18.349  0.00  0.00    +0.000 C 
ATOM     17  C   UNL     1      -0.526   9.811  17.652  0.00  0.00    +0.000 C 
ATOM     18  C   UNL     1      -1.851   9.841  18.415  0.00  0.00    +0.000 C 
ATOM     19  C   UNL     1      -2.731  11.003  17.979  0.00  0.00    +0.000 C 
ATOM     20  C   UNL     1      -2.236  12.390  18.385  0.00  0.00    +0.000 C 
ATOM     21  C   UNL     1      -0.772  12.715  18.078  0.00  0.00    +0.000 C 
ATOM     22  C   UNL     1       0.220  11.931  18.949  0.00  0.00    +0.000 C 
ENDBRANCH  12  16
ENDBRANCH   1  10
BRANCH   3  23
ATOM     23  N   UNL     1       5.129   4.618  17.133  0.00  0.00    +0.000 N 
ATOM     24  C   UNL     1       4.939   4.122  15.772  0.00  0.00    +0.000 C 
ATOM     25  C   UNL     1       6.165   4.661  15.014  0.00  0.00    +0.000 C 
ATOM     26  C   UNL     1       7.217   4.959  16.102  0.00  0.00    +0.000 C 
ATOM     27  C   UNL     1       6.557   4.581  17.443  0.00  0.00    +0.000 C 
BRANCH  25  28
ATOM     28  O   UNL     1       6.627   3.737  14.034  0.00  0.00    +0.000 OA
ATOM     29  H   UNL     1       5.879   3.177  13.774  0.00  0.00    +0.000 HD
ENDBRANCH  25  28
BRANCH  26  30
ATOM     30  O   UNL     1       7.527   6.362  16.095  0.00  0.00    +0.000 OA
ATOM     31  H   UNL     1       7.819   6.576  15.189  0.00  0.00    +0.000 HD
ENDBRANCH  26  30
ENDBRANCH   3  23
BRANCH   6  32
ATOM     32  O   UNL     1       0.837   4.931  20.672  0.00  0.00    +0.000 OA
ATOM     33  H   UNL     1       0.037   4.897  20.127  0.00  0.00    +0.000 HD
ENDBRANCH   6  32
TORSDOF 6
ENDMDL
MODEL 3
REMARK VINA RESULT:      -8.3      0.547      1.239
REMARK  Name = 
REMARK  6 active torsions:
REMARK  status: ('A' for Active; 'I' for Inactive)
REMARK    1  A    between atoms: C_4  and  C_5
REMARK    2  A    between atoms: C_7  and  N_8
REMARK    3  A    between atoms: C_10  and  O_11
REMARK    4  A    between atoms: C_12  and  O_13
REMARK    5  A    between atoms: C_17  and  O_18
REMARK    6  A    between atoms: C_20  and  C_21
REMARK                            x       y       z     vdW  Elec       q    Type
REMARK                         _______ _______ _______ _____ _____    ______ ____
ROOT
ATOM      1  C   UNL     1       1.810   8.289  19.310  0.00  0.00    +0.000 A 
ATOM      2  C   UNL     1       2.025   6.951  19.732  0.00  0.00    +0.000 A 
ATOM      3  C   UNL     1       2.748   6.005  18.982  0.00  0.00    +0.000 A 
ATOM      4  C   UNL     1       3.249   6.444  17.748  0.00  0.00    +0.000 A 
ATOM      5  C   UNL     1       3.072   7.753  17.301  0.00  0.00    +0.000 A 
ATOM      6  C   UNL     1       2.371   8.667  18.080  0.00  0.00    +0.000 A 
ENDROOT
BRANCH   1  10
ATOM      7  N   UNL     1      -0.197   9.241  23.485  0.00  0.00    +0.000 N 
ATOM      8  C   UNL     1       0.059   9.641  22.189  0.00  0.00    +0.000 A 
ATOM      9  N   UNL     1       0.831   8.851  21.441  0.00  0.00    +0.000 NA
ATOM     10  C   UNL     1       1.014   9.213  20.150  0.00  0.00    +0.000 A 
ATOM     11  C   UNL     1       0.406  10.338  19.627  0.00  0.00    +0.000 A 
ATOM     12  C   UNL     1      -0.378  11.093  20.477  0.00  0.00    +0.000 A 
ATOM     13  N   UNL     1      -0.524  10.768  21.775  0.00  0.00    +0.000 NA
ATOM     14  H   UNL     1       0.528   8.616  23.806  0.00  0.00    +0.000 HD
ATOM     15  H   UNL     1      -0.422  10.043  24.053  0.00  0.00    +0.000 HD
BRANCH  12  16
ATOM     16  C   UNL     1      -1.340  12.107  19.871  0.00  0.00    +0.000 C 
ATOM     17  C   UNL     1      -1.546  11.709  18.399  0.00  0.00    +0.000 C 
ATOM     18  C   UNL     1      -2.639  10.661  18.184  0.00  0.00    +0.000 C 
ATOM     19  C   UNL     1      -3.994  11.299  17.912  0.00  0.00    +0.000 C 
ATOM     20  C   UNL     1      -4.633  12.013  19.101  0.00  0.00    +0.000 C 
ATOM     21  C   UNL     1      -3.749  12.999  19.869  0.00  0.00    +0.000 C 
ATOM     22  C   UNL     1      -2.635  12.316  20.675  0.00  0.00    +0.000 C 
ENDBRANCH  12  16
ENDBRANCH   1  10
BRANCH   3  23
ATOM     23  N   UNL     1       3.021   4.743  19.451  0.00  0.00    +0.000 N 
ATOM     24  C   UNL     1       4.296   4.053  19.273  0.00  0.00    +0.000 C 
ATOM     25  C   UNL     1       4.272   2.958  20.354  0.00  0.00    +0.000 C 
ATOM     26  C   UNL     1       2.781   2.764  20.703  0.00  0.00    +0.000 C 
ATOM     27  C   UNL     1       2.006   3.753  19.810  0.00  0.00    +0.000 C 
BRANCH  25  28
ATOM     28  O   UNL     1       4.897   1.760  19.906  0.00  0.00    +0.000 OA
ATOM     29  H   UNL     1       5.850   1.838  20.075  0.00  0.00    +0.000 HD
ENDBRANCH  25  28
BRANCH  26  30
ATOM     30  O   UNL     1       2.568   3.091  22.085  0.00  0.00    +0.000 OA
ATOM     31  H   UNL     1       2.738   4.048  22.173  0.00  0.00    +0.000 HD
ENDBRANCH  26  30
ENDBRANCH   3  23
BRANCH   6  32
ATOM     32  O   UNL     1       2.256   9.955  17.635  0.00  0.00    +0.000 OA
ATOM     33  H   UNL     1       2.081   9.941  16.683  0.00  0.00    +0.000 HD
ENDBRANCH   6  32
TORSDOF 6
ENDMDL
MODEL 4
REMARK VINA RESULT:      -8.3      2.778      8.414
REMARK  Name = 
REMARK  6 active torsions:
REMARK  status: ('A' for Active; 'I' for Inactive)
REMARK    1  A    between atoms: C_4  and  C_5
REMARK    2  A    between atoms: C_7  and  N_8
REMARK    3  A    between atoms: C_10  and  O_11
REMARK    4  A    between atoms: C_12  and  O_13
REMARK    5  A    between atoms: C_17  and  O_18
REMARK    6  A    between atoms: C_20  and  C_21
REMARK                            x       y       z     vdW  Elec       q    Type
REMARK                         _______ _______ _______ _____ _____    ______ ____
ROOT
ATOM      1  C   UNL     1       1.015   8.485  20.470  0.00  0.00    +0.000 A 
ATOM      2  C   UNL     1       0.060   8.989  19.549  0.00  0.00    +0.000 A 
ATOM      3  C   UNL     1      -0.707  10.147  19.778  0.00  0.00    +0.000 A 
ATOM      4  C   UNL     1      -0.498  10.797  21.003  0.00  0.00    +0.000 A 
ATOM      5  C   UNL     1       0.440  10.344  21.930  0.00  0.00    +0.000 A 
ATOM      6  C   UNL     1       1.196   9.208  21.660  0.00  0.00    +0.000 A 
ENDROOT
BRANCH   1  10
ATOM      7  N   UNL     1       2.028   4.001  21.575  0.00  0.00    +0.000 N 
ATOM      8  C   UNL     1       2.224   5.071  20.726  0.00  0.00    +0.000 A 
ATOM      9  N   UNL     1       1.508   6.175  20.951  0.00  0.00    +0.000 NA
ATOM     10  C   UNL     1       1.761   7.244  20.161  0.00  0.00    +0.000 A 
ATOM     11  C   UNL     1       2.735   7.198  19.183  0.00  0.00    +0.000 A 
ATOM     12  C   UNL     1       3.426   6.014  19.025  0.00  0.00    +0.000 A 
ATOM     13  N   UNL     1       3.146   4.930  19.773  0.00  0.00    +0.000 NA
ATOM     14  H   UNL     1       1.116   4.059  22.005  0.00  0.00    +0.000 HD
ATOM     15  H   UNL     1       2.282   3.144  21.109  0.00  0.00    +0.000 HD
BRANCH  12  16
ATOM     16  C   UNL     1       4.727   6.031  18.232  0.00  0.00    +0.000 C 
ATOM     17  C   UNL     1       5.220   4.576  18.142  0.00  0.00    +0.000 C 
ATOM     18  C   UNL     1       4.614   3.783  16.983  0.00  0.00    +0.000 C 
ATOM     19  C   UNL     1       5.476   3.859  15.731  0.00  0.00    +0.000 C 
ATOM     20  C   UNL     1       5.513   5.222  15.043  0.00  0.00    +0.000 C 
ATOM     21  C   UNL     1       5.797   6.435  15.932  0.00  0.00    +0.000 C 
ATOM     22  C   UNL     1       4.643   6.772  16.886  0.00  0.00    +0.000 C 
ENDBRANCH  12  16
ENDBRANCH   1  10
BRANCH   3  23
ATOM     23  N   UNL     1      -1.559  10.667  18.835  0.00  0.00    +0.000 N 
ATOM     24  C   UNL     1      -1.467  10.400  17.402  0.00  0.00    +0.000 C 
ATOM     25  C   UNL     1      -2.865  10.768  16.873  0.00  0.00    +0.000 C 
ATOM     26  C   UNL     1      -3.466  11.714  17.934  0.00  0.00    +0.000 C 
ATOM     27  C   UNL     1      -2.392  11.853  19.032  0.00  0.00    +0.000 C 
BRANCH  25  28
ATOM     28  O   UNL     1      -2.800  11.357  15.578  0.00  0.00    +0.000 OA
ATOM     29  H   UNL     1      -1.878  11.318  15.277  0.00  0.00    +0.000 HD
ENDBRANCH  25  28
BRANCH  26  30
ATOM     30  O   UNL     1      -4.649  11.118  18.488  0.00  0.00    +0.000 OA
ATOM     31  H   UNL     1      -4.982  11.740  19.163  0.00  0.00    +0.000 HD
ENDBRANCH  26  30
ENDBRANCH   3  23
BRANCH   6  32
ATOM     32  O   UNL     1       2.139   8.817  22.569  0.00  0.00    +0.000 OA
ATOM     33  H   UNL     1       1.741   8.814  23.451  0.00  0.00    +0.000 HD
ENDBRANCH   6  32
TORSDOF 6
ENDMDL
MODEL 5
REMARK VINA RESULT:      -8.0      3.500      4.952
REMARK  Name = 
REMARK  6 active torsions:
REMARK  status: ('A' for Active; 'I' for Inactive)
REMARK    1  A    between atoms: C_4  and  C_5
REMARK    2  A    between atoms: C_7  and  N_8
REMARK    3  A    between atoms: C_10  and  O_11
REMARK    4  A    between atoms: C_12  and  O_13
REMARK    5  A    between atoms: C_17  and  O_18
REMARK    6  A    between atoms: C_20  and  C_21
REMARK                            x       y       z     vdW  Elec       q    Type
REMARK                         _______ _______ _______ _____ _____    ______ ____
ROOT
ATOM      1  C   UNL     1       0.971   9.444  19.728  0.00  0.00    +0.000 A 
ATOM      2  C   UNL     1       1.845   8.759  18.845  0.00  0.00    +0.000 A 
ATOM      3  C   UNL     1       2.386   7.487  19.115  0.00  0.00    +0.000 A 
ATOM      4  C   UNL     1       2.032   6.912  20.344  0.00  0.00    +0.000 A 
ATOM      5  C   UNL     1       1.166   7.544  21.235  0.00  0.00    +0.000 A 
ATOM      6  C   UNL     1       0.632   8.791  20.924  0.00  0.00    +0.000 A 
ENDROOT
BRANCH   1  10
ATOM      7  N   UNL     1      -1.898  12.124  17.093  0.00  0.00    +0.000 N 
ATOM      8  C   UNL     1      -0.940  12.057  18.084  0.00  0.00    +0.000 A 
ATOM      9  N   UNL     1      -0.525  10.845  18.459  0.00  0.00    +0.000 NA
ATOM     10  C   UNL     1       0.468  10.791  19.377  0.00  0.00    +0.000 A 
ATOM     11  C   UNL     1       1.040  11.943  19.883  0.00  0.00    +0.000 A 
ATOM     12  C   UNL     1       0.547  13.151  19.434  0.00  0.00    +0.000 A 
ATOM     13  N   UNL     1      -0.474  13.214  18.559  0.00  0.00    +0.000 NA
ATOM     14  H   UNL     1      -2.422  11.262  17.055  0.00  0.00    +0.000 HD
ATOM     15  H   UNL     1      -2.408  12.990  17.168  0.00  0.00    +0.000 HD
BRANCH  12  16
ATOM     16  C   UNL     1       1.373  14.408  19.676  0.00  0.00    +0.000 C 
ATOM     17  C   UNL     1       2.852  14.016  19.511  0.00  0.00    +0.000 C 
ATOM     18  C   UNL     1       3.352  14.060  18.067  0.00  0.00    +0.000 C 
ATOM     19  C   UNL     1       3.959  15.411  17.716  0.00  0.00    +0.000 C 
ATOM     20  C   UNL     1       2.969  16.570  17.621  0.00  0.00    +0.000 C 
ATOM     21  C   UNL     1       1.990  16.738  18.785  0.00  0.00    +0.000 C 
ATOM     22  C   UNL     1       0.930  15.630  18.851  0.00  0.00    +0.000 C 
ENDBRANCH  12  16
ENDBRANCH   1  10
BRANCH   3  23
ATOM     23  N   UNL     1       3.157   6.804  18.207  0.00  0.00    +0.000 N 
ATOM     24  C   UNL     1       3.984   7.438  17.183  0.00  0.00    +0.000 C 
ATOM     25  C   UNL     1       4.983   6.336  16.788  0.00  0.00    +0.000 C 
ATOM     26  C   UNL     1       4.317   5.011  17.217  0.00  0.00    +0.000 C 
ATOM     27  C   UNL     1       2.963   5.402  17.841  0.00  0.00    +0.000 C 
BRANCH  25  28
ATOM     28  O   UNL     1       5.291   6.378  15.399  0.00  0.00    +0.000 OA
ATOM     29  H   UNL     1       4.751   7.074  14.992  0.00  0.00    +0.000 HD
ENDBRANCH  25  28
BRANCH  26  30
ATOM     30  O   UNL     1       5.136   4.364  18.203  0.00  0.00    +0.000 OA
ATOM     31  H   UNL     1       4.870   4.730  19.068  0.00  0.00    +0.000 HD
ENDBRANCH  26  30
ENDBRANCH   3  23
BRANCH   6  32
ATOM     32  O   UNL     1      -0.250   9.362  21.797  0.00  0.00    +0.000 OA
ATOM     33  H   UNL     1       0.211   9.554  22.627  0.00  0.00    +0.000 HD
ENDBRANCH   6  32
TORSDOF 6
ENDMDL
MODEL 6
REMARK VINA RESULT:      -7.9      3.042      8.407
REMARK  Name = 
REMARK  6 active torsions:
REMARK  status: ('A' for Active; 'I' for Inactive)
REMARK    1  A    between atoms: C_4  and  C_5
REMARK    2  A    between atoms: C_7  and  N_8
REMARK    3  A    between atoms: C_10  and  O_11
REMARK    4  A    between atoms: C_12  and  O_13
REMARK    5  A    between atoms: C_17  and  O_18
REMARK    6  A    between atoms: C_20  and  C_21
REMARK                            x       y       z     vdW  Elec       q    Type
REMARK                         _______ _______ _______ _____ _____    ______ ____
ROOT
ATOM      1  C   UNL     1       0.450   9.615  19.703  0.00  0.00    +0.000 A 
ATOM      2  C   UNL     1      -0.694   9.712  18.868  0.00  0.00    +0.000 A 
ATOM      3  C   UNL     1      -1.693  10.691  19.025  0.00  0.00    +0.000 A 
ATOM      4  C   UNL     1      -1.519  11.588  20.089  0.00  0.00    +0.000 A 
ATOM      5  C   UNL     1      -0.404  11.538  20.925  0.00  0.00    +0.000 A 
ATOM      6  C   UNL     1       0.575  10.570  20.725  0.00  0.00    +0.000 A 
ENDROOT
BRANCH   1  10
ATOM      7  N   UNL     1       3.833   7.728  16.992  0.00  0.00    +0.000 N 
ATOM      8  C   UNL     1       3.079   7.654  18.145  0.00  0.00    +0.000 A 
ATOM      9  N   UNL     1       2.229   8.654  18.391  0.00  0.00    +0.000 NA
ATOM     10  C   UNL     1       1.440   8.537  19.484  0.00  0.00    +0.000 A 
ATOM     11  C   UNL     1       1.497   7.419  20.293  0.00  0.00    +0.000 A 
ATOM     12  C   UNL     1       2.405   6.435  19.959  0.00  0.00    +0.000 A 
ATOM     13  N   UNL     1       3.230   6.566  18.902  0.00  0.00    +0.000 NA
ATOM     14  H   UNL     1       3.919   8.688  16.692  0.00  0.00    +0.000 HD
ATOM     15  H   UNL     1       4.675   7.184  17.099  0.00  0.00    +0.000 HD
BRANCH  12  16
ATOM     16  C   UNL     1       2.250   5.056  20.589  0.00  0.00    +0.000 C 
ATOM     17  C   UNL     1       0.908   4.485  20.099  0.00  0.00    +0.000 C 
ATOM     18  C   UNL     1       0.990   3.771  18.749  0.00  0.00    +0.000 C 
ATOM     19  C   UNL     1       1.250   2.280  18.908  0.00  0.00    +0.000 C 
ATOM     20  C   UNL     1       2.641   1.907  19.416  0.00  0.00    +0.000 C 
ATOM     21  C   UNL     1       3.142   2.648  20.658  0.00  0.00    +0.000 C 
ATOM     22  C   UNL     1       3.461   4.127  20.396  0.00  0.00    +0.000 C 
ENDBRANCH  12  16
ENDBRANCH   1  10
BRANCH   3  23
ATOM     23  N   UNL     1      -2.743  10.821  18.151  0.00  0.00    +0.000 N 
ATOM     24  C   UNL     1      -3.990  11.518  18.456  0.00  0.00    +0.000 C 
ATOM     25  C   UNL     1      -4.591  11.812  17.069  0.00  0.00    +0.000 C 
ATOM     26  C   UNL     1      -3.923  10.800  16.114  0.00  0.00    +0.000 C 
ATOM     27  C   UNL     1      -2.965   9.965  16.986  0.00  0.00    +0.000 C 
BRANCH  25  28
ATOM     28  O   UNL     1      -6.012  11.712  17.079  0.00  0.00    +0.000 OA
ATOM     29  H   UNL     1      -6.351  12.204  16.314  0.00  0.00    +0.000 HD
ENDBRANCH  25  28
BRANCH  26  30
ATOM     30  O   UNL     1      -3.174  11.510  15.116  0.00  0.00    +0.000 OA
ATOM     31  H   UNL     1      -3.521  12.422  15.105  0.00  0.00    +0.000 HD
ENDBRANCH  26  30
ENDBRANCH   3  23
BRANCH   6  32
ATOM     32  O   UNL     1       1.678  10.577  21.532  0.00  0.00    +0.000 OA
ATOM     33  H   UNL     1       1.445  10.179  22.384  0.00  0.00    +0.000 HD
ENDBRANCH   6  32
TORSDOF 6
ENDMDL
MODEL 7
REMARK VINA RESULT:      -7.9      2.069      2.951
REMARK  Name = 
REMARK  6 active torsions:
REMARK  status: ('A' for Active; 'I' for Inactive)
REMARK    1  A    between atoms: C_4  and  C_5
REMARK    2  A    between atoms: C_7  and  N_8
REMARK    3  A    between atoms: C_10  and  O_11
REMARK    4  A    between atoms: C_12  and  O_13
REMARK    5  A    between atoms: C_17  and  O_18
REMARK    6  A    between atoms: C_20  and  C_21
REMARK                            x       y       z     vdW  Elec       q    Type
REMARK                         _______ _______ _______ _____ _____    ______ ____
ROOT
ATOM      1  C   UNL     1       1.737   8.564  19.555  0.00  0.00    +0.000 A 
ATOM      2  C   UNL     1       2.008   7.250  20.018  0.00  0.00    +0.000 A 
ATOM      3  C   UNL     1       2.579   6.244  19.216  0.00  0.00    +0.000 A 
ATOM      4  C   UNL     1       2.862   6.596  17.888  0.00  0.00    +0.000 A 
ATOM      5  C   UNL     1       2.625   7.879  17.396  0.00  0.00    +0.000 A 
ATOM      6  C   UNL     1       2.080   8.854  18.225  0.00  0.00    +0.000 A 
ENDROOT
BRANCH   1  10
ATOM      7  N   UNL     1      -0.653   9.454  23.537  0.00  0.00    +0.000 N 
ATOM      8  C   UNL     1      -0.046   9.947  22.400  0.00  0.00    +0.000 A 
ATOM      9  N   UNL     1       0.582   9.074  21.609  0.00  0.00    +0.000 NA
ATOM     10  C   UNL     1       1.110   9.554  20.459  0.00  0.00    +0.000 A 
ATOM     11  C   UNL     1       0.979  10.885  20.111  0.00  0.00    +0.000 A 
ATOM     12  C   UNL     1       0.310  11.712  20.990  0.00  0.00    +0.000 A 
ATOM     13  N   UNL     1      -0.173  11.253  22.160  0.00  0.00    +0.000 NA
ATOM     14  H   UNL     1      -0.224   8.582  23.811  0.00  0.00    +0.000 HD
ATOM     15  H   UNL     1      -0.732  10.185  24.227  0.00  0.00    +0.000 HD
BRANCH  12  16
ATOM     16  C   UNL     1      -0.168  13.070  20.491  0.00  0.00    +0.000 C 
ATOM     17  C   UNL     1       0.325  14.121  21.501  0.00  0.00    +0.000 C 
ATOM     18  C   UNL     1       1.748  14.615  21.242  0.00  0.00    +0.000 C 
ATOM     19  C   UNL     1       1.768  15.856  20.361  0.00  0.00    +0.000 C 
ATOM     20  C   UNL     1       1.365  15.634  18.905  0.00  0.00    +0.000 C 
ATOM     21  C   UNL     1       0.071  14.854  18.659  0.00  0.00    +0.000 C 
ATOM     22  C   UNL     1       0.180  13.367  19.022  0.00  0.00    +0.000 C 
ENDBRANCH  12  16
ENDBRANCH   1  10
BRANCH   3  23
ATOM     23  N   UNL     1       2.916   5.007  19.709  0.00  0.00    +0.000 N 
ATOM     24  C   UNL     1       2.353   4.422  20.923  0.00  0.00    +0.000 C 
ATOM     25  C   UNL     1       2.644   2.918  20.771  0.00  0.00    +0.000 C 
ATOM     26  C   UNL     1       3.808   2.830  19.761  0.00  0.00    +0.000 C 
ATOM     27  C   UNL     1       4.141   4.284  19.372  0.00  0.00    +0.000 C 
BRANCH  25  28
ATOM     28  O   UNL     1       2.948   2.310  22.022  0.00  0.00    +0.000 OA
ATOM     29  H   UNL     1       2.271   2.586  22.661  0.00  0.00    +0.000 HD
ENDBRANCH  25  28
BRANCH  26  30
ATOM     30  O   UNL     1       3.377   2.105  18.599  0.00  0.00    +0.000 OA
ATOM     31  H   UNL     1       3.618   2.651  17.827  0.00  0.00    +0.000 HD
ENDBRANCH  26  30
ENDBRANCH   3  23
BRANCH   6  32
ATOM     32  O   UNL     1       1.903  10.115  17.726  0.00  0.00    +0.000 OA
ATOM     33  H   UNL     1       1.833  10.736  18.465  0.00  0.00    +0.000 HD
ENDBRANCH   6  32
TORSDOF 6
ENDMDL
MODEL 8
REMARK VINA RESULT:      -7.9      2.413      3.677
REMARK  Name = 
REMARK  6 active torsions:
REMARK  status: ('A' for Active; 'I' for Inactive)
REMARK    1  A    between atoms: C_4  and  C_5
REMARK    2  A    between atoms: C_7  and  N_8
REMARK    3  A    between atoms: C_10  and  O_11
REMARK    4  A    between atoms: C_12  and  O_13
REMARK    5  A    between atoms: C_17  and  O_18
REMARK    6  A    between atoms: C_20  and  C_21
REMARK                            x       y       z     vdW  Elec       q    Type
REMARK                         _______ _______ _______ _____ _____    ______ ____
ROOT
ATOM      1  C   UNL     1       2.367   6.493  19.835  0.00  0.00    +0.000 A 
ATOM      2  C   UNL     1       3.591   6.554  19.119  0.00  0.00    +0.000 A 
ATOM      3  C   UNL     1       4.322   5.416  18.728  0.00  0.00    +0.000 A 
ATOM      4  C   UNL     1       3.785   4.176  19.102  0.00  0.00    +0.000 A 
ATOM      5  C   UNL     1       2.578   4.070  19.793  0.00  0.00    +0.000 A 
ATOM      6  C   UNL     1       1.872   5.216  20.144  0.00  0.00    +0.000 A 
ENDROOT
BRANCH   1  10
ATOM      7  N   UNL     1      -0.036   8.916  23.108  0.00  0.00    +0.000 N 
ATOM      8  C   UNL     1       0.517   8.885  21.844  0.00  0.00    +0.000 A 
ATOM      9  N   UNL     1       1.201   7.793  21.497  0.00  0.00    +0.000 NA
ATOM     10  C   UNL     1       1.676   7.741  20.231  0.00  0.00    +0.000 A 
ATOM     11  C   UNL     1       1.439   8.764  19.333  0.00  0.00    +0.000 A 
ATOM     12  C   UNL     1       0.719   9.853  19.782  0.00  0.00    +0.000 A 
ATOM     13  N   UNL     1       0.287   9.936  21.055  0.00  0.00    +0.000 NA
ATOM     14  H   UNL     1       0.462   8.287  23.722  0.00  0.00    +0.000 HD
ATOM     15  H   UNL     1      -0.163   9.871  23.403  0.00  0.00    +0.000 HD
BRANCH  12  16
ATOM     16  C   UNL     1       0.132  10.811  18.753  0.00  0.00    +0.000 C 
ATOM     17  C   UNL     1      -0.580   9.953  17.693  0.00  0.00    +0.000 C 
ATOM     18  C   UNL     1      -2.019   9.581  18.054  0.00  0.00    +0.000 C 
ATOM     19  C   UNL     1      -3.021  10.590  17.509  0.00  0.00    +0.000 C 
ATOM     20  C   UNL     1      -2.995  11.965  18.174  0.00  0.00    +0.000 C 
ATOM     21  C   UNL     1      -1.627  12.633  18.322  0.00  0.00    +0.000 C 
ATOM     22  C   UNL     1      -0.722  11.943  19.351  0.00  0.00    +0.000 C 
ENDBRANCH  12  16
ENDBRANCH   1  10
BRANCH   3  23
ATOM     23  N   UNL     1       5.456   5.495  17.958  0.00  0.00    +0.000 N 
ATOM     24  C   UNL     1       5.634   4.819  16.676  0.00  0.00    +0.000 C 
ATOM     25  C   UNL     1       6.790   5.590  16.015  0.00  0.00    +0.000 C 
ATOM     26  C   UNL     1       7.530   6.288  17.175  0.00  0.00    +0.000 C 
ATOM     27  C   UNL     1       6.772   5.892  18.458  0.00  0.00    +0.000 C 
BRANCH  25  28
ATOM     28  O   UNL     1       7.634   4.729  15.257  0.00  0.00    +0.000 OA
ATOM     29  H   UNL     1       8.255   4.304  15.870  0.00  0.00    +0.000 HD
ENDBRANCH  25  28
BRANCH  26  30
ATOM     30  O   UNL     1       7.464   7.712  16.995  0.00  0.00    +0.000 OA
ATOM     31  H   UNL     1       8.365   8.003  16.757  0.00  0.00    +0.000 HD
ENDBRANCH  26  30
ENDBRANCH   3  23
BRANCH   6  32
ATOM     32  O   UNL     1       0.670   5.077  20.780  0.00  0.00    +0.000 OA
ATOM     33  H   UNL     1       0.000   5.580  20.295  0.00  0.00    +0.000 HD
ENDBRANCH   6  32
TORSDOF 6
ENDMDL
MODEL 9
REMARK VINA RESULT:      -7.9      2.809      8.523
REMARK  Name = 
REMARK  6 active torsions:
REMARK  status: ('A' for Active; 'I' for Inactive)
REMARK    1  A    between atoms: C_4  and  C_5
REMARK    2  A    between atoms: C_7  and  N_8
REMARK    3  A    between atoms: C_10  and  O_11
REMARK    4  A    between atoms: C_12  and  O_13
REMARK    5  A    between atoms: C_17  and  O_18
REMARK    6  A    between atoms: C_20  and  C_21
REMARK                            x       y       z     vdW  Elec       q    Type
REMARK                         _______ _______ _______ _____ _____    ______ ____
ROOT
ATOM      1  C   UNL     1       0.928   9.146  19.957  0.00  0.00    +0.000 A 
ATOM      2  C   UNL     1      -0.116   9.556  19.087  0.00  0.00    +0.000 A 
ATOM      3  C   UNL     1      -1.106  10.492  19.445  0.00  0.00    +0.000 A 
ATOM      4  C   UNL     1      -1.031  11.006  20.747  0.00  0.00    +0.000 A 
ATOM      5  C   UNL     1      -0.015  10.641  21.630  0.00  0.00    +0.000 A 
ATOM      6  C   UNL     1       0.960   9.731  21.234  0.00  0.00    +0.000 A 
ENDROOT
BRANCH   1  10
ATOM      7  N   UNL     1       3.966   7.654  16.656  0.00  0.00    +0.000 N 
ATOM      8  C   UNL     1       3.381   7.448  17.888  0.00  0.00    +0.000 A 
ATOM      9  N   UNL     1       2.540   8.383  18.336  0.00  0.00    +0.000 NA
ATOM     10  C   UNL     1       1.914   8.137  19.510  0.00  0.00    +0.000 A 
ATOM     11  C   UNL     1       2.119   6.957  20.198  0.00  0.00    +0.000 A 
ATOM     12  C   UNL     1       3.004   6.048  19.656  0.00  0.00    +0.000 A 
ATOM     13  N   UNL     1       3.671   6.307  18.515  0.00  0.00    +0.000 NA
ATOM     14  H   UNL     1       3.977   8.640  16.436  0.00  0.00    +0.000 HD
ATOM     15  H   UNL     1       4.832   7.142  16.598  0.00  0.00    +0.000 HD
BRANCH  12  16
ATOM     16  C   UNL     1       2.983   4.614  20.174  0.00  0.00    +0.000 C 
ATOM     17  C   UNL     1       1.539   4.104  20.028  0.00  0.00    +0.000 C 
ATOM     18  C   UNL     1       1.217   3.528  18.649  0.00  0.00    +0.000 C 
ATOM     19  C   UNL     1       1.460   2.026  18.588  0.00  0.00    +0.000 C 
ATOM     20  C   UNL     1       2.924   1.595  18.649  0.00  0.00    +0.000 C 
ATOM     21  C   UNL     1       3.776   2.206  19.764  0.00  0.00    +0.000 C 
ATOM     22  C   UNL     1       4.060   3.700  19.562  0.00  0.00    +0.000 C 
ENDBRANCH  12  16
ENDBRANCH   1  10
BRANCH   3  23
ATOM     23  N   UNL     1      -2.052  10.941  18.557  0.00  0.00    +0.000 N 
ATOM     24  C   UNL     1      -1.928  10.855  17.104  0.00  0.00    +0.000 C 
ATOM     25  C   UNL     1      -3.377  11.008  16.606  0.00  0.00    +0.000 C 
ATOM     26  C   UNL     1      -4.133  11.700  17.760  0.00  0.00    +0.000 C 
ATOM     27  C   UNL     1      -3.092  11.918  18.876  0.00  0.00    +0.000 C 
BRANCH  25  28
ATOM     28  O   UNL     1      -3.440  11.738  15.385  0.00  0.00    +0.000 OA
ATOM     29  H   UNL     1      -4.359  12.021  15.252  0.00  0.00    +0.000 HD
ENDBRANCH  25  28
BRANCH  26  30
ATOM     30  O   UNL     1      -5.176  10.834  18.234  0.00  0.00    +0.000 OA
ATOM     31  H   UNL     1      -4.908  10.540  19.125  0.00  0.00    +0.000 HD
ENDBRANCH  26  30
ENDBRANCH   3  23
BRANCH   6  32
ATOM     32  O   UNL     1       1.968   9.430  22.106  0.00  0.00    +0.000 OA
ATOM     33  H   UNL     1       1.965   8.475  22.269  0.00  0.00    +0.000 HD
ENDBRANCH   6  32
TORSDOF 6
ENDMDL
