MODEL 1
REMARK VINA RESULT:      -6.8      0.000      0.000
REMARK  Name = 
REMARK  16 active torsions:
REMARK  status: ('A' for Active; 'I' for Inactive)
REMARK    1  A    between atoms: C_1  and  C_2
REMARK    2  A    between atoms: C_3  and  C_4
REMARK    3  A    between atoms: C_6  and  O_7
REMARK    4  A    between atoms: O_7  and  C_8
REMARK    5  A    between atoms: C_9  and  O_10
REMARK    6  A    between atoms: O_10  and  C_11
REMARK    7  A    between atoms: C_11  and  C_12
REMARK    8  A    between atoms: C_11  and  C_13
REMARK    9  A    between atoms: C_13  and  O_14
REMARK   10  A    between atoms: C_13  and  C_15
REMARK   11  A    between atoms: C_18  and  O_19
REMARK   12  A    between atoms: O_19  and  C_20
REMARK   13  A    between atoms: C_21  and  O_22
REMARK   14  A    between atoms: O_22  and  C_23
REMARK   15  A    between atoms: C_25  and  O_26
REMARK   16  A    between atoms: O_26  and  C_27
REMARK                            x       y       z     vdW  Elec       q    Type
REMARK                         _______ _______ _______ _____ _____    ______ ____
ROOT
ATOM      1  C   UNL     1       2.966   6.342  18.550  0.00  0.00    +0.000 C 
ATOM      2  C   UNL     1       1.847   5.414  18.055  0.00  0.00    +0.000 C 
ENDROOT
BRANCH   1   3
ATOM      3  O   UNL     1       4.224   5.650  18.616  0.00  0.00    +0.000 OA
BRANCH   3   7
ATOM      4  C   UNL     1       5.995   4.181  15.078  0.00  0.00    +0.000 A 
ATOM      5  C   UNL     1       6.197   5.518  15.431  0.00  0.00    +0.000 A 
ATOM      6  C   UNL     1       5.658   6.073  16.604  0.00  0.00    +0.000 A 
ATOM      7  C   UNL     1       4.897   5.260  17.471  0.00  0.00    +0.000 A 
ATOM      8  C   UNL     1       4.770   3.887  17.159  0.00  0.00    +0.000 A 
ATOM      9  C   UNL     1       5.282   3.367  15.955  0.00  0.00    +0.000 A 
BRANCH   4  12
ATOM     10  C   UNL     1       6.008   2.680  11.506  0.00  0.00    +0.000 C 
ATOM     11  C   UNL     1       5.571   3.319  12.783  0.00  0.00    +0.000 C 
ATOM     12  C   UNL     1       6.419   3.672  13.763  0.00  0.00    +0.000 C 
ENDBRANCH   4  12
BRANCH   6  13
ATOM     13  O   UNL     1       5.877   7.388  16.921  0.00  0.00    +0.000 OA
ATOM     14  C   UNL     1       7.145   7.766  17.444  0.00  0.00    +0.000 C 
ENDBRANCH   6  13
BRANCH   8  15
ATOM     15  O   UNL     1       4.097   3.083  18.055  0.00  0.00    +0.000 OA
ATOM     16  C   UNL     1       3.091   2.243  17.487  0.00  0.00    +0.000 C 
ENDBRANCH   8  15
ENDBRANCH   3   7
ENDBRANCH   1   3
BRANCH   1  17
ATOM     17  C   UNL     1       2.623   6.979  19.944  0.00  0.00    +0.000 C 
BRANCH  17  18
ATOM     18  C   UNL     1       1.711   8.199  19.788  0.00  0.00    +0.000 A 
ATOM     19  C   UNL     1       1.675   8.976  18.628  0.00  0.00    +0.000 A 
ATOM     20  C   UNL     1       0.923  10.155  18.588  0.00  0.00    +0.000 A 
ATOM     21  C   UNL     1       0.186  10.585  19.699  0.00  0.00    +0.000 A 
ATOM     22  C   UNL     1       0.196   9.812  20.867  0.00  0.00    +0.000 A 
ATOM     23  C   UNL     1       0.909   8.605  20.874  0.00  0.00    +0.000 A 
BRANCH  21  24
ATOM     24  O   UNL     1      -0.423  11.797  19.508  0.00  0.00    +0.000 OA
ATOM     25  C   UNL     1       0.278  12.748  18.719  0.00  0.00    +0.000 C 
ENDBRANCH  21  24
BRANCH  22  26
ATOM     26  O   UNL     1      -0.490  10.249  21.970  0.00  0.00    +0.000 OA
ATOM     27  C   UNL     1      -0.149   9.619  23.203  0.00  0.00    +0.000 C 
ENDBRANCH  22  26
ENDBRANCH  17  18
BRANCH  17  28
ATOM     28  O   UNL     1       2.056   6.024  20.845  0.00  0.00    +0.000 OA
ATOM     29  H   UNL     1       2.120   6.387  21.742  0.00  0.00    +0.000 HD
ENDBRANCH  17  28
ENDBRANCH   1  17
TORSDOF 10
ENDMDL
MODEL 2
REMARK VINA RESULT:      -6.8      1.964      4.180
REMARK  Name = 
REMARK  16 active torsions:
REMARK  status: ('A' for Active; 'I' for Inactive)
REMARK    1  A    between atoms: C_1  and  C_2
REMARK    2  A    between atoms: C_3  and  C_4
REMARK    3  A    between atoms: C_6  and  O_7
REMARK    4  A    between atoms: O_7  and  C_8
REMARK    5  A    between atoms: C_9  and  O_10
REMARK    6  A    between atoms: O_10  and  C_11
REMARK    7  A    between atoms: C_11  and  C_12
REMARK    8  A    between atoms: C_11  and  C_13
REMARK    9  A    between atoms: C_13  and  O_14
REMARK   10  A    between atoms: C_13  and  C_15
REMARK   11  A    between atoms: C_18  and  O_19
REMARK   12  A    between atoms: O_19  and  C_20
REMARK   13  A    between atoms: C_21  and  O_22
REMARK   14  A    between atoms: O_22  and  C_23
REMARK   15  A    between atoms: C_25  and  O_26
REMARK   16  A    between atoms: O_26  and  C_27
REMARK                            x       y       z     vdW  Elec       q    Type
REMARK                         _______ _______ _______ _____ _____    ______ ____
ROOT
ATOM      1  C   UNL     1       3.950   4.215  17.985  0.00  0.00    +0.000 C 
ATOM      2  C   UNL     1       3.271   2.858  17.747  0.00  0.00    +0.000 C 
ENDROOT
BRANCH   1   3
ATOM      3  O   UNL     1       5.374   4.120  17.814  0.00  0.00    +0.000 OA
BRANCH   3   7
ATOM      4  C   UNL     1       7.559   7.719  17.532  0.00  0.00    +0.000 A 
ATOM      5  C   UNL     1       7.701   6.930  18.676  0.00  0.00    +0.000 A 
ATOM      6  C   UNL     1       7.023   5.709  18.833  0.00  0.00    +0.000 A 
ATOM      7  C   UNL     1       6.179   5.245  17.801  0.00  0.00    +0.000 A 
ATOM      8  C   UNL     1       6.108   5.999  16.607  0.00  0.00    +0.000 A 
ATOM      9  C   UNL     1       6.761   7.241  16.494  0.00  0.00    +0.000 A 
BRANCH   4  12
ATOM     10  C   UNL     1       9.224  11.093  18.458  0.00  0.00    +0.000 C 
ATOM     11  C   UNL     1       8.760   9.674  18.494  0.00  0.00    +0.000 C 
ATOM     12  C   UNL     1       8.137   9.071  17.467  0.00  0.00    +0.000 C 
ENDBRANCH   4  12
BRANCH   6  13
ATOM     13  O   UNL     1       7.187   4.958  19.967  0.00  0.00    +0.000 OA
ATOM     14  C   UNL     1       8.371   5.127  20.737  0.00  0.00    +0.000 C 
ENDBRANCH   6  13
BRANCH   8  15
ATOM     15  O   UNL     1       5.348   5.495  15.573  0.00  0.00    +0.000 OA
ATOM     16  C   UNL     1       6.074   4.789  14.567  0.00  0.00    +0.000 C 
ENDBRANCH   8  15
ENDBRANCH   3   7
ENDBRANCH   1   3
BRANCH   1  17
ATOM     17  C   UNL     1       3.611   4.797  19.403  0.00  0.00    +0.000 C 
BRANCH  17  18
ATOM     18  C   UNL     1       2.855   6.124  19.293  0.00  0.00    +0.000 A 
ATOM     19  C   UNL     1       2.819   6.881  18.119  0.00  0.00    +0.000 A 
ATOM     20  C   UNL     1       2.226   8.148  18.113  0.00  0.00    +0.000 A 
ATOM     21  C   UNL     1       1.651   8.688  19.270  0.00  0.00    +0.000 A 
ATOM     22  C   UNL     1       1.663   7.939  20.453  0.00  0.00    +0.000 A 
ATOM     23  C   UNL     1       2.211   6.648  20.432  0.00  0.00    +0.000 A 
BRANCH  21  24
ATOM     24  O   UNL     1       1.190   9.967  19.100  0.00  0.00    +0.000 OA
ATOM     25  C   UNL     1       0.231  10.169  18.070  0.00  0.00    +0.000 C 
ENDBRANCH  21  24
BRANCH  22  26
ATOM     26  O   UNL     1       1.139   8.479  21.598  0.00  0.00    +0.000 OA
ATOM     27  C   UNL     1      -0.282   8.598  21.636  0.00  0.00    +0.000 C 
ENDBRANCH  22  26
ENDBRANCH  17  18
BRANCH  17  28
ATOM     28  O   UNL     1       2.892   3.860  20.210  0.00  0.00    +0.000 OA
ATOM     29  H   UNL     1       2.221   3.439  19.651  0.00  0.00    +0.000 HD
ENDBRANCH  17  28
ENDBRANCH   1  17
TORSDOF 10
ENDMDL
MODEL 3
REMARK VINA RESULT:      -6.8      2.405      7.737
REMARK  Name = 
REMARK  16 active torsions:
REMARK  status: ('A' for Active; 'I' for Inactive)
REMARK    1  A    between atoms: C_1  and  C_2
REMARK    2  A    between atoms: C_3  and  C_4
REMARK    3  A    between atoms: C_6  and  O_7
REMARK    4  A    between atoms: O_7  and  C_8
REMARK    5  A    between atoms: C_9  and  O_10
REMARK    6  A    between atoms: O_10  and  C_11
REMARK    7  A    between atoms: C_11  and  C_12
REMARK    8  A    between atoms: C_11  and  C_13
REMARK    9  A    between atoms: C_13  and  O_14
REMARK   10  A    between atoms: C_13  and  C_15
REMARK   11  A    between atoms: C_18  and  O_19
REMARK   12  A    between atoms: O_19  and  C_20
REMARK   13  A    between atoms: C_21  and  O_22
REMARK   14  A    between atoms: O_22  and  C_23
REMARK   15  A    between atoms: C_25  and  O_26
REMARK   16  A    between atoms: O_26  and  C_27
REMARK                            x       y       z     vdW  Elec       q    Type
REMARK                         _______ _______ _______ _____ _____    ______ ____
ROOT
ATOM      1  C   UNL     1       3.212   3.083  18.475  0.00  0.00    +0.000 C 
ATOM      2  C   UNL     1       2.616   2.142  17.417  0.00  0.00    +0.000 C 
ENDROOT
BRANCH   1   3
ATOM      3  O   UNL     1       2.950   4.459  18.153  0.00  0.00    +0.000 OA
BRANCH   3   7
ATOM      4  C   UNL     1       1.393   7.418  20.728  0.00  0.00    +0.000 A 
ATOM      5  C   UNL     1       1.218   6.072  21.060  0.00  0.00    +0.000 A 
ATOM      6  C   UNL     1       1.726   5.031  20.264  0.00  0.00    +0.000 A 
ATOM      7  C   UNL     1       2.453   5.342  19.095  0.00  0.00    +0.000 A 
ATOM      8  C   UNL     1       2.707   6.703  18.809  0.00  0.00    +0.000 A 
ATOM      9  C   UNL     1       2.148   7.727  19.598  0.00  0.00    +0.000 A 
BRANCH   4  12
ATOM     10  C   UNL     1      -0.229  10.782  21.759  0.00  0.00    +0.000 C 
ATOM     11  C   UNL     1       0.350   9.665  20.954  0.00  0.00    +0.000 C 
ATOM     12  C   UNL     1       0.704   8.480  21.479  0.00  0.00    +0.000 C 
ENDBRANCH   4  12
BRANCH   6  13
ATOM     13  O   UNL     1       1.538   3.722  20.620  0.00  0.00    +0.000 OA
ATOM     14  C   UNL     1       2.141   3.242  21.815  0.00  0.00    +0.000 C 
ENDBRANCH   6  13
BRANCH   8  15
ATOM     15  O   UNL     1       3.489   6.995  17.711  0.00  0.00    +0.000 OA
ATOM     16  C   UNL     1       3.627   8.384  17.410  0.00  0.00    +0.000 C 
ENDBRANCH   8  15
ENDBRANCH   3   7
ENDBRANCH   1   3
BRANCH   1  17
ATOM     17  C   UNL     1       4.753   2.852  18.660  0.00  0.00    +0.000 C 
BRANCH  17  18
ATOM     18  C   UNL     1       5.561   4.042  18.134  0.00  0.00    +0.000 A 
ATOM     19  C   UNL     1       6.187   4.965  18.976  0.00  0.00    +0.000 A 
ATOM     20  C   UNL     1       6.799   6.105  18.446  0.00  0.00    +0.000 A 
ATOM     21  C   UNL     1       6.809   6.350  17.066  0.00  0.00    +0.000 A 
ATOM     22  C   UNL     1       6.202   5.429  16.204  0.00  0.00    +0.000 A 
ATOM     23  C   UNL     1       5.640   4.263  16.744  0.00  0.00    +0.000 A 
BRANCH  21  24
ATOM     24  O   UNL     1       7.381   7.550  16.734  0.00  0.00    +0.000 OA
ATOM     25  C   UNL     1       7.932   8.312  17.799  0.00  0.00    +0.000 C 
ENDBRANCH  21  24
BRANCH  22  26
ATOM     26  O   UNL     1       6.172   5.684  14.858  0.00  0.00    +0.000 OA
ATOM     27  C   UNL     1       6.992   4.844  14.048  0.00  0.00    +0.000 C 
ENDBRANCH  22  26
ENDBRANCH  17  18
BRANCH  17  28
ATOM     28  O   UNL     1       5.093   2.559  20.019  0.00  0.00    +0.000 OA
ATOM     29  H   UNL     1       5.658   1.771  20.020  0.00  0.00    +0.000 HD
ENDBRANCH  17  28
ENDBRANCH   1  17
TORSDOF 10
ENDMDL
MODEL 4
REMARK VINA RESULT:      -6.6      0.953      1.833
REMARK  Name = 
REMARK  16 active torsions:
REMARK  status: ('A' for Active; 'I' for Inactive)
REMARK    1  A    between atoms: C_1  and  C_2
REMARK    2  A    between atoms: C_3  and  C_4
REMARK    3  A    between atoms: C_6  and  O_7
REMARK    4  A    between atoms: O_7  and  C_8
REMARK    5  A    between atoms: C_9  and  O_10
REMARK    6  A    between atoms: O_10  and  C_11
REMARK    7  A    between atoms: C_11  and  C_12
REMARK    8  A    between atoms: C_11  and  C_13
REMARK    9  A    between atoms: C_13  and  O_14
REMARK   10  A    between atoms: C_13  and  C_15
REMARK   11  A    between atoms: C_18  and  O_19
REMARK   12  A    between atoms: O_19  and  C_20
REMARK   13  A    between atoms: C_21  and  O_22
REMARK   14  A    between atoms: O_22  and  C_23
REMARK   15  A    between atoms: C_25  and  O_26
REMARK   16  A    between atoms: O_26  and  C_27
REMARK                            x       y       z     vdW  Elec       q    Type
REMARK                         _______ _______ _______ _____ _____    ______ ____
ROOT
ATOM      1  C   UNL     1       2.975   6.571  19.007  0.00  0.00    +0.000 C 
ATOM      2  C   UNL     1       2.040   6.027  17.916  0.00  0.00    +0.000 C 
ENDROOT
BRANCH   1   3
ATOM      3  O   UNL     1       4.193   5.813  19.073  0.00  0.00    +0.000 OA
BRANCH   3   7
ATOM      4  C   UNL     1       5.934   4.351  15.517  0.00  0.00    +0.000 A 
ATOM      5  C   UNL     1       6.236   5.650  15.933  0.00  0.00    +0.000 A 
ATOM      6  C   UNL     1       5.712   6.198  17.116  0.00  0.00    +0.000 A 
ATOM      7  C   UNL     1       4.863   5.417  17.929  0.00  0.00    +0.000 A 
ATOM      8  C   UNL     1       4.632   4.073  17.553  0.00  0.00    +0.000 A 
ATOM      9  C   UNL     1       5.132   3.563  16.340  0.00  0.00    +0.000 A 
BRANCH   4  12
ATOM     10  C   UNL     1       5.921   2.977  11.894  0.00  0.00    +0.000 C 
ATOM     11  C   UNL     1       5.500   3.595  13.186  0.00  0.00    +0.000 C 
ATOM     12  C   UNL     1       6.350   3.864  14.191  0.00  0.00    +0.000 C 
ENDBRANCH   4  12
BRANCH   6  13
ATOM     13  O   UNL     1       6.031   7.476  17.497  0.00  0.00    +0.000 OA
ATOM     14  C   UNL     1       7.396   7.873  17.494  0.00  0.00    +0.000 C 
ENDBRANCH   6  13
BRANCH   8  15
ATOM     15  O   UNL     1       3.870   3.291  18.396  0.00  0.00    +0.000 OA
ATOM     16  C   UNL     1       3.177   2.212  17.769  0.00  0.00    +0.000 C 
ENDBRANCH   8  15
ENDBRANCH   3   7
ENDBRANCH   1   3
BRANCH   1  17
ATOM     17  C   UNL     1       2.276   6.601  20.413  0.00  0.00    +0.000 C 
BRANCH  17  18
ATOM     18  C   UNL     1       1.488   7.898  20.615  0.00  0.00    +0.000 A 
ATOM     19  C   UNL     1       0.570   8.073  21.654  0.00  0.00    +0.000 A 
ATOM     20  C   UNL     1      -0.219   9.226  21.714  0.00  0.00    +0.000 A 
ATOM     21  C   UNL     1      -0.110  10.234  20.747  0.00  0.00    +0.000 A 
ATOM     22  C   UNL     1       0.815  10.085  19.707  0.00  0.00    +0.000 A 
ATOM     23  C   UNL     1       1.639   8.950  19.689  0.00  0.00    +0.000 A 
BRANCH  21  24
ATOM     24  O   UNL     1      -1.013  11.250  20.919  0.00  0.00    +0.000 OA
ATOM     25  C   UNL     1      -0.611  12.329  21.751  0.00  0.00    +0.000 C 
ENDBRANCH  21  24
BRANCH  22  26
ATOM     26  O   UNL     1       0.897  11.048  18.735  0.00  0.00    +0.000 OA
ATOM     27  C   UNL     1       2.148  11.140  18.056  0.00  0.00    +0.000 C 
ENDBRANCH  22  26
ENDBRANCH  17  18
BRANCH  17  28
ATOM     28  O   UNL     1       1.447   5.455  20.625  0.00  0.00    +0.000 OA
ATOM     29  H   UNL     1       1.417   4.952  19.796  0.00  0.00    +0.000 HD
ENDBRANCH  17  28
ENDBRANCH   1  17
TORSDOF 10
ENDMDL
MODEL 5
REMARK VINA RESULT:      -6.5      1.397      1.536
REMARK  Name = 
REMARK  16 active torsions:
REMARK  status: ('A' for Active; 'I' for Inactive)
REMARK    1  A    between atoms: C_1  and  C_2
REMARK    2  A    between atoms: C_3  and  C_4
REMARK    3  A    between atoms: C_6  and  O_7
REMARK    4  A    between atoms: O_7  and  C_8
REMARK    5  A    between atoms: C_9  and  O_10
REMARK    6  A    between atoms: O_10  and  C_11
REMARK    7  A    between atoms: C_11  and  C_12
REMARK    8  A    between atoms: C_11  and  C_13
REMARK    9  A    between atoms: C_13  and  O_14
REMARK   10  A    between atoms: C_13  and  C_15
REMARK   11  A    between atoms: C_18  and  O_19
REMARK   12  A    between atoms: O_19  and  C_20
REMARK   13  A    between atoms: C_21  and  O_22
REMARK   14  A    between atoms: O_22  and  C_23
REMARK   15  A    between atoms: C_25  and  O_26
REMARK   16  A    between atoms: O_26  and  C_27
REMARK                            x       y       z     vdW  Elec       q    Type
REMARK                         _______ _______ _______ _____ _____    ______ ____
ROOT
ATOM      1  C   UNL     1       2.608   5.029  19.222  0.00  0.00    +0.000 C 
ATOM      2  C   UNL     1       1.397   4.114  19.456  0.00  0.00    +0.000 C 
ENDROOT
BRANCH   1   3
ATOM      3  O   UNL     1       3.831   4.275  19.193  0.00  0.00    +0.000 OA
BRANCH   3   7
ATOM      4  C   UNL     1       6.015   4.154  15.584  0.00  0.00    +0.000 A 
ATOM      5  C   UNL     1       6.454   4.991  16.613  0.00  0.00    +0.000 A 
ATOM      6  C   UNL     1       5.792   5.069  17.849  0.00  0.00    +0.000 A 
ATOM      7  C   UNL     1       4.653   4.269  18.080  0.00  0.00    +0.000 A 
ATOM      8  C   UNL     1       4.264   3.357  17.072  0.00  0.00    +0.000 A 
ATOM      9  C   UNL     1       4.916   3.331  15.825  0.00  0.00    +0.000 A 
BRANCH   4  12
ATOM     10  C   UNL     1       7.936   5.331  12.431  0.00  0.00    +0.000 C 
ATOM     11  C   UNL     1       7.438   5.203  13.834  0.00  0.00    +0.000 C 
ATOM     12  C   UNL     1       6.617   4.221  14.242  0.00  0.00    +0.000 C 
ENDBRANCH   4  12
BRANCH   6  13
ATOM     13  O   UNL     1       6.252   5.899  18.838  0.00  0.00    +0.000 OA
ATOM     14  C   UNL     1       7.636   5.877  19.165  0.00  0.00    +0.000 C 
ENDBRANCH   6  13
BRANCH   8  15
ATOM     15  O   UNL     1       3.200   2.520  17.339  0.00  0.00    +0.000 OA
ATOM     16  C   UNL     1       3.504   1.384  18.149  0.00  0.00    +0.000 C 
ENDBRANCH   8  15
ENDBRANCH   3   7
ENDBRANCH   1   3
BRANCH   1  17
ATOM     17  C   UNL     1       2.697   6.167  20.299  0.00  0.00    +0.000 C 
BRANCH  17  18
ATOM     18  C   UNL     1       2.077   7.470  19.785  0.00  0.00    +0.000 A 
ATOM     19  C   UNL     1       2.300   7.958  18.495  0.00  0.00    +0.000 A 
ATOM     20  C   UNL     1       1.818   9.217  18.122  0.00  0.00    +0.000 A 
ATOM     21  C   UNL     1       1.098  10.016  19.020  0.00  0.00    +0.000 A 
ATOM     22  C   UNL     1       0.850   9.538  20.312  0.00  0.00    +0.000 A 
ATOM     23  C   UNL     1       1.291   8.252  20.656  0.00  0.00    +0.000 A 
BRANCH  21  24
ATOM     24  O   UNL     1       0.775  11.246  18.511  0.00  0.00    +0.000 OA
ATOM     25  C   UNL     1       1.734  12.281  18.681  0.00  0.00    +0.000 C 
ENDBRANCH  21  24
BRANCH  22  26
ATOM     26  O   UNL     1       0.184  10.333  21.208  0.00  0.00    +0.000 OA
ATOM     27  C   UNL     1       0.024   9.793  22.519  0.00  0.00    +0.000 C 
ENDBRANCH  22  26
ENDBRANCH  17  18
BRANCH  17  28
ATOM     28  O   UNL     1       2.111   5.775  21.545  0.00  0.00    +0.000 OA
ATOM     29  H   UNL     1       2.448   4.893  21.767  0.00  0.00    +0.000 HD
ENDBRANCH  17  28
ENDBRANCH   1  17
TORSDOF 10
ENDMDL
MODEL 6
REMARK VINA RESULT:      -6.5      2.322      8.062
REMARK  Name = 
REMARK  16 active torsions:
REMARK  status: ('A' for Active; 'I' for Inactive)
REMARK    1  A    between atoms: C_1  and  C_2
REMARK    2  A    between atoms: C_3  and  C_4
REMARK    3  A    between atoms: C_6  and  O_7
REMARK    4  A    between atoms: O_7  and  C_8
REMARK    5  A    between atoms: C_9  and  O_10
REMARK    6  A    between atoms: O_10  and  C_11
REMARK    7  A    between atoms: C_11  and  C_12
REMARK    8  A    between atoms: C_11  and  C_13
REMARK    9  A    between atoms: C_13  and  O_14
REMARK   10  A    between atoms: C_13  and  C_15
REMARK   11  A    between atoms: C_18  and  O_19
REMARK   12  A    between atoms: O_19  and  C_20
REMARK   13  A    between atoms: C_21  and  O_22
REMARK   14  A    between atoms: O_22  and  C_23
REMARK   15  A    between atoms: C_25  and  O_26
REMARK   16  A    between atoms: O_26  and  C_27
REMARK                            x       y       z     vdW  Elec       q    Type
REMARK                         _______ _______ _______ _____ _____    ______ ____
ROOT
ATOM      1  C   UNL     1       3.147   3.589  18.406  0.00  0.00    +0.000 C 
ATOM      2  C   UNL     1       2.469   2.575  17.473  0.00  0.00    +0.000 C 
ENDROOT
BRANCH   1   3
ATOM      3  O   UNL     1       2.841   4.938  18.017  0.00  0.00    +0.000 OA
BRANCH   3   7
ATOM      4  C   UNL     1       1.508   8.050  20.536  0.00  0.00    +0.000 A 
ATOM      5  C   UNL     1       1.620   6.759  21.058  0.00  0.00    +0.000 A 
ATOM      6  C   UNL     1       2.076   5.676  20.287  0.00  0.00    +0.000 A 
ATOM      7  C   UNL     1       2.453   5.889  18.944  0.00  0.00    +0.000 A 
ATOM      8  C   UNL     1       2.425   7.212  18.445  0.00  0.00    +0.000 A 
ATOM      9  C   UNL     1       1.920   8.271  19.224  0.00  0.00    +0.000 A 
BRANCH   4  12
ATOM     10  C   UNL     1      -0.614  10.005  23.123  0.00  0.00    +0.000 C 
ATOM     11  C   UNL     1       0.145   8.925  22.425  0.00  0.00    +0.000 C 
ATOM     12  C   UNL     1       0.863   9.126  21.307  0.00  0.00    +0.000 C 
ENDBRANCH   4  12
BRANCH   6  13
ATOM     13  O   UNL     1       2.177   4.423  20.831  0.00  0.00    +0.000 OA
ATOM     14  C   UNL     1       1.025   3.588  20.851  0.00  0.00    +0.000 C 
ENDBRANCH   6  13
BRANCH   8  15
ATOM     15  O   UNL     1       2.874   7.424  17.158  0.00  0.00    +0.000 OA
ATOM     16  C   UNL     1       4.173   8.007  17.051  0.00  0.00    +0.000 C 
ENDBRANCH   8  15
ENDBRANCH   3   7
ENDBRANCH   1   3
BRANCH   1  17
ATOM     17  C   UNL     1       4.702   3.379  18.464  0.00  0.00    +0.000 C 
BRANCH  17  18
ATOM     18  C   UNL     1       5.396   4.025  17.262  0.00  0.00    +0.000 A 
ATOM     19  C   UNL     1       5.333   3.489  15.972  0.00  0.00    +0.000 A 
ATOM     20  C   UNL     1       6.093   4.044  14.938  0.00  0.00    +0.000 A 
ATOM     21  C   UNL     1       6.928   5.147  15.159  0.00  0.00    +0.000 A 
ATOM     22  C   UNL     1       6.993   5.708  16.440  0.00  0.00    +0.000 A 
ATOM     23  C   UNL     1       6.184   5.177  17.455  0.00  0.00    +0.000 A 
BRANCH  21  24
ATOM     24  O   UNL     1       7.655   5.506  14.055  0.00  0.00    +0.000 OA
ATOM     25  C   UNL     1       7.416   4.768  12.864  0.00  0.00    +0.000 C 
ENDBRANCH  21  24
BRANCH  22  26
ATOM     26  O   UNL     1       7.840   6.761  16.672  0.00  0.00    +0.000 OA
ATOM     27  C   UNL     1       7.727   7.378  17.954  0.00  0.00    +0.000 C 
ENDBRANCH  22  26
ENDBRANCH  17  18
BRANCH  17  28
ATOM     28  O   UNL     1       5.261   3.849  19.695  0.00  0.00    +0.000 OA
ATOM     29  H   UNL     1       5.444   3.077  20.252  0.00  0.00    +0.000 HD
ENDBRANCH  17  28
ENDBRANCH   1  17
TORSDOF 10
ENDMDL
MODEL 7
REMARK VINA RESULT:      -6.4      2.015      4.301
REMARK  Name = 
REMARK  16 active torsions:
REMARK  status: ('A' for Active; 'I' for Inactive)
REMARK    1  A    between atoms: C_1  and  C_2
REMARK    2  A    between atoms: C_3  and  C_4
REMARK    3  A    between atoms: C_6  and  O_7
REMARK    4  A    between atoms: O_7  and  C_8
REMARK    5  A    between atoms: C_9  and  O_10
REMARK    6  A    between atoms: O_10  and  C_11
REMARK    7  A    between atoms: C_11  and  C_12
REMARK    8  A    between atoms: C_11  and  C_13
REMARK    9  A    between atoms: C_13  and  O_14
REMARK   10  A    between atoms: C_13  and  C_15
REMARK   11  A    between atoms: C_18  and  O_19
REMARK   12  A    between atoms: O_19  and  C_20
REMARK   13  A    between atoms: C_21  and  O_22
REMARK   14  A    between atoms: O_22  and  C_23
REMARK   15  A    between atoms: C_25  and  O_26
REMARK   16  A    between atoms: O_26  and  C_27
REMARK                            x       y       z     vdW  Elec       q    Type
REMARK                         _______ _______ _______ _____ _____    ______ ____
ROOT
ATOM      1  C   UNL     1       4.148   4.087  18.182  0.00  0.00    +0.000 C 
ATOM      2  C   UNL     1       3.732   2.620  17.997  0.00  0.00    +0.000 C 
ENDROOT
BRANCH   1   3
ATOM      3  O   UNL     1       5.577   4.233  18.129  0.00  0.00    +0.000 OA
BRANCH   3   7
ATOM      4  C   UNL     1       7.705   7.849  17.680  0.00  0.00    +0.000 A 
ATOM      5  C   UNL     1       6.780   7.482  16.699  0.00  0.00    +0.000 A 
ATOM      6  C   UNL     1       6.019   6.305  16.790  0.00  0.00    +0.000 A 
ATOM      7  C   UNL     1       6.173   5.462  17.912  0.00  0.00    +0.000 A 
ATOM      8  C   UNL     1       7.041   5.880  18.946  0.00  0.00    +0.000 A 
ATOM      9  C   UNL     1       7.826   7.041  18.809  0.00  0.00    +0.000 A 
BRANCH   4  12
ATOM     10  C   UNL     1       9.692  11.142  18.150  0.00  0.00    +0.000 C 
ATOM     11  C   UNL     1       8.876   9.919  18.411  0.00  0.00    +0.000 C 
ATOM     12  C   UNL     1       8.613   8.990  17.477  0.00  0.00    +0.000 C 
ENDBRANCH   4  12
BRANCH   6  13
ATOM     13  O   UNL     1       5.118   5.976  15.811  0.00  0.00    +0.000 OA
ATOM     14  C   UNL     1       5.509   5.059  14.797  0.00  0.00    +0.000 C 
ENDBRANCH   6  13
BRANCH   8  15
ATOM     15  O   UNL     1       7.122   5.093  20.075  0.00  0.00    +0.000 OA
ATOM     16  C   UNL     1       8.383   5.114  20.746  0.00  0.00    +0.000 C 
ENDBRANCH   8  15
ENDBRANCH   3   7
ENDBRANCH   1   3
BRANCH   1  17
ATOM     17  C   UNL     1       3.590   4.688  19.521  0.00  0.00    +0.000 C 
BRANCH  17  18
ATOM     18  C   UNL     1       2.869   6.016  19.276  0.00  0.00    +0.000 A 
ATOM     19  C   UNL     1       2.824   6.636  18.024  0.00  0.00    +0.000 A 
ATOM     20  C   UNL     1       2.266   7.911  17.885  0.00  0.00    +0.000 A 
ATOM     21  C   UNL     1       1.736   8.597  18.986  0.00  0.00    +0.000 A 
ATOM     22  C   UNL     1       1.757   7.987  20.246  0.00  0.00    +0.000 A 
ATOM     23  C   UNL     1       2.268   6.686  20.362  0.00  0.00    +0.000 A 
BRANCH  21  24
ATOM     24  O   UNL     1       1.307   9.861  18.680  0.00  0.00    +0.000 OA
ATOM     25  C   UNL     1      -0.070  10.009  18.358  0.00  0.00    +0.000 C 
ENDBRANCH  21  24
BRANCH  22  26
ATOM     26  O   UNL     1       1.278   8.670  21.333  0.00  0.00    +0.000 OA
ATOM     27  C   UNL     1      -0.091   8.435  21.661  0.00  0.00    +0.000 C 
ENDBRANCH  22  26
ENDBRANCH  17  18
BRANCH  17  28
ATOM     28  O   UNL     1       2.746   3.764  20.214  0.00  0.00    +0.000 OA
ATOM     29  H   UNL     1       2.784   2.916  19.744  0.00  0.00    +0.000 HD
ENDBRANCH  17  28
ENDBRANCH   1  17
TORSDOF 10
ENDMDL
MODEL 8
REMARK VINA RESULT:      -6.4      2.106      7.982
REMARK  Name = 
REMARK  16 active torsions:
REMARK  status: ('A' for Active; 'I' for Inactive)
REMARK    1  A    between atoms: C_1  and  C_2
REMARK    2  A    between atoms: C_3  and  C_4
REMARK    3  A    between atoms: C_6  and  O_7
REMARK    4  A    between atoms: O_7  and  C_8
REMARK    5  A    between atoms: C_9  and  O_10
REMARK    6  A    between atoms: O_10  and  C_11
REMARK    7  A    between atoms: C_11  and  C_12
REMARK    8  A    between atoms: C_11  and  C_13
REMARK    9  A    between atoms: C_13  and  O_14
REMARK   10  A    between atoms: C_13  and  C_15
REMARK   11  A    between atoms: C_18  and  O_19
REMARK   12  A    between atoms: O_19  and  C_20
REMARK   13  A    between atoms: C_21  and  O_22
REMARK   14  A    between atoms: O_22  and  C_23
REMARK   15  A    between atoms: C_25  and  O_26
REMARK   16  A    between atoms: O_26  and  C_27
REMARK                            x       y       z     vdW  Elec       q    Type
REMARK                         _______ _______ _______ _____ _____    ______ ____
ROOT
ATOM      1  C   UNL     1       3.205   4.264  18.453  0.00  0.00    +0.000 C 
ATOM      2  C   UNL     1       2.262   4.398  17.248  0.00  0.00    +0.000 C 
ENDROOT
BRANCH   1   3
ATOM      3  O   UNL     1       3.573   5.553  18.971  0.00  0.00    +0.000 OA
BRANCH   3   7
ATOM      4  C   UNL     1       0.812   7.945  21.083  0.00  0.00    +0.000 A 
ATOM      5  C   UNL     1       1.393   8.452  19.917  0.00  0.00    +0.000 A 
ATOM      6  C   UNL     1       2.304   7.707  19.150  0.00  0.00    +0.000 A 
ATOM      7  C   UNL     1       2.640   6.396  19.549  0.00  0.00    +0.000 A 
ATOM      8  C   UNL     1       1.982   5.852  20.676  0.00  0.00    +0.000 A 
ATOM      9  C   UNL     1       1.109   6.635  21.454  0.00  0.00    +0.000 A 
BRANCH   4  12
ATOM     10  C   UNL     1      -0.926  11.003  22.709  0.00  0.00    +0.000 C 
ATOM     11  C   UNL     1      -0.215  10.113  21.743  0.00  0.00    +0.000 C 
ATOM     12  C   UNL     1       0.002   8.805  21.961  0.00  0.00    +0.000 C 
ENDBRANCH   4  12
BRANCH   6  13
ATOM     13  O   UNL     1       2.854   8.234  18.010  0.00  0.00    +0.000 OA
ATOM     14  C   UNL     1       2.366   9.477  17.524  0.00  0.00    +0.000 C 
ENDBRANCH   6  13
BRANCH   8  15
ATOM     15  O   UNL     1       2.254   4.541  21.009  0.00  0.00    +0.000 OA
ATOM     16  C   UNL     1       1.144   3.647  20.929  0.00  0.00    +0.000 C 
ENDBRANCH   8  15
ENDBRANCH   3   7
ENDBRANCH   1   3
BRANCH   1  17
ATOM     17  C   UNL     1       4.489   3.432  18.100  0.00  0.00    +0.000 C 
BRANCH  17  18
ATOM     18  C   UNL     1       5.288   4.094  16.974  0.00  0.00    +0.000 A 
ATOM     19  C   UNL     1       5.288   3.614  15.661  0.00  0.00    +0.000 A 
ATOM     20  C   UNL     1       6.137   4.175  14.703  0.00  0.00    +0.000 A 
ATOM     21  C   UNL     1       7.002   5.230  15.024  0.00  0.00    +0.000 A 
ATOM     22  C   UNL     1       7.005   5.736  16.330  0.00  0.00    +0.000 A 
ATOM     23  C   UNL     1       6.109   5.201  17.267  0.00  0.00    +0.000 A 
BRANCH  21  24
ATOM     24  O   UNL     1       7.815   5.600  13.986  0.00  0.00    +0.000 OA
ATOM     25  C   UNL     1       7.593   4.955  12.739  0.00  0.00    +0.000 C 
ENDBRANCH  21  24
BRANCH  22  26
ATOM     26  O   UNL     1       7.878   6.739  16.661  0.00  0.00    +0.000 OA
ATOM     27  C   UNL     1       7.334   7.804  17.440  0.00  0.00    +0.000 C 
ENDBRANCH  22  26
ENDBRANCH  17  18
BRANCH  17  28
ATOM     28  O   UNL     1       5.312   3.202  19.248  0.00  0.00    +0.000 OA
ATOM     29  H   UNL     1       6.159   3.649  19.101  0.00  0.00    +0.000 HD
ENDBRANCH  17  28
ENDBRANCH   1  17
TORSDOF 10
ENDMDL
MODEL 9
REMARK VINA RESULT:      -6.4      3.078      9.130
REMARK  Name = 
REMARK  16 active torsions:
REMARK  status: ('A' for Active; 'I' for Inactive)
REMARK    1  A    between atoms: C_1  and  C_2
REMARK    2  A    between atoms: C_3  and  C_4
REMARK    3  A    between atoms: C_6  and  O_7
REMARK    4  A    between atoms: O_7  and  C_8
REMARK    5  A    between atoms: C_9  and  O_10
REMARK    6  A    between atoms: O_10  and  C_11
REMARK    7  A    between atoms: C_11  and  C_12
REMARK    8  A    between atoms: C_11  and  C_13
REMARK    9  A    between atoms: C_13  and  O_14
REMARK   10  A    between atoms: C_13  and  C_15
REMARK   11  A    between atoms: C_18  and  O_19
REMARK   12  A    between atoms: O_19  and  C_20
REMARK   13  A    between atoms: C_21  and  O_22
REMARK   14  A    between atoms: O_22  and  C_23
REMARK   15  A    between atoms: C_25  and  O_26
REMARK   16  A    between atoms: O_26  and  C_27
REMARK                            x       y       z     vdW  Elec       q    Type
REMARK                         _______ _______ _______ _____ _____    ______ ____
ROOT
ATOM      1  C   UNL     1       1.737   8.941  18.297  0.00  0.00    +0.000 C 
ATOM      2  C   UNL     1       2.311  10.329  17.974  0.00  0.00    +0.000 C 
ENDROOT
BRANCH   1   3
ATOM      3  O   UNL     1       0.891   8.987  19.459  0.00  0.00    +0.000 OA
BRANCH   3   7
ATOM      4  C   UNL     1      -1.633  12.270  20.269  0.00  0.00    +0.000 A 
ATOM      5  C   UNL     1      -1.799  11.568  19.072  0.00  0.00    +0.000 A 
ATOM      6  C   UNL     1      -1.012  10.452  18.743  0.00  0.00    +0.000 A 
ATOM      7  C   UNL     1      -0.026  10.005  19.648  0.00  0.00    +0.000 A 
ATOM      8  C   UNL     1       0.078  10.659  20.897  0.00  0.00    +0.000 A 
ATOM      9  C   UNL     1      -0.691  11.803  21.184  0.00  0.00    +0.000 A 
BRANCH   4  12
ATOM     10  C   UNL     1      -4.388  14.905  20.960  0.00  0.00    +0.000 C 
ATOM     11  C   UNL     1      -3.645  13.615  20.847  0.00  0.00    +0.000 C 
ATOM     12  C   UNL     1      -2.346  13.535  20.511  0.00  0.00    +0.000 C 
ENDBRANCH   4  12
BRANCH   6  13
ATOM     13  O   UNL     1      -1.203   9.785  17.561  0.00  0.00    +0.000 OA
ATOM     14  C   UNL     1      -2.370  10.063  16.796  0.00  0.00    +0.000 C 
ENDBRANCH   6  13
BRANCH   8  15
ATOM     15  O   UNL     1       0.987  10.163  21.809  0.00  0.00    +0.000 OA
ATOM     16  C   UNL     1       0.418   9.497  22.937  0.00  0.00    +0.000 C 
ENDBRANCH   8  15
ENDBRANCH   3   7
ENDBRANCH   1   3
BRANCH   1  17
ATOM     17  C   UNL     1       2.869   7.872  18.492  0.00  0.00    +0.000 C 
BRANCH  17  18
ATOM     18  C   UNL     1       2.296   6.535  18.971  0.00  0.00    +0.000 A 
ATOM     19  C   UNL     1       2.032   6.261  20.316  0.00  0.00    +0.000 A 
ATOM     20  C   UNL     1       1.635   4.981  20.712  0.00  0.00    +0.000 A 
ATOM     21  C   UNL     1       1.485   3.944  19.782  0.00  0.00    +0.000 A 
ATOM     22  C   UNL     1       1.730   4.202  18.427  0.00  0.00    +0.000 A 
ATOM     23  C   UNL     1       2.074   5.504  18.036  0.00  0.00    +0.000 A 
BRANCH  21  24
ATOM     24  O   UNL     1       1.169   2.741  20.356  0.00  0.00    +0.000 OA
ATOM     25  C   UNL     1       1.507   2.579  21.727  0.00  0.00    +0.000 C 
ENDBRANCH  21  24
BRANCH  22  26
ATOM     26  O   UNL     1       1.626   3.182  17.518  0.00  0.00    +0.000 OA
ATOM     27  C   UNL     1       2.757   2.317  17.422  0.00  0.00    +0.000 C 
ENDBRANCH  22  26
ENDBRANCH  17  18
BRANCH  17  28
ATOM     28  O   UNL     1       3.655   7.700  17.308  0.00  0.00    +0.000 OA
ATOM     29  H   UNL     1       4.585   7.834  17.547  0.00  0.00    +0.000 HD
ENDBRANCH  17  28
ENDBRANCH   1  17
TORSDOF 10
ENDMDL
