MODEL 1
REMARK VINA RESULT:      -7.3      0.000      0.000
REMARK  Name = 
REMARK  2 active torsions:
REMARK  status: ('A' for Active; 'I' for Inactive)
REMARK    1  A    between atoms: C_6  and  C_7
REMARK    2  A    between atoms: N_11  and  C_12
REMARK                            x       y       z     vdW  Elec       q    Type
REMARK                         _______ _______ _______ _____ _____    ______ ____
ROOT
ATOM      1  C   UNL     1       2.218   6.391  19.393  0.00  0.00    +0.000 A 
ATOM      2  C   UNL     1       2.448   6.730  18.064  0.00  0.00    +0.000 A 
ATOM      3  C   UNL     1       2.362   8.064  17.669  0.00  0.00    +0.000 A 
ATOM      4  C   UNL     1       2.009   9.040  18.584  0.00  0.00    +0.000 A 
ATOM      5  N   UNL     1       1.789  10.320  18.122  0.00  0.00    +0.000 N 
ATOM      6  N   UNL     1       1.792   8.686  19.863  0.00  0.00    +0.000 NA
ATOM      7  N   UNL     1       1.934   7.366  20.273  0.00  0.00    +0.000 NA
ATOM      8  H   UNL     1       2.440  10.683  17.436  0.00  0.00    +0.000 HD
ENDROOT
BRANCH   1  14
ATOM      9 CL   UNL     1       4.824   1.845  20.358  0.00  0.00    +0.000 Cl
ATOM     10  C   UNL     1       3.434   2.883  20.369  0.00  0.00    +0.000 A 
ATOM     11  C   UNL     1       2.271   2.358  20.935  0.00  0.00    +0.000 A 
ATOM     12  C   UNL     1       1.116   3.126  20.981  0.00  0.00    +0.000 A 
ATOM     13  C   UNL     1       1.124   4.415  20.450  0.00  0.00    +0.000 A 
ATOM     14  C   UNL     1       2.287   4.995  19.886  0.00  0.00    +0.000 A 
ATOM     15  C   UNL     1       3.458   4.197  19.854  0.00  0.00    +0.000 A 
ATOM     16 CL   UNL     1       4.970   4.825  19.258  0.00  0.00    +0.000 Cl
ENDBRANCH   1  14
BRANCH   5  17
ATOM     17  C   UNL     1       0.921  11.261  18.819  0.00  0.00    +0.000 C 
ATOM     18  C   UNL     1      -0.499  11.040  18.285  0.00  0.00    +0.000 C 
ATOM     19  C   UNL     1      -1.426  12.198  18.605  0.00  0.00    +0.000 C 
ATOM     20  O   UNL     1      -0.850  13.429  18.175  0.00  0.00    +0.000 OA
ATOM     21  C   UNL     1       0.349  13.721  18.885  0.00  0.00    +0.000 C 
ATOM     22  C   UNL     1       1.418  12.688  18.569  0.00  0.00    +0.000 C 
ENDBRANCH   5  17
TORSDOF 2
ENDMDL
MODEL 2
REMARK VINA RESULT:      -7.1      2.815      3.526
REMARK  Name = 
REMARK  2 active torsions:
REMARK  status: ('A' for Active; 'I' for Inactive)
REMARK    1  A    between atoms: C_6  and  C_7
REMARK    2  A    between atoms: N_11  and  C_12
REMARK                            x       y       z     vdW  Elec       q    Type
REMARK                         _______ _______ _______ _____ _____    ______ ____
ROOT
ATOM      1  C   UNL     1       2.742   7.103  18.282  0.00  0.00    +0.000 A 
ATOM      2  C   UNL     1       2.517   8.204  17.464  0.00  0.00    +0.000 A 
ATOM      3  C   UNL     1       1.859   9.320  17.977  0.00  0.00    +0.000 A 
ATOM      4  C   UNL     1       1.395   9.317  19.281  0.00  0.00    +0.000 A 
ATOM      5  N   UNL     1       0.620  10.377  19.701  0.00  0.00    +0.000 N 
ATOM      6  N   UNL     1       1.626   8.240  20.052  0.00  0.00    +0.000 NA
ATOM      7  N   UNL     1       2.333   7.149  19.562  0.00  0.00    +0.000 NA
ATOM      8  H   UNL     1       0.915  11.305  19.422  0.00  0.00    +0.000 HD
ENDROOT
BRANCH   1  14
ATOM      9 CL   UNL     1       3.189   1.814  17.811  0.00  0.00    +0.000 Cl
ATOM     10  C   UNL     1       3.683   3.455  17.543  0.00  0.00    +0.000 A 
ATOM     11  C   UNL     1       4.830   3.640  16.768  0.00  0.00    +0.000 A 
ATOM     12  C   UNL     1       5.290   4.922  16.508  0.00  0.00    +0.000 A 
ATOM     13  C   UNL     1       4.609   6.019  17.033  0.00  0.00    +0.000 A 
ATOM     14  C   UNL     1       3.430   5.879  17.807  0.00  0.00    +0.000 A 
ATOM     15  C   UNL     1       2.972   4.561  18.056  0.00  0.00    +0.000 A 
ATOM     16 CL   UNL     1       1.493   4.263  18.926  0.00  0.00    +0.000 Cl
ENDBRANCH   1  14
BRANCH   5  17
ATOM     17  C   UNL     1      -0.344  10.254  20.787  0.00  0.00    +0.000 C 
ATOM     18  C   UNL     1      -0.954  11.644  21.003  0.00  0.00    +0.000 C 
ATOM     19  C   UNL     1      -1.657  11.768  22.341  0.00  0.00    +0.000 C 
ATOM     20  O   UNL     1      -0.790  11.366  23.398  0.00  0.00    +0.000 OA
ATOM     21  C   UNL     1      -0.447   9.987  23.297  0.00  0.00    +0.000 C 
ATOM     22  C   UNL     1       0.367   9.733  22.039  0.00  0.00    +0.000 C 
ENDBRANCH   5  17
TORSDOF 2
ENDMDL
MODEL 3
REMARK VINA RESULT:      -7.1      6.584      7.474
REMARK  Name = 
REMARK  2 active torsions:
REMARK  status: ('A' for Active; 'I' for Inactive)
REMARK    1  A    between atoms: C_6  and  C_7
REMARK    2  A    between atoms: N_11  and  C_12
REMARK                            x       y       z     vdW  Elec       q    Type
REMARK                         _______ _______ _______ _____ _____    ______ ____
ROOT
ATOM      1  C   UNL     1       7.181   6.810  17.449  0.00  0.00    +0.000 A 
ATOM      2  C   UNL     1       7.974   6.674  18.583  0.00  0.00    +0.000 A 
ATOM      3  C   UNL     1       8.624   7.790  19.107  0.00  0.00    +0.000 A 
ATOM      4  C   UNL     1       8.516   9.018  18.478  0.00  0.00    +0.000 A 
ATOM      5  N   UNL     1       9.293  10.059  18.940  0.00  0.00    +0.000 N 
ATOM      6  N   UNL     1       7.742   9.123  17.383  0.00  0.00    +0.000 NA
ATOM      7  N   UNL     1       7.046   8.026  16.892  0.00  0.00    +0.000 NA
ATOM      8  H   UNL     1       9.369  10.169  19.944  0.00  0.00    +0.000 HD
ENDROOT
BRANCH   1  14
ATOM      9 CL   UNL     1       3.175   3.303  17.246  0.00  0.00    +0.000 Cl
ATOM     10  C   UNL     1       4.638   4.040  16.676  0.00  0.00    +0.000 A 
ATOM     11  C   UNL     1       5.173   3.526  15.493  0.00  0.00    +0.000 A 
ATOM     12  C   UNL     1       6.342   4.061  14.972  0.00  0.00    +0.000 A 
ATOM     13  C   UNL     1       6.981   5.104  15.642  0.00  0.00    +0.000 A 
ATOM     14  C   UNL     1       6.463   5.670  16.833  0.00  0.00    +0.000 A 
ATOM     15  C   UNL     1       5.264   5.113  17.346  0.00  0.00    +0.000 A 
ATOM     16 CL   UNL     1       4.488   5.774  18.758  0.00  0.00    +0.000 Cl
ENDBRANCH   1  14
BRANCH   5  17
ATOM     17  C   UNL     1       9.685  11.175  18.089  0.00  0.00    +0.000 C 
ATOM     18  C   UNL     1      11.183  11.407  18.318  0.00  0.00    +0.000 C 
ATOM     19  C   UNL     1      11.641  12.767  17.826  0.00  0.00    +0.000 C 
ATOM     20  O   UNL     1      10.823  13.797  18.376  0.00  0.00    +0.000 OA
ATOM     21  C   UNL     1       9.475  13.688  17.930  0.00  0.00    +0.000 C 
ATOM     22  C   UNL     1       8.846  12.405  18.449  0.00  0.00    +0.000 C 
ENDBRANCH   5  17
TORSDOF 2
ENDMDL
MODEL 4
REMARK VINA RESULT:      -7.1      4.973      7.448
REMARK  Name = 
REMARK  2 active torsions:
REMARK  status: ('A' for Active; 'I' for Inactive)
REMARK    1  A    between atoms: C_6  and  C_7
REMARK    2  A    between atoms: N_11  and  C_12
REMARK                            x       y       z     vdW  Elec       q    Type
REMARK                         _______ _______ _______ _____ _____    ______ ____
ROOT
ATOM      1  C   UNL     1       1.323   8.881  19.880  0.00  0.00    +0.000 A 
ATOM      2  C   UNL     1       1.467   9.436  18.614  0.00  0.00    +0.000 A 
ATOM      3  C   UNL     1       2.237   8.777  17.657  0.00  0.00    +0.000 A 
ATOM      4  C   UNL     1       2.887   7.598  17.977  0.00  0.00    +0.000 A 
ATOM      5  N   UNL     1       3.756   7.060  17.052  0.00  0.00    +0.000 N 
ATOM      6  N   UNL     1       2.731   7.082  19.208  0.00  0.00    +0.000 NA
ATOM      7  N   UNL     1       1.918   7.706  20.146  0.00  0.00    +0.000 NA
ATOM      8  H   UNL     1       3.459   7.060  16.083  0.00  0.00    +0.000 HD
ENDROOT
BRANCH   1  14
ATOM      9 CL   UNL     1      -2.275  12.404  21.621  0.00  0.00    +0.000 Cl
ATOM     10  C   UNL     1      -1.132  11.113  21.811  0.00  0.00    +0.000 A 
ATOM     11  C   UNL     1      -0.976  10.606  23.102  0.00  0.00    +0.000 A 
ATOM     12  C   UNL     1      -0.080   9.572  23.337  0.00  0.00    +0.000 A 
ATOM     13  C   UNL     1       0.667   9.055  22.280  0.00  0.00    +0.000 A 
ATOM     14  C   UNL     1       0.525   9.524  20.950  0.00  0.00    +0.000 A 
ATOM     15  C   UNL     1      -0.399  10.577  20.731  0.00  0.00    +0.000 A 
ATOM     16 CL   UNL     1      -0.719  11.185  19.130  0.00  0.00    +0.000 Cl
ENDBRANCH   1  14
BRANCH   5  17
ATOM     17  C   UNL     1       4.864   6.195  17.436  0.00  0.00    +0.000 C 
ATOM     18  C   UNL     1       6.132   7.058  17.416  0.00  0.00    +0.000 C 
ATOM     19  C   UNL     1       7.400   6.226  17.392  0.00  0.00    +0.000 C 
ATOM     20  O   UNL     1       7.352   5.275  16.331  0.00  0.00    +0.000 OA
ATOM     21  C   UNL     1       6.304   4.330  16.523  0.00  0.00    +0.000 C 
ATOM     22  C   UNL     1       4.950   5.017  16.460  0.00  0.00    +0.000 C 
ENDBRANCH   5  17
TORSDOF 2
ENDMDL
MODEL 5
REMARK VINA RESULT:      -7.1      2.192      2.533
REMARK  Name = 
REMARK  2 active torsions:
REMARK  status: ('A' for Active; 'I' for Inactive)
REMARK    1  A    between atoms: C_6  and  C_7
REMARK    2  A    between atoms: N_11  and  C_12
REMARK                            x       y       z     vdW  Elec       q    Type
REMARK                         _______ _______ _______ _____ _____    ______ ____
ROOT
ATOM      1  C   UNL     1       2.682   7.126  18.804  0.00  0.00    +0.000 A 
ATOM      2  C   UNL     1       2.723   7.985  17.712  0.00  0.00    +0.000 A 
ATOM      3  C   UNL     1       2.058   9.209  17.773  0.00  0.00    +0.000 A 
ATOM      4  C   UNL     1       1.327   9.549  18.899  0.00  0.00    +0.000 A 
ATOM      5  N   UNL     1       0.565  10.696  18.860  0.00  0.00    +0.000 N 
ATOM      6  N   UNL     1       1.305   8.700  19.941  0.00  0.00    +0.000 NA
ATOM      7  N   UNL     1       2.014   7.506  19.906  0.00  0.00    +0.000 NA
ATOM      8  H   UNL     1       0.983  11.516  18.436  0.00  0.00    +0.000 HD
ENDROOT
BRANCH   1  14
ATOM      9 CL   UNL     1       2.867   1.902  17.768  0.00  0.00    +0.000 Cl
ATOM     10  C   UNL     1       3.512   3.405  18.346  0.00  0.00    +0.000 A 
ATOM     11  C   UNL     1       4.819   3.374  18.835  0.00  0.00    +0.000 A 
ATOM     12  C   UNL     1       5.407   4.535  19.316  0.00  0.00    +0.000 A 
ATOM     13  C   UNL     1       4.681   5.725  19.317  0.00  0.00    +0.000 A 
ATOM     14  C   UNL     1       3.360   5.808  18.811  0.00  0.00    +0.000 A 
ATOM     15  C   UNL     1       2.780   4.612  18.318  0.00  0.00    +0.000 A 
ATOM     16 CL   UNL     1       1.194   4.601  17.599  0.00  0.00    +0.000 Cl
ENDBRANCH   1  14
BRANCH   5  17
ATOM     17  C   UNL     1      -0.617  10.874  19.695  0.00  0.00    +0.000 C 
ATOM     18  C   UNL     1      -1.683  11.548  18.823  0.00  0.00    +0.000 C 
ATOM     19  C   UNL     1      -2.802  12.161  19.644  0.00  0.00    +0.000 C 
ATOM     20  O   UNL     1      -2.268  13.024  20.646  0.00  0.00    +0.000 OA
ATOM     21  C   UNL     1      -1.480  12.305  21.590  0.00  0.00    +0.000 C 
ATOM     22  C   UNL     1      -0.249  11.720  20.918  0.00  0.00    +0.000 C 
ENDBRANCH   5  17
TORSDOF 2
ENDMDL
MODEL 6
REMARK VINA RESULT:      -7.0      2.725      3.261
REMARK  Name = 
REMARK  2 active torsions:
REMARK  status: ('A' for Active; 'I' for Inactive)
REMARK    1  A    between atoms: C_6  and  C_7
REMARK    2  A    between atoms: N_11  and  C_12
REMARK                            x       y       z     vdW  Elec       q    Type
REMARK                         _______ _______ _______ _____ _____    ______ ____
ROOT
ATOM      1  C   UNL     1       2.602   7.146  18.321  0.00  0.00    +0.000 A 
ATOM      2  C   UNL     1       2.546   8.289  17.531  0.00  0.00    +0.000 A 
ATOM      3  C   UNL     1       1.943   9.442  18.029  0.00  0.00    +0.000 A 
ATOM      4  C   UNL     1       1.367   9.438  19.288  0.00  0.00    +0.000 A 
ATOM      5  N   UNL     1       0.652  10.549  19.681  0.00  0.00    +0.000 N 
ATOM      6  N   UNL     1       1.435   8.321  20.032  0.00  0.00    +0.000 NA
ATOM      7  N   UNL     1       2.086   7.188  19.561  0.00  0.00    +0.000 NA
ATOM      8  H   UNL     1       1.048  11.456  19.465  0.00  0.00    +0.000 HD
ENDROOT
BRANCH   1  14
ATOM      9 CL   UNL     1       6.694   4.308  16.426  0.00  0.00    +0.000 Cl
ATOM     10  C   UNL     1       5.071   4.519  17.002  0.00  0.00    +0.000 A 
ATOM     11  C   UNL     1       4.281   3.371  17.069  0.00  0.00    +0.000 A 
ATOM     12  C   UNL     1       2.971   3.456  17.518  0.00  0.00    +0.000 A 
ATOM     13  C   UNL     1       2.450   4.695  17.890  0.00  0.00    +0.000 A 
ATOM     14  C   UNL     1       3.222   5.882  17.858  0.00  0.00    +0.000 A 
ATOM     15  C   UNL     1       4.560   5.772  17.402  0.00  0.00    +0.000 A 
ATOM     16 CL   UNL     1       5.631   7.146  17.392  0.00  0.00    +0.000 Cl
ENDBRANCH   1  14
BRANCH   5  17
ATOM     17  C   UNL     1      -0.413  10.478  20.675  0.00  0.00    +0.000 C 
ATOM     18  C   UNL     1      -1.131  11.833  20.659  0.00  0.00    +0.000 C 
ATOM     19  C   UNL     1      -1.978  12.055  21.897  0.00  0.00    +0.000 C 
ATOM     20  O   UNL     1      -1.203  11.845  23.075  0.00  0.00    +0.000 OA
ATOM     21  C   UNL     1      -0.762  10.494  23.177  0.00  0.00    +0.000 C 
ATOM     22  C   UNL     1       0.195  10.161  22.045  0.00  0.00    +0.000 C 
ENDBRANCH   5  17
TORSDOF 2
ENDMDL
MODEL 7
REMARK VINA RESULT:      -6.9      2.108      2.538
REMARK  Name = 
REMARK  2 active torsions:
REMARK  status: ('A' for Active; 'I' for Inactive)
REMARK    1  A    between atoms: C_6  and  C_7
REMARK    2  A    between atoms: N_11  and  C_12
REMARK                            x       y       z     vdW  Elec       q    Type
REMARK                         _______ _______ _______ _____ _____    ______ ____
ROOT
ATOM      1  C   UNL     1       2.785   7.086  18.626  0.00  0.00    +0.000 A 
ATOM      2  C   UNL     1       3.002   8.000  17.602  0.00  0.00    +0.000 A 
ATOM      3  C   UNL     1       2.285   9.195  17.582  0.00  0.00    +0.000 A 
ATOM      4  C   UNL     1       1.332   9.453  18.553  0.00  0.00    +0.000 A 
ATOM      5  N   UNL     1       0.543  10.574  18.412  0.00  0.00    +0.000 N 
ATOM      6  N   UNL     1       1.142   8.552  19.533  0.00  0.00    +0.000 NA
ATOM      7  N   UNL     1       1.896   7.387  19.589  0.00  0.00    +0.000 NA
ATOM      8  H   UNL     1       1.000  11.427  18.115  0.00  0.00    +0.000 HD
ENDROOT
BRANCH   1  14
ATOM      9 CL   UNL     1       3.123   1.812  17.948  0.00  0.00    +0.000 Cl
ATOM     10  C   UNL     1       3.727   3.371  18.410  0.00  0.00    +0.000 A 
ATOM     11  C   UNL     1       5.042   3.414  18.878  0.00  0.00    +0.000 A 
ATOM     12  C   UNL     1       5.599   4.623  19.267  0.00  0.00    +0.000 A 
ATOM     13  C   UNL     1       4.835   5.788  19.199  0.00  0.00    +0.000 A 
ATOM     14  C   UNL     1       3.505   5.794  18.712  0.00  0.00    +0.000 A 
ATOM     15  C   UNL     1       2.956   4.549  18.313  0.00  0.00    +0.000 A 
ATOM     16 CL   UNL     1       1.360   4.439  17.624  0.00  0.00    +0.000 Cl
ENDBRANCH   1  14
BRANCH   5  17
ATOM     17  C   UNL     1      -0.786  10.668  19.003  0.00  0.00    +0.000 C 
ATOM     18  C   UNL     1      -1.789  10.264  17.915  0.00  0.00    +0.000 C 
ATOM     19  C   UNL     1      -3.205  10.698  18.241  0.00  0.00    +0.000 C 
ATOM     20  O   UNL     1      -3.241  12.090  18.547  0.00  0.00    +0.000 OA
ATOM     21  C   UNL     1      -2.493  12.387  19.722  0.00  0.00    +0.000 C 
ATOM     22  C   UNL     1      -1.018  12.099  19.501  0.00  0.00    +0.000 C 
ENDBRANCH   5  17
TORSDOF 2
ENDMDL
MODEL 8
REMARK VINA RESULT:      -6.9      2.166      3.037
REMARK  Name = 
REMARK  2 active torsions:
REMARK  status: ('A' for Active; 'I' for Inactive)
REMARK    1  A    between atoms: C_6  and  C_7
REMARK    2  A    between atoms: N_11  and  C_12
REMARK                            x       y       z     vdW  Elec       q    Type
REMARK                         _______ _______ _______ _____ _____    ______ ____
ROOT
ATOM      1  C   UNL     1       2.508   7.112  18.587  0.00  0.00    +0.000 A 
ATOM      2  C   UNL     1       2.152   7.184  19.929  0.00  0.00    +0.000 A 
ATOM      3  C   UNL     1       1.492   8.315  20.406  0.00  0.00    +0.000 A 
ATOM      4  C   UNL     1       1.228   9.378  19.559  0.00  0.00    +0.000 A 
ATOM      5  N   UNL     1       0.710  10.533  20.103  0.00  0.00    +0.000 N 
ATOM      6  N   UNL     1       1.583   9.282  18.266  0.00  0.00    +0.000 NA
ATOM      7  N   UNL     1       2.189   8.133  17.774  0.00  0.00    +0.000 NA
ATOM      8  H   UNL     1      -0.021  10.431  20.797  0.00  0.00    +0.000 HD
ENDROOT
BRANCH   1  14
ATOM      9 CL   UNL     1       3.089   1.885  17.735  0.00  0.00    +0.000 Cl
ATOM     10  C   UNL     1       3.529   3.555  17.567  0.00  0.00    +0.000 A 
ATOM     11  C   UNL     1       4.646   3.827  16.775  0.00  0.00    +0.000 A 
ATOM     12  C   UNL     1       5.062   5.138  16.593  0.00  0.00    +0.000 A 
ATOM     13  C   UNL     1       4.366   6.175  17.213  0.00  0.00    +0.000 A 
ATOM     14  C   UNL     1       3.216   5.946  18.008  0.00  0.00    +0.000 A 
ATOM     15  C   UNL     1       2.803   4.600  18.177  0.00  0.00    +0.000 A 
ATOM     16 CL   UNL     1       1.360   4.198  19.066  0.00  0.00    +0.000 Cl
ENDBRANCH   1  14
BRANCH   5  17
ATOM     17  C   UNL     1       0.898  11.838  19.482  0.00  0.00    +0.000 C 
ATOM     18  C   UNL     1       1.399  12.787  20.577  0.00  0.00    +0.000 C 
ATOM     19  C   UNL     1       1.251  14.247  20.192  0.00  0.00    +0.000 C 
ATOM     20  O   UNL     1      -0.087  14.520  19.783  0.00  0.00    +0.000 OA
ATOM     21  C   UNL     1      -0.430  13.800  18.603  0.00  0.00    +0.000 C 
ATOM     22  C   UNL     1      -0.428  12.305  18.874  0.00  0.00    +0.000 C 
ENDBRANCH   5  17
TORSDOF 2
ENDMDL
MODEL 9
REMARK VINA RESULT:      -6.8      2.311      2.853
REMARK  Name = 
REMARK  2 active torsions:
REMARK  status: ('A' for Active; 'I' for Inactive)
REMARK    1  A    between atoms: C_6  and  C_7
REMARK    2  A    between atoms: N_11  and  C_12
REMARK                            x       y       z     vdW  Elec       q    Type
REMARK                         _______ _______ _______ _____ _____    ______ ____
ROOT
ATOM      1  C   UNL     1       2.278   7.037  18.572  0.00  0.00    +0.000 A 
ATOM      2  C   UNL     1       2.067   7.185  19.938  0.00  0.00    +0.000 A 
ATOM      3  C   UNL     1       1.538   8.378  20.428  0.00  0.00    +0.000 A 
ATOM      4  C   UNL     1       1.264   9.425  19.565  0.00  0.00    +0.000 A 
ATOM      5  N   UNL     1       0.886  10.634  20.106  0.00  0.00    +0.000 N 
ATOM      6  N   UNL     1       1.476   9.255  18.248  0.00  0.00    +0.000 NA
ATOM      7  N   UNL     1       1.948   8.047  17.750  0.00  0.00    +0.000 NA
ATOM      8  H   UNL     1       0.225  10.613  20.873  0.00  0.00    +0.000 HD
ENDROOT
BRANCH   1  14
ATOM      9 CL   UNL     1       6.171   4.286  16.193  0.00  0.00    +0.000 Cl
ATOM     10  C   UNL     1       4.598   4.477  16.897  0.00  0.00    +0.000 A 
ATOM     11  C   UNL     1       3.793   3.338  16.939  0.00  0.00    +0.000 A 
ATOM     12  C   UNL     1       2.520   3.409  17.487  0.00  0.00    +0.000 A 
ATOM     13  C   UNL     1       2.050   4.624  17.982  0.00  0.00    +0.000 A 
ATOM     14  C   UNL     1       2.840   5.801  17.978  0.00  0.00    +0.000 A 
ATOM     15  C   UNL     1       4.140   5.705  17.420  0.00  0.00    +0.000 A 
ATOM     16 CL   UNL     1       5.233   7.061  17.430  0.00  0.00    +0.000 Cl
ENDBRANCH   1  14
BRANCH   5  17
ATOM     17  C   UNL     1       1.099  11.898  19.411  0.00  0.00    +0.000 C 
ATOM     18  C   UNL     1       1.751  12.856  20.415  0.00  0.00    +0.000 C 
ATOM     19  C   UNL     1       1.660  14.306  19.978  0.00  0.00    +0.000 C 
ATOM     20  O   UNL     1       0.311  14.649  19.670  0.00  0.00    +0.000 OA
ATOM     21  C   UNL     1      -0.177  13.905  18.557  0.00  0.00    +0.000 C 
ATOM     22  C   UNL     1      -0.244  12.425  18.896  0.00  0.00    +0.000 C 
ENDBRANCH   5  17
TORSDOF 2
ENDMDL
