MODEL 1
REMARK VINA RESULT:      -7.5      0.000      0.000
REMARK  Name = 
REMARK  11 active torsions:
REMARK  status: ('A' for Active; 'I' for Inactive)
REMARK    1  A    between atoms: C_1  and  C_2
REMARK    2  A    between atoms: C_2  and  C_3
REMARK    3  A    between atoms: C_2  and  N_4
REMARK    4  A    between atoms: N_4  and  C_5
REMARK    5  A    between atoms: N_4  and  C_26
REMARK    6  A    between atoms: C_5  and  C_6
REMARK    7  A    between atoms: C_6  and  N_7
REMARK    8  A    between atoms: C_8  and  C_9
REMARK    9  A    between atoms: C_9  and  N_10
REMARK   10  A    between atoms: C_26  and  C_27
REMARK   11  A    between atoms: C_26  and  C_28
REMARK                            x       y       z     vdW  Elec       q    Type
REMARK                         _______ _______ _______ _____ _____    ______ ____
ROOT
ATOM      1  N   UNL     1       4.541   5.243  18.749  0.00  0.00    +0.000 N 
ATOM      2  C   UNL     1       4.963   5.182  17.431  0.00  0.00    +0.000 A 
ATOM      3  N   UNL     1       4.513   6.231  16.765  0.00  0.00    +0.000 NA
ATOM      4  C   UNL     1       3.652   6.884  17.605  0.00  0.00    +0.000 A 
ATOM      5  C   UNL     1       2.847   8.006  17.355  0.00  0.00    +0.000 A 
ATOM      6  C   UNL     1       2.001   8.470  18.369  0.00  0.00    +0.000 A 
ATOM      7  C   UNL     1       1.959   7.825  19.605  0.00  0.00    +0.000 A 
ATOM      8  C   UNL     1       2.765   6.716  19.873  0.00  0.00    +0.000 A 
ATOM      9  C   UNL     1       3.617   6.267  18.850  0.00  0.00    +0.000 A 
ENDROOT
BRANCH   1  10
ATOM     10  C   UNL     1       4.883   4.346  19.850  0.00  0.00    +0.000 C 
BRANCH  10  11
ATOM     11  C   UNL     1       4.047   3.049  19.939  0.00  0.00    +0.000 C 
BRANCH  11  12
ATOM     12  N   UNL     1       2.693   3.099  19.287  0.00  0.00    +0.000 NA
BRANCH  12  14
ATOM     13  C   UNL     1       2.192   2.707  21.731  0.00  0.00    +0.000 C 
ATOM     14  C   UNL     1       1.607   2.965  20.321  0.00  0.00    +0.000 C 
ATOM     15  C   UNL     1       0.652   4.157  20.493  0.00  0.00    +0.000 C 
ENDBRANCH  12  14
BRANCH  12  16
ATOM     16  C   UNL     1       2.611   2.170  18.109  0.00  0.00    +0.000 C 
ATOM     17  C   UNL     1       2.527   2.848  16.727  0.00  0.00    +0.000 C 
ATOM     18  C   UNL     1       3.827   1.219  17.985  0.00  0.00    +0.000 C 
ENDBRANCH  12  16
ENDBRANCH  11  12
ENDBRANCH  10  11
ENDBRANCH   1  10
BRANCH   2  19
ATOM     19  C   UNL     1       5.837   4.129  16.819  0.00  0.00    +0.000 C 
BRANCH  19  20
ATOM     20  N   UNL     1       6.535   4.611  15.635  0.00  0.00    +0.000 N 
ATOM     21  N   UNL     1       7.481   5.567  15.781  0.00  0.00    +0.000 NA
ATOM     22  N   UNL     1       8.018   5.787  14.587  0.00  0.00    +0.000 NA
ATOM     23  C   UNL     1       7.377   4.989  13.678  0.00  0.00    +0.000 A 
ATOM     24  C   UNL     1       7.601   4.809  12.304  0.00  0.00    +0.000 A 
ATOM     25  C   UNL     1       6.781   3.917  11.602  0.00  0.00    +0.000 A 
ATOM     26  C   UNL     1       5.739   3.250  12.248  0.00  0.00    +0.000 A 
ATOM     27  C   UNL     1       5.502   3.418  13.620  0.00  0.00    +0.000 A 
ATOM     28  C   UNL     1       6.367   4.274  14.312  0.00  0.00    +0.000 A 
ENDBRANCH  19  20
ENDBRANCH   2  19
TORSDOF 7
ENDMDL
MODEL 2
REMARK VINA RESULT:      -7.4      1.977      6.513
REMARK  Name = 
REMARK  11 active torsions:
REMARK  status: ('A' for Active; 'I' for Inactive)
REMARK    1  A    between atoms: C_1  and  C_2
REMARK    2  A    between atoms: C_2  and  C_3
REMARK    3  A    between atoms: C_2  and  N_4
REMARK    4  A    between atoms: N_4  and  C_5
REMARK    5  A    between atoms: N_4  and  C_26
REMARK    6  A    between atoms: C_5  and  C_6
REMARK    7  A    between atoms: C_6  and  N_7
REMARK    8  A    between atoms: C_8  and  C_9
REMARK    9  A    between atoms: C_9  and  N_10
REMARK   10  A    between atoms: C_26  and  C_27
REMARK   11  A    between atoms: C_26  and  C_28
REMARK                            x       y       z     vdW  Elec       q    Type
REMARK                         _______ _______ _______ _____ _____    ______ ____
ROOT
ATOM      1  N   UNL     1       3.507   5.126  17.341  0.00  0.00    +0.000 N 
ATOM      2  C   UNL     1       3.845   6.101  18.265  0.00  0.00    +0.000 A 
ATOM      3  N   UNL     1       5.069   6.539  18.030  0.00  0.00    +0.000 NA
ATOM      4  C   UNL     1       5.594   5.724  17.063  0.00  0.00    +0.000 A 
ATOM      5  C   UNL     1       6.888   5.710  16.519  0.00  0.00    +0.000 A 
ATOM      6  C   UNL     1       7.208   4.740  15.563  0.00  0.00    +0.000 A 
ATOM      7  C   UNL     1       6.257   3.802  15.160  0.00  0.00    +0.000 A 
ATOM      8  C   UNL     1       4.961   3.814  15.681  0.00  0.00    +0.000 A 
ATOM      9  C   UNL     1       4.649   4.799  16.633  0.00  0.00    +0.000 A 
ENDROOT
BRANCH   1  10
ATOM     10  C   UNL     1       2.226   4.444  17.175  0.00  0.00    +0.000 C 
BRANCH  10  11
ATOM     11  C   UNL     1       2.071   3.116  17.950  0.00  0.00    +0.000 C 
BRANCH  11  12
ATOM     12  N   UNL     1       2.537   3.136  19.379  0.00  0.00    +0.000 NA
BRANCH  12  14
ATOM     13  C   UNL     1       3.834   1.220  18.367  0.00  0.00    +0.000 C 
ATOM     14  C   UNL     1       3.687   2.184  19.570  0.00  0.00    +0.000 C 
ATOM     15  C   UNL     1       5.082   2.800  19.764  0.00  0.00    +0.000 C 
ENDBRANCH  12  14
BRANCH  12  16
ATOM     16  C   UNL     1       1.388   2.994  20.338  0.00  0.00    +0.000 C 
ATOM     17  C   UNL     1       1.759   2.538  21.763  0.00  0.00    +0.000 C 
ATOM     18  C   UNL     1       0.603   4.310  20.561  0.00  0.00    +0.000 C 
ENDBRANCH  12  16
ENDBRANCH  11  12
ENDBRANCH  10  11
ENDBRANCH   1  10
BRANCH   2  19
ATOM     19  C   UNL     1       2.970   6.642  19.355  0.00  0.00    +0.000 C 
BRANCH  19  20
ATOM     20  N   UNL     1       2.301   7.876  18.965  0.00  0.00    +0.000 N 
ATOM     21  N   UNL     1       2.560   8.399  17.744  0.00  0.00    +0.000 NA
ATOM     22  N   UNL     1       1.788   9.468  17.592  0.00  0.00    +0.000 NA
ATOM     23  C   UNL     1       1.066   9.639  18.743  0.00  0.00    +0.000 A 
ATOM     24  C   UNL     1       0.080  10.583  19.070  0.00  0.00    +0.000 A 
ATOM     25  C   UNL     1      -0.503  10.531  20.342  0.00  0.00    +0.000 A 
ATOM     26  C   UNL     1      -0.084   9.583  21.278  0.00  0.00    +0.000 A 
ATOM     27  C   UNL     1       0.899   8.633  20.967  0.00  0.00    +0.000 A 
ATOM     28  C   UNL     1       1.431   8.670  19.673  0.00  0.00    +0.000 A 
ENDBRANCH  19  20
ENDBRANCH   2  19
TORSDOF 7
ENDMDL
MODEL 3
REMARK VINA RESULT:      -7.4      2.996      7.810
REMARK  Name = 
REMARK  11 active torsions:
REMARK  status: ('A' for Active; 'I' for Inactive)
REMARK    1  A    between atoms: C_1  and  C_2
REMARK    2  A    between atoms: C_2  and  C_3
REMARK    3  A    between atoms: C_2  and  N_4
REMARK    4  A    between atoms: N_4  and  C_5
REMARK    5  A    between atoms: N_4  and  C_26
REMARK    6  A    between atoms: C_5  and  C_6
REMARK    7  A    between atoms: C_6  and  N_7
REMARK    8  A    between atoms: C_8  and  C_9
REMARK    9  A    between atoms: C_9  and  N_10
REMARK   10  A    between atoms: C_26  and  C_27
REMARK   11  A    between atoms: C_26  and  C_28
REMARK                            x       y       z     vdW  Elec       q    Type
REMARK                         _______ _______ _______ _____ _____    ______ ____
ROOT
ATOM      1  N   UNL     1       2.719   6.090  18.932  0.00  0.00    +0.000 N 
ATOM      2  C   UNL     1       2.101   6.738  19.990  0.00  0.00    +0.000 A 
ATOM      3  N   UNL     1       1.386   5.874  20.690  0.00  0.00    +0.000 NA
ATOM      4  C   UNL     1       1.397   4.700  19.986  0.00  0.00    +0.000 A 
ATOM      5  C   UNL     1       0.722   3.498  20.253  0.00  0.00    +0.000 A 
ATOM      6  C   UNL     1       0.853   2.437  19.351  0.00  0.00    +0.000 A 
ATOM      7  C   UNL     1       1.638   2.573  18.206  0.00  0.00    +0.000 A 
ATOM      8  C   UNL     1       2.327   3.757  17.936  0.00  0.00    +0.000 A 
ATOM      9  C   UNL     1       2.197   4.813  18.854  0.00  0.00    +0.000 A 
ENDROOT
BRANCH   1  10
ATOM     10  C   UNL     1       3.669   6.639  17.968  0.00  0.00    +0.000 C 
BRANCH  10  11
ATOM     11  C   UNL     1       5.061   5.968  17.945  0.00  0.00    +0.000 C 
BRANCH  11  12
ATOM     12  N   UNL     1       5.970   6.388  16.823  0.00  0.00    +0.000 NA
BRANCH  12  14
ATOM     13  C   UNL     1       7.200   5.077  15.049  0.00  0.00    +0.000 C 
ATOM     14  C   UNL     1       5.824   5.454  15.652  0.00  0.00    +0.000 C 
ATOM     15  C   UNL     1       5.115   4.114  15.906  0.00  0.00    +0.000 C 
ENDBRANCH  12  14
BRANCH  12  16
ATOM     16  C   UNL     1       7.370   6.636  17.309  0.00  0.00    +0.000 C 
ATOM     17  C   UNL     1       7.741   8.112  17.554  0.00  0.00    +0.000 C 
ATOM     18  C   UNL     1       7.690   5.942  18.656  0.00  0.00    +0.000 C 
ENDBRANCH  12  16
ENDBRANCH  11  12
ENDBRANCH  10  11
ENDBRANCH   1  10
BRANCH   2  19
ATOM     19  C   UNL     1       2.231   8.186  20.352  0.00  0.00    +0.000 C 
BRANCH  19  20
ATOM     20  N   UNL     1       1.280   9.022  19.631  0.00  0.00    +0.000 N 
ATOM     21  N   UNL     1       1.213   8.918  18.283  0.00  0.00    +0.000 NA
ATOM     22  N   UNL     1       0.237   9.716  17.867  0.00  0.00    +0.000 NA
ATOM     23  C   UNL     1      -0.286  10.355  18.959  0.00  0.00    +0.000 A 
ATOM     24  C   UNL     1      -1.359  11.254  19.062  0.00  0.00    +0.000 A 
ATOM     25  C   UNL     1      -1.685  11.767  20.324  0.00  0.00    +0.000 A 
ATOM     26  C   UNL     1      -0.933  11.421  21.448  0.00  0.00    +0.000 A 
ATOM     27  C   UNL     1       0.142  10.524  21.362  0.00  0.00    +0.000 A 
ATOM     28  C   UNL     1       0.416   9.983  20.100  0.00  0.00    +0.000 A 
ENDBRANCH  19  20
ENDBRANCH   2  19
TORSDOF 7
ENDMDL
MODEL 4
REMARK VINA RESULT:      -7.3      2.516      7.191
REMARK  Name = 
REMARK  11 active torsions:
REMARK  status: ('A' for Active; 'I' for Inactive)
REMARK    1  A    between atoms: C_1  and  C_2
REMARK    2  A    between atoms: C_2  and  C_3
REMARK    3  A    between atoms: C_2  and  N_4
REMARK    4  A    between atoms: N_4  and  C_5
REMARK    5  A    between atoms: N_4  and  C_26
REMARK    6  A    between atoms: C_5  and  C_6
REMARK    7  A    between atoms: C_6  and  N_7
REMARK    8  A    between atoms: C_8  and  C_9
REMARK    9  A    between atoms: C_9  and  N_10
REMARK   10  A    between atoms: C_26  and  C_27
REMARK   11  A    between atoms: C_26  and  C_28
REMARK                            x       y       z     vdW  Elec       q    Type
REMARK                         _______ _______ _______ _____ _____    ______ ____
ROOT
ATOM      1  N   UNL     1       3.372   5.254  19.546  0.00  0.00    +0.000 N 
ATOM      2  C   UNL     1       2.287   5.920  20.092  0.00  0.00    +0.000 A 
ATOM      3  N   UNL     1       1.244   5.110  20.147  0.00  0.00    +0.000 NA
ATOM      4  C   UNL     1       1.601   3.971  19.475  0.00  0.00    +0.000 A 
ATOM      5  C   UNL     1       0.827   2.839  19.173  0.00  0.00    +0.000 A 
ATOM      6  C   UNL     1       1.405   1.808  18.424  0.00  0.00    +0.000 A 
ATOM      7  C   UNL     1       2.724   1.907  17.983  0.00  0.00    +0.000 A 
ATOM      8  C   UNL     1       3.510   3.020  18.288  0.00  0.00    +0.000 A 
ATOM      9  C   UNL     1       2.922   4.045  19.050  0.00  0.00    +0.000 A 
ENDROOT
BRANCH   1  10
ATOM     10  C   UNL     1       4.741   5.738  19.387  0.00  0.00    +0.000 C 
BRANCH  10  11
ATOM     11  C   UNL     1       5.161   6.092  17.942  0.00  0.00    +0.000 C 
BRANCH  11  12
ATOM     12  N   UNL     1       6.369   5.366  17.417  0.00  0.00    +0.000 NA
BRANCH  12  14
ATOM     13  C   UNL     1       7.593   7.556  17.714  0.00  0.00    +0.000 C 
ATOM     14  C   UNL     1       7.631   6.020  17.914  0.00  0.00    +0.000 C 
ATOM     15  C   UNL     1       7.991   5.816  19.394  0.00  0.00    +0.000 C 
ENDBRANCH  12  14
BRANCH  12  16
ATOM     16  C   UNL     1       6.276   5.136  15.935  0.00  0.00    +0.000 C 
ATOM     17  C   UNL     1       5.910   3.702  15.503  0.00  0.00    +0.000 C 
ATOM     18  C   UNL     1       5.212   6.019  15.237  0.00  0.00    +0.000 C 
ENDBRANCH  12  16
ENDBRANCH  11  12
ENDBRANCH  10  11
ENDBRANCH   1  10
BRANCH   2  19
ATOM     19  C   UNL     1       2.264   7.329  20.600  0.00  0.00    +0.000 C 
BRANCH  19  20
ATOM     20  N   UNL     1       1.755   8.266  19.606  0.00  0.00    +0.000 N 
ATOM     21  N   UNL     1       2.196   8.165  18.331  0.00  0.00    +0.000 NA
ATOM     22  N   UNL     1       1.544   9.067  17.608  0.00  0.00    +0.000 NA
ATOM     23  C   UNL     1       0.714   9.765  18.445  0.00  0.00    +0.000 A 
ATOM     24  C   UNL     1      -0.215  10.780  18.169  0.00  0.00    +0.000 A 
ATOM     25  C   UNL     1      -0.941  11.331  19.233  0.00  0.00    +0.000 A 
ATOM     26  C   UNL     1      -0.717  10.905  20.543  0.00  0.00    +0.000 A 
ATOM     27  C   UNL     1       0.207   9.892  20.835  0.00  0.00    +0.000 A 
ATOM     28  C   UNL     1       0.884   9.319  19.751  0.00  0.00    +0.000 A 
ENDBRANCH  19  20
ENDBRANCH   2  19
TORSDOF 7
ENDMDL
MODEL 5
REMARK VINA RESULT:      -7.2      3.226      8.162
REMARK  Name = 
REMARK  11 active torsions:
REMARK  status: ('A' for Active; 'I' for Inactive)
REMARK    1  A    between atoms: C_1  and  C_2
REMARK    2  A    between atoms: C_2  and  C_3
REMARK    3  A    between atoms: C_2  and  N_4
REMARK    4  A    between atoms: N_4  and  C_5
REMARK    5  A    between atoms: N_4  and  C_26
REMARK    6  A    between atoms: C_5  and  C_6
REMARK    7  A    between atoms: C_6  and  N_7
REMARK    8  A    between atoms: C_8  and  C_9
REMARK    9  A    between atoms: C_9  and  N_10
REMARK   10  A    between atoms: C_26  and  C_27
REMARK   11  A    between atoms: C_26  and  C_28
REMARK                            x       y       z     vdW  Elec       q    Type
REMARK                         _______ _______ _______ _____ _____    ______ ____
ROOT
ATOM      1  N   UNL     1       2.800   5.955  18.941  0.00  0.00    +0.000 N 
ATOM      2  C   UNL     1       2.072   6.832  19.729  0.00  0.00    +0.000 A 
ATOM      3  N   UNL     1       1.484   6.172  20.712  0.00  0.00    +0.000 NA
ATOM      4  C   UNL     1       1.686   4.841  20.460  0.00  0.00    +0.000 A 
ATOM      5  C   UNL     1       1.196   3.723  21.153  0.00  0.00    +0.000 A 
ATOM      6  C   UNL     1       1.502   2.445  20.673  0.00  0.00    +0.000 A 
ATOM      7  C   UNL     1       2.278   2.287  19.524  0.00  0.00    +0.000 A 
ATOM      8  C   UNL     1       2.784   3.390  18.834  0.00  0.00    +0.000 A 
ATOM      9  C   UNL     1       2.479   4.668  19.332  0.00  0.00    +0.000 A 
ENDROOT
BRANCH   1  10
ATOM     10  C   UNL     1       3.673   6.267  17.812  0.00  0.00    +0.000 C 
BRANCH  10  11
ATOM     11  C   UNL     1       5.144   5.817  17.961  0.00  0.00    +0.000 C 
BRANCH  11  12
ATOM     12  N   UNL     1       6.074   6.250  16.862  0.00  0.00    +0.000 NA
BRANCH  12  14
ATOM     13  C   UNL     1       7.310   5.233  14.908  0.00  0.00    +0.000 C 
ATOM     14  C   UNL     1       5.976   5.310  15.691  0.00  0.00    +0.000 C 
ATOM     15  C   UNL     1       5.602   3.850  15.993  0.00  0.00    +0.000 C 
ENDBRANCH  12  14
BRANCH  12  16
ATOM     16  C   UNL     1       7.456   6.526  17.382  0.00  0.00    +0.000 C 
ATOM     17  C   UNL     1       7.785   8.007  17.654  0.00  0.00    +0.000 C 
ATOM     18  C   UNL     1       7.762   5.823  18.728  0.00  0.00    +0.000 C 
ENDBRANCH  12  16
ENDBRANCH  11  12
ENDBRANCH  10  11
ENDBRANCH   1  10
BRANCH   2  19
ATOM     19  C   UNL     1       1.975   8.318  19.559  0.00  0.00    +0.000 C 
BRANCH  19  20
ATOM     20  N   UNL     1       1.293   8.958  20.677  0.00  0.00    +0.000 N 
ATOM     21  N   UNL     1       1.666   8.636  21.937  0.00  0.00    +0.000 NA
ATOM     22  N   UNL     1       0.961   9.392  22.769  0.00  0.00    +0.000 NA
ATOM     23  C   UNL     1       0.111  10.166  22.026  0.00  0.00    +0.000 A 
ATOM     24  C   UNL     1      -0.799  11.159  22.421  0.00  0.00    +0.000 A 
ATOM     25  C   UNL     1      -1.559  11.803  21.436  0.00  0.00    +0.000 A 
ATOM     26  C   UNL     1      -1.440  11.437  20.094  0.00  0.00    +0.000 A 
ATOM     27  C   UNL     1      -0.535  10.447  19.683  0.00  0.00    +0.000 A 
ATOM     28  C   UNL     1       0.251   9.854  20.678  0.00  0.00    +0.000 A 
ENDBRANCH  19  20
ENDBRANCH   2  19
TORSDOF 7
ENDMDL
MODEL 6
REMARK VINA RESULT:      -7.2      2.575      7.146
REMARK  Name = 
REMARK  11 active torsions:
REMARK  status: ('A' for Active; 'I' for Inactive)
REMARK    1  A    between atoms: C_1  and  C_2
REMARK    2  A    between atoms: C_2  and  C_3
REMARK    3  A    between atoms: C_2  and  N_4
REMARK    4  A    between atoms: N_4  and  C_5
REMARK    5  A    between atoms: N_4  and  C_26
REMARK    6  A    between atoms: C_5  and  C_6
REMARK    7  A    between atoms: C_6  and  N_7
REMARK    8  A    between atoms: C_8  and  C_9
REMARK    9  A    between atoms: C_9  and  N_10
REMARK   10  A    between atoms: C_26  and  C_27
REMARK   11  A    between atoms: C_26  and  C_28
REMARK                            x       y       z     vdW  Elec       q    Type
REMARK                         _______ _______ _______ _____ _____    ______ ____
ROOT
ATOM      1  N   UNL     1       3.735   5.274  18.921  0.00  0.00    +0.000 N 
ATOM      2  C   UNL     1       2.904   6.166  18.263  0.00  0.00    +0.000 A 
ATOM      3  N   UNL     1       1.722   5.611  18.058  0.00  0.00    +0.000 NA
ATOM      4  C   UNL     1       1.841   4.297  18.425  0.00  0.00    +0.000 A 
ATOM      5  C   UNL     1       0.901   3.259  18.324  0.00  0.00    +0.000 A 
ATOM      6  C   UNL     1       1.274   1.971  18.725  0.00  0.00    +0.000 A 
ATOM      7  C   UNL     1       2.557   1.725  19.214  0.00  0.00    +0.000 A 
ATOM      8  C   UNL     1       3.497   2.752  19.334  0.00  0.00    +0.000 A 
ATOM      9  C   UNL     1       3.107   4.043  18.937  0.00  0.00    +0.000 A 
ENDROOT
BRANCH   1  10
ATOM     10  C   UNL     1       5.088   5.503  19.424  0.00  0.00    +0.000 C 
BRANCH  10  11
ATOM     11  C   UNL     1       6.232   5.154  18.445  0.00  0.00    +0.000 C 
BRANCH  11  12
ATOM     12  N   UNL     1       6.525   6.184  17.390  0.00  0.00    +0.000 NA
BRANCH  12  14
ATOM     13  C   UNL     1       7.149   4.180  15.984  0.00  0.00    +0.000 C 
ATOM     14  C   UNL     1       6.457   5.565  16.019  0.00  0.00    +0.000 C 
ATOM     15  C   UNL     1       5.059   5.331  15.424  0.00  0.00    +0.000 C 
ENDBRANCH  12  14
BRANCH  12  16
ATOM     16  C   UNL     1       7.770   6.964  17.708  0.00  0.00    +0.000 C 
ATOM     17  C   UNL     1       7.628   8.498  17.658  0.00  0.00    +0.000 C 
ATOM     18  C   UNL     1       8.328   6.686  19.126  0.00  0.00    +0.000 C 
ENDBRANCH  12  16
ENDBRANCH  11  12
ENDBRANCH  10  11
ENDBRANCH   1  10
BRANCH   2  19
ATOM     19  C   UNL     1       3.235   7.572  17.866  0.00  0.00    +0.000 C 
BRANCH  19  20
ATOM     20  N   UNL     1       2.230   8.525  18.318  0.00  0.00    +0.000 N 
ATOM     21  N   UNL     1       1.812   9.486  17.461  0.00  0.00    +0.000 NA
ATOM     22  N   UNL     1       0.855  10.177  18.069  0.00  0.00    +0.000 NA
ATOM     23  C   UNL     1       0.699   9.670  19.331  0.00  0.00    +0.000 A 
ATOM     24  C   UNL     1      -0.208  10.012  20.346  0.00  0.00    +0.000 A 
ATOM     25  C   UNL     1      -0.145   9.322  21.563  0.00  0.00    +0.000 A 
ATOM     26  C   UNL     1       0.825   8.340  21.774  0.00  0.00    +0.000 A 
ATOM     27  C   UNL     1       1.738   7.986  20.771  0.00  0.00    +0.000 A 
ATOM     28  C   UNL     1       1.623   8.652  19.544  0.00  0.00    +0.000 A 
ENDBRANCH  19  20
ENDBRANCH   2  19
TORSDOF 7
ENDMDL
MODEL 7
REMARK VINA RESULT:      -7.1      2.959      7.769
REMARK  Name = 
REMARK  11 active torsions:
REMARK  status: ('A' for Active; 'I' for Inactive)
REMARK    1  A    between atoms: C_1  and  C_2
REMARK    2  A    between atoms: C_2  and  C_3
REMARK    3  A    between atoms: C_2  and  N_4
REMARK    4  A    between atoms: N_4  and  C_5
REMARK    5  A    between atoms: N_4  and  C_26
REMARK    6  A    between atoms: C_5  and  C_6
REMARK    7  A    between atoms: C_6  and  N_7
REMARK    8  A    between atoms: C_8  and  C_9
REMARK    9  A    between atoms: C_9  and  N_10
REMARK   10  A    between atoms: C_26  and  C_27
REMARK   11  A    between atoms: C_26  and  C_28
REMARK                            x       y       z     vdW  Elec       q    Type
REMARK                         _______ _______ _______ _____ _____    ______ ____
ROOT
ATOM      1  N   UNL     1       3.057   5.708  18.548  0.00  0.00    +0.000 N 
ATOM      2  C   UNL     1       2.348   6.665  19.257  0.00  0.00    +0.000 A 
ATOM      3  N   UNL     1       1.659   6.088  20.226  0.00  0.00    +0.000 NA
ATOM      4  C   UNL     1       1.781   4.737  20.037  0.00  0.00    +0.000 A 
ATOM      5  C   UNL     1       1.174   3.684  20.740  0.00  0.00    +0.000 A 
ATOM      6  C   UNL     1       1.417   2.369  20.328  0.00  0.00    +0.000 A 
ATOM      7  C   UNL     1       2.245   2.111  19.235  0.00  0.00    +0.000 A 
ATOM      8  C   UNL     1       2.867   3.148  18.536  0.00  0.00    +0.000 A 
ATOM      9  C   UNL     1       2.624   4.464  18.966  0.00  0.00    +0.000 A 
ENDROOT
BRANCH   1  10
ATOM     10  C   UNL     1       4.013   5.913  17.463  0.00  0.00    +0.000 C 
BRANCH  10  11
ATOM     11  C   UNL     1       5.391   5.238  17.651  0.00  0.00    +0.000 C 
BRANCH  11  12
ATOM     12  N   UNL     1       6.484   5.721  16.738  0.00  0.00    +0.000 NA
BRANCH  12  14
ATOM     13  C   UNL     1       5.789   3.527  15.696  0.00  0.00    +0.000 C 
ATOM     14  C   UNL     1       6.861   4.643  15.757  0.00  0.00    +0.000 C 
ATOM     15  C   UNL     1       7.082   5.070  14.297  0.00  0.00    +0.000 C 
ENDBRANCH  12  14
BRANCH  12  16
ATOM     16  C   UNL     1       7.612   6.347  17.508  0.00  0.00    +0.000 C 
ATOM     17  C   UNL     1       7.615   7.888  17.555  0.00  0.00    +0.000 C 
ATOM     18  C   UNL     1       7.651   5.928  18.998  0.00  0.00    +0.000 C 
ENDBRANCH  12  16
ENDBRANCH  11  12
ENDBRANCH  10  11
ENDBRANCH   1  10
BRANCH   2  19
ATOM     19  C   UNL     1       2.365   8.145  19.026  0.00  0.00    +0.000 C 
BRANCH  19  20
ATOM     20  N   UNL     1       1.455   8.853  19.917  0.00  0.00    +0.000 N 
ATOM     21  N   UNL     1       1.565   8.656  21.251  0.00  0.00    +0.000 NA
ATOM     22  N   UNL     1       0.689   9.454  21.848  0.00  0.00    +0.000 NA
ATOM     23  C   UNL     1      -0.003  10.129  20.879  0.00  0.00    +0.000 A 
ATOM     24  C   UNL     1      -0.993  11.118  20.987  0.00  0.00    +0.000 A 
ATOM     25  C   UNL     1      -1.544  11.646  19.812  0.00  0.00    +0.000 A 
ATOM     26  C   UNL     1      -1.144  11.171  18.562  0.00  0.00    +0.000 A 
ATOM     27  C   UNL     1      -0.155  10.184  18.438  0.00  0.00    +0.000 A 
ATOM     28  C   UNL     1       0.419   9.708  19.623  0.00  0.00    +0.000 A 
ENDBRANCH  19  20
ENDBRANCH   2  19
TORSDOF 7
ENDMDL
MODEL 8
REMARK VINA RESULT:      -7.1      3.294      8.069
REMARK  Name = 
REMARK  11 active torsions:
REMARK  status: ('A' for Active; 'I' for Inactive)
REMARK    1  A    between atoms: C_1  and  C_2
REMARK    2  A    between atoms: C_2  and  C_3
REMARK    3  A    between atoms: C_2  and  N_4
REMARK    4  A    between atoms: N_4  and  C_5
REMARK    5  A    between atoms: N_4  and  C_26
REMARK    6  A    between atoms: C_5  and  C_6
REMARK    7  A    between atoms: C_6  and  N_7
REMARK    8  A    between atoms: C_8  and  C_9
REMARK    9  A    between atoms: C_9  and  N_10
REMARK   10  A    between atoms: C_26  and  C_27
REMARK   11  A    between atoms: C_26  and  C_28
REMARK                            x       y       z     vdW  Elec       q    Type
REMARK                         _______ _______ _______ _____ _____    ______ ____
ROOT
ATOM      1  N   UNL     1       2.879   6.239  18.819  0.00  0.00    +0.000 N 
ATOM      2  C   UNL     1       2.129   7.060  19.646  0.00  0.00    +0.000 A 
ATOM      3  N   UNL     1       1.798   6.407  20.747  0.00  0.00    +0.000 NA
ATOM      4  C   UNL     1       2.184   5.106  20.557  0.00  0.00    +0.000 A 
ATOM      5  C   UNL     1       1.987   3.992  21.388  0.00  0.00    +0.000 A 
ATOM      6  C   UNL     1       2.434   2.739  20.953  0.00  0.00    +0.000 A 
ATOM      7  C   UNL     1       3.062   2.602  19.715  0.00  0.00    +0.000 A 
ATOM      8  C   UNL     1       3.279   3.705  18.885  0.00  0.00    +0.000 A 
ATOM      9  C   UNL     1       2.834   4.959  19.337  0.00  0.00    +0.000 A 
ENDROOT
BRANCH   1  10
ATOM     10  C   UNL     1       3.526   6.581  17.554  0.00  0.00    +0.000 C 
BRANCH  10  11
ATOM     11  C   UNL     1       5.033   6.913  17.643  0.00  0.00    +0.000 C 
BRANCH  11  12
ATOM     12  N   UNL     1       5.970   5.777  17.339  0.00  0.00    +0.000 NA
BRANCH  12  14
ATOM     13  C   UNL     1       7.640   7.653  17.609  0.00  0.00    +0.000 C 
ATOM     14  C   UNL     1       7.375   6.133  17.745  0.00  0.00    +0.000 C 
ATOM     15  C   UNL     1       7.803   5.777  19.178  0.00  0.00    +0.000 C 
ENDBRANCH  12  14
BRANCH  12  16
ATOM     16  C   UNL     1       5.789   5.271  15.936  0.00  0.00    +0.000 C 
ATOM     17  C   UNL     1       7.088   5.007  15.148  0.00  0.00    +0.000 C 
ATOM     18  C   UNL     1       5.025   3.926  15.857  0.00  0.00    +0.000 C 
ENDBRANCH  12  16
ENDBRANCH  11  12
ENDBRANCH  10  11
ENDBRANCH   1  10
BRANCH   2  19
ATOM     19  C   UNL     1       1.762   8.490  19.395  0.00  0.00    +0.000 C 
BRANCH  19  20
ATOM     20  N   UNL     1       1.154   9.117  20.560  0.00  0.00    +0.000 N 
ATOM     21  N   UNL     1       1.583   8.757  21.792  0.00  0.00    +0.000 NA
ATOM     22  N   UNL     1       0.939   9.507  22.677  0.00  0.00    +0.000 NA
ATOM     23  C   UNL     1       0.071  10.319  21.998  0.00  0.00    +0.000 A 
ATOM     24  C   UNL     1      -0.794  11.322  22.463  0.00  0.00    +0.000 A 
ATOM     25  C   UNL     1      -1.587  12.007  21.534  0.00  0.00    +0.000 A 
ATOM     26  C   UNL     1      -1.546  11.672  20.179  0.00  0.00    +0.000 A 
ATOM     27  C   UNL     1      -0.687  10.673  19.698  0.00  0.00    +0.000 A 
ATOM     28  C   UNL     1       0.135  10.037  20.637  0.00  0.00    +0.000 A 
ENDBRANCH  19  20
ENDBRANCH   2  19
TORSDOF 7
ENDMDL
MODEL 9
REMARK VINA RESULT:      -7.1      2.001      6.004
REMARK  Name = 
REMARK  11 active torsions:
REMARK  status: ('A' for Active; 'I' for Inactive)
REMARK    1  A    between atoms: C_1  and  C_2
REMARK    2  A    between atoms: C_2  and  C_3
REMARK    3  A    between atoms: C_2  and  N_4
REMARK    4  A    between atoms: N_4  and  C_5
REMARK    5  A    between atoms: N_4  and  C_26
REMARK    6  A    between atoms: C_5  and  C_6
REMARK    7  A    between atoms: C_6  and  N_7
REMARK    8  A    between atoms: C_8  and  C_9
REMARK    9  A    between atoms: C_9  and  N_10
REMARK   10  A    between atoms: C_26  and  C_27
REMARK   11  A    between atoms: C_26  and  C_28
REMARK                            x       y       z     vdW  Elec       q    Type
REMARK                         _______ _______ _______ _____ _____    ______ ____
ROOT
ATOM      1  N   UNL     1       2.322   7.119  19.178  0.00  0.00    +0.000 N 
ATOM      2  C   UNL     1       1.974   6.769  20.473  0.00  0.00    +0.000 A 
ATOM      3  N   UNL     1       1.238   7.724  21.015  0.00  0.00    +0.000 NA
ATOM      4  C   UNL     1       1.256   8.774  20.135  0.00  0.00    +0.000 A 
ATOM      5  C   UNL     1       0.701  10.056  20.272  0.00  0.00    +0.000 A 
ATOM      6  C   UNL     1       0.892  10.986  19.244  0.00  0.00    +0.000 A 
ATOM      7  C   UNL     1       1.623  10.645  18.107  0.00  0.00    +0.000 A 
ATOM      8  C   UNL     1       2.168   9.368  17.951  0.00  0.00    +0.000 A 
ATOM      9  C   UNL     1       1.960   8.439  18.985  0.00  0.00    +0.000 A 
ENDROOT
BRANCH   1  10
ATOM     10  C   UNL     1       3.045   6.322  18.191  0.00  0.00    +0.000 C 
BRANCH  10  11
ATOM     11  C   UNL     1       4.563   6.168  18.439  0.00  0.00    +0.000 C 
BRANCH  11  12
ATOM     12  N   UNL     1       5.441   6.329  17.229  0.00  0.00    +0.000 NA
BRANCH  12  14
ATOM     13  C   UNL     1       6.013   5.371  14.963  0.00  0.00    +0.000 C 
ATOM     14  C   UNL     1       4.997   5.399  16.132  0.00  0.00    +0.000 C 
ATOM     15  C   UNL     1       4.776   3.925  16.507  0.00  0.00    +0.000 C 
ENDBRANCH  12  14
BRANCH  12  16
ATOM     16  C   UNL     1       6.898   6.284  17.593  0.00  0.00    +0.000 C 
ATOM     17  C   UNL     1       7.625   7.643  17.612  0.00  0.00    +0.000 C 
ATOM     18  C   UNL     1       7.167   5.698  19.001  0.00  0.00    +0.000 C 
ENDBRANCH  12  16
ENDBRANCH  11  12
ENDBRANCH  10  11
ENDBRANCH   1  10
BRANCH   2  19
ATOM     19  C   UNL     1       2.317   5.492  21.178  0.00  0.00    +0.000 C 
BRANCH  19  20
ATOM     20  N   UNL     1       1.972   4.317  20.391  0.00  0.00    +0.000 N 
ATOM     21  N   UNL     1       0.683   4.138  20.018  0.00  0.00    +0.000 NA
ATOM     22  N   UNL     1       0.632   3.051  19.258  0.00  0.00    +0.000 NA
ATOM     23  C   UNL     1       1.893   2.522  19.185  0.00  0.00    +0.000 A 
ATOM     24  C   UNL     1       2.378   1.415  18.471  0.00  0.00    +0.000 A 
ATOM     25  C   UNL     1       3.735   1.089  18.580  0.00  0.00    +0.000 A 
ATOM     26  C   UNL     1       4.580   1.828  19.411  0.00  0.00    +0.000 A 
ATOM     27  C   UNL     1       4.112   2.937  20.130  0.00  0.00    +0.000 A 
ATOM     28  C   UNL     1       2.763   3.276  19.965  0.00  0.00    +0.000 A 
ENDBRANCH  19  20
ENDBRANCH   2  19
TORSDOF 7
ENDMDL
