MODEL 1
REMARK VINA RESULT:      -8.3      0.000      0.000
REMARK  Name = 
REMARK  4 active torsions:
REMARK  status: ('A' for Active; 'I' for Inactive)
REMARK    1  A    between atoms: C_7  and  C_8
REMARK    2  A    between atoms: C_10  and  N_11
REMARK    3  A    between atoms: N_11  and  C_12
REMARK    4  A    between atoms: C_12  and  C_13
REMARK                            x       y       z     vdW  Elec       q    Type
REMARK                         _______ _______ _______ _____ _____    ______ ____
ROOT
ATOM      1  C   UNL     1       3.112   7.113  18.160  0.00  0.00    +0.000 A 
ATOM      2  C   UNL     1       2.534   5.747  17.918  0.00  0.00    +0.000 A 
ATOM      3  C   UNL     1       3.359   4.808  17.429  0.00  0.00    +0.000 A 
ATOM      4  N   UNL     1       4.721   5.135  17.246  0.00  0.00    +0.000 N 
ATOM      5  N   UNL     1       5.727   4.296  16.842  0.00  0.00    +0.000 NA
ATOM      6  C   UNL     1       6.825   5.054  16.913  0.00  0.00    +0.000 A 
ATOM      7  C   UNL     1       6.545   6.361  17.318  0.00  0.00    +0.000 A 
ATOM      8 BR   UNL     1       7.812   7.718  17.528  0.00  0.00    +0.000 Br
ATOM      9  C   UNL     1       5.191   6.419  17.533  0.00  0.00    +0.000 A 
ATOM     10  N   UNL     1       4.362   7.420  17.959  0.00  0.00    +0.000 NA
ENDROOT
BRANCH   1  17
ATOM     11 CL   UNL     1       1.760   6.756  21.028  0.00  0.00    +0.000 Cl
ATOM     12  C   UNL     1       1.517   8.056  19.914  0.00  0.00    +0.000 A 
ATOM     13  C   UNL     1       0.589   9.033  20.302  0.00  0.00    +0.000 A 
ATOM     14  C   UNL     1       0.271  10.093  19.452  0.00  0.00    +0.000 A 
ATOM     15  C   UNL     1       0.903  10.201  18.219  0.00  0.00    +0.000 A 
ATOM     16  C   UNL     1       1.846   9.246  17.833  0.00  0.00    +0.000 A 
ATOM     17  C   UNL     1       2.146   8.145  18.661  0.00  0.00    +0.000 A 
ENDBRANCH   1  17
BRANCH   3  18
ATOM     18  N   UNL     1       2.911   3.512  17.111  0.00  0.00    +0.000 N 
ATOM     19  H   UNL     1       3.684   2.862  17.302  0.00  0.00    +0.000 HD
BRANCH  18  20
ATOM     20  C   UNL     1       1.734   2.979  17.807  0.00  0.00    +0.000 C 
BRANCH  20  21
ATOM     21  C   UNL     1       1.995   2.773  19.278  0.00  0.00    +0.000 A 
ATOM     22  C   UNL     1       3.270   2.394  19.710  0.00  0.00    +0.000 A 
ATOM     23  C   UNL     1       3.522   2.308  21.071  0.00  0.00    +0.000 A 
ATOM     24  N   UNL     1       2.605   2.573  22.023  0.00  0.00    +0.000 NA
ATOM     25  C   UNL     1       1.378   2.940  21.593  0.00  0.00    +0.000 A 
ATOM     26  C   UNL     1       1.034   3.058  20.254  0.00  0.00    +0.000 A 
ENDBRANCH  20  21
ENDBRANCH  18  20
ENDBRANCH   3  18
TORSDOF 4
ENDMDL
MODEL 2
REMARK VINA RESULT:      -8.0      1.183      1.583
REMARK  Name = 
REMARK  4 active torsions:
REMARK  status: ('A' for Active; 'I' for Inactive)
REMARK    1  A    between atoms: C_7  and  C_8
REMARK    2  A    between atoms: C_10  and  N_11
REMARK    3  A    between atoms: N_11  and  C_12
REMARK    4  A    between atoms: C_12  and  C_13
REMARK                            x       y       z     vdW  Elec       q    Type
REMARK                         _______ _______ _______ _____ _____    ______ ____
ROOT
ATOM      1  C   UNL     1       2.890   6.737  18.653  0.00  0.00    +0.000 A 
ATOM      2  C   UNL     1       2.229   5.450  18.244  0.00  0.00    +0.000 A 
ATOM      3  C   UNL     1       2.941   4.608  17.480  0.00  0.00    +0.000 A 
ATOM      4  N   UNL     1       4.280   4.942  17.174  0.00  0.00    +0.000 N 
ATOM      5  N   UNL     1       5.187   4.180  16.486  0.00  0.00    +0.000 NA
ATOM      6  C   UNL     1       6.315   4.893  16.543  0.00  0.00    +0.000 A 
ATOM      7  C   UNL     1       6.146   6.104  17.218  0.00  0.00    +0.000 A 
ATOM      8 BR   UNL     1       7.485   7.377  17.499  0.00  0.00    +0.000 Br
ATOM      9  C   UNL     1       4.836   6.142  17.626  0.00  0.00    +0.000 A 
ATOM     10  N   UNL     1       4.113   7.057  18.341  0.00  0.00    +0.000 NA
ENDROOT
BRANCH   1  17
ATOM     11 CL   UNL     1       2.036   9.560  17.438  0.00  0.00    +0.000 Cl
ATOM     12  C   UNL     1       1.624   8.925  18.993  0.00  0.00    +0.000 A 
ATOM     13  C   UNL     1       0.870   9.768  19.823  0.00  0.00    +0.000 A 
ATOM     14  C   UNL     1       0.535   9.380  21.120  0.00  0.00    +0.000 A 
ATOM     15  C   UNL     1       0.927   8.132  21.589  0.00  0.00    +0.000 A 
ATOM     16  C   UNL     1       1.658   7.276  20.763  0.00  0.00    +0.000 A 
ATOM     17  C   UNL     1       2.042   7.670  19.465  0.00  0.00    +0.000 A 
ENDBRANCH   1  17
BRANCH   3  18
ATOM     18  N   UNL     1       2.402   3.402  16.993  0.00  0.00    +0.000 N 
ATOM     19  H   UNL     1       2.761   3.265  16.040  0.00  0.00    +0.000 HD
BRANCH  18  20
ATOM     20  C   UNL     1       2.672   2.159  17.725  0.00  0.00    +0.000 C 
BRANCH  20  21
ATOM     21  C   UNL     1       2.435   2.314  19.206  0.00  0.00    +0.000 A 
ATOM     22  C   UNL     1       3.522   2.324  20.086  0.00  0.00    +0.000 A 
ATOM     23  C   UNL     1       3.297   2.570  21.432  0.00  0.00    +0.000 A 
ATOM     24  N   UNL     1       2.079   2.807  21.958  0.00  0.00    +0.000 NA
ATOM     25  C   UNL     1       1.038   2.796  21.099  0.00  0.00    +0.000 A 
ATOM     26  C   UNL     1       1.165   2.565  19.736  0.00  0.00    +0.000 A 
ENDBRANCH  20  21
ENDBRANCH  18  20
ENDBRANCH   3  18
TORSDOF 4
ENDMDL
MODEL 3
REMARK VINA RESULT:      -8.0      2.321      4.530
REMARK  Name = 
REMARK  4 active torsions:
REMARK  status: ('A' for Active; 'I' for Inactive)
REMARK    1  A    between atoms: C_7  and  C_8
REMARK    2  A    between atoms: C_10  and  N_11
REMARK    3  A    between atoms: N_11  and  C_12
REMARK    4  A    between atoms: C_12  and  C_13
REMARK                            x       y       z     vdW  Elec       q    Type
REMARK                         _______ _______ _______ _____ _____    ______ ____
ROOT
ATOM      1  C   UNL     1       2.663   6.390  18.655  0.00  0.00    +0.000 A 
ATOM      2  C   UNL     1       3.473   6.125  17.416  0.00  0.00    +0.000 A 
ATOM      3  C   UNL     1       3.965   4.887  17.255  0.00  0.00    +0.000 A 
ATOM      4  N   UNL     1       3.634   3.900  18.210  0.00  0.00    +0.000 N 
ATOM      5  N   UNL     1       3.965   2.570  18.176  0.00  0.00    +0.000 NA
ATOM      6  C   UNL     1       3.348   2.058  19.244  0.00  0.00    +0.000 A 
ATOM      7  C   UNL     1       2.660   3.026  19.977  0.00  0.00    +0.000 A 
ATOM      8 BR   UNL     1       1.682   2.703  21.536  0.00  0.00    +0.000 Br
ATOM      9  C   UNL     1       2.841   4.216  19.317  0.00  0.00    +0.000 A 
ATOM     10  N   UNL     1       2.388   5.485  19.550  0.00  0.00    +0.000 NA
ENDROOT
BRANCH   1  17
ATOM     11 CL   UNL     1       1.155   7.237  21.335  0.00  0.00    +0.000 Cl
ATOM     12  C   UNL     1       1.506   8.242  19.973  0.00  0.00    +0.000 A 
ATOM     13  C   UNL     1       1.034   9.561  20.043  0.00  0.00    +0.000 A 
ATOM     14  C   UNL     1       1.208  10.439  18.973  0.00  0.00    +0.000 A 
ATOM     15  C   UNL     1       1.884  10.014  17.836  0.00  0.00    +0.000 A 
ATOM     16  C   UNL     1       2.379   8.711  17.766  0.00  0.00    +0.000 A 
ATOM     17  C   UNL     1       2.173   7.797  18.819  0.00  0.00    +0.000 A 
ENDBRANCH   1  17
BRANCH   3  18
ATOM     18  N   UNL     1       4.784   4.544  16.162  0.00  0.00    +0.000 N 
ATOM     19  H   UNL     1       4.736   5.316  15.486  0.00  0.00    +0.000 HD
BRANCH  18  20
ATOM     20  C   UNL     1       6.208   4.282  16.400  0.00  0.00    +0.000 C 
BRANCH  20  21
ATOM     21  C   UNL     1       6.850   5.367  17.228  0.00  0.00    +0.000 A 
ATOM     22  C   UNL     1       7.388   5.057  18.481  0.00  0.00    +0.000 A 
ATOM     23  C   UNL     1       8.065   6.041  19.186  0.00  0.00    +0.000 A 
ATOM     24  N   UNL     1       8.244   7.299  18.734  0.00  0.00    +0.000 NA
ATOM     25  C   UNL     1       7.723   7.585  17.523  0.00  0.00    +0.000 A 
ATOM     26  C   UNL     1       7.035   6.666  16.742  0.00  0.00    +0.000 A 
ENDBRANCH  20  21
ENDBRANCH  18  20
ENDBRANCH   3  18
TORSDOF 4
ENDMDL
MODEL 4
REMARK VINA RESULT:      -7.6      3.127      6.797
REMARK  Name = 
REMARK  4 active torsions:
REMARK  status: ('A' for Active; 'I' for Inactive)
REMARK    1  A    between atoms: C_7  and  C_8
REMARK    2  A    between atoms: C_10  and  N_11
REMARK    3  A    between atoms: N_11  and  C_12
REMARK    4  A    between atoms: C_12  and  C_13
REMARK                            x       y       z     vdW  Elec       q    Type
REMARK                         _______ _______ _______ _____ _____    ______ ____
ROOT
ATOM      1  C   UNL     1       4.297   5.631  17.422  0.00  0.00    +0.000 A 
ATOM      2  C   UNL     1       3.896   7.080  17.399  0.00  0.00    +0.000 A 
ATOM      3  C   UNL     1       2.995   7.484  18.307  0.00  0.00    +0.000 A 
ATOM      4  N   UNL     1       2.540   6.552  19.267  0.00  0.00    +0.000 N 
ATOM      5  N   UNL     1       1.694   6.792  20.318  0.00  0.00    +0.000 NA
ATOM      6  C   UNL     1       1.650   5.625  20.968  0.00  0.00    +0.000 A 
ATOM      7  C   UNL     1       2.416   4.638  20.344  0.00  0.00    +0.000 A 
ATOM      8 BR   UNL     1       2.601   2.879  20.944  0.00  0.00    +0.000 Br
ATOM      9  C   UNL     1       2.991   5.229  19.246  0.00  0.00    +0.000 A 
ATOM     10  N   UNL     1       3.850   4.767  18.287  0.00  0.00    +0.000 NA
ENDROOT
BRANCH   1  17
ATOM     11 CL   UNL     1       7.380   6.400  17.706  0.00  0.00    +0.000 Cl
ATOM     12  C   UNL     1       6.640   5.510  16.421  0.00  0.00    +0.000 A 
ATOM     13  C   UNL     1       7.487   5.127  15.370  0.00  0.00    +0.000 A 
ATOM     14  C   UNL     1       6.983   4.459  14.255  0.00  0.00    +0.000 A 
ATOM     15  C   UNL     1       5.631   4.141  14.194  0.00  0.00    +0.000 A 
ATOM     16  C   UNL     1       4.785   4.497  15.245  0.00  0.00    +0.000 A 
ATOM     17  C   UNL     1       5.269   5.212  16.360  0.00  0.00    +0.000 A 
ENDBRANCH   1  17
BRANCH   3  18
ATOM     18  N   UNL     1       2.506   8.803  18.340  0.00  0.00    +0.000 N 
ATOM     19  H   UNL     1       3.220   9.409  17.916  0.00  0.00    +0.000 HD
BRANCH  18  20
ATOM     20  C   UNL     1       1.241   9.107  17.660  0.00  0.00    +0.000 C 
BRANCH  20  21
ATOM     21  C   UNL     1       0.302   9.893  18.541  0.00  0.00    +0.000 A 
ATOM     22  C   UNL     1       0.722  10.302  19.811  0.00  0.00    +0.000 A 
ATOM     23  C   UNL     1      -0.113  11.110  20.568  0.00  0.00    +0.000 A 
ATOM     24  N   UNL     1      -1.322  11.537  20.154  0.00  0.00    +0.000 NA
ATOM     25  C   UNL     1      -1.715  11.137  18.926  0.00  0.00    +0.000 A 
ATOM     26  C   UNL     1      -0.948  10.334  18.094  0.00  0.00    +0.000 A 
ENDBRANCH  20  21
ENDBRANCH  18  20
ENDBRANCH   3  18
TORSDOF 4
ENDMDL
MODEL 5
REMARK VINA RESULT:      -7.6      2.486      4.720
REMARK  Name = 
REMARK  4 active torsions:
REMARK  status: ('A' for Active; 'I' for Inactive)
REMARK    1  A    between atoms: C_7  and  C_8
REMARK    2  A    between atoms: C_10  and  N_11
REMARK    3  A    between atoms: N_11  and  C_12
REMARK    4  A    between atoms: C_12  and  C_13
REMARK                            x       y       z     vdW  Elec       q    Type
REMARK                         _______ _______ _______ _____ _____    ______ ____
ROOT
ATOM      1  C   UNL     1       2.933   6.414  19.138  0.00  0.00    +0.000 A 
ATOM      2  C   UNL     1       4.435   6.443  19.201  0.00  0.00    +0.000 A 
ATOM      3  C   UNL     1       5.068   5.267  19.330  0.00  0.00    +0.000 A 
ATOM      4  N   UNL     1       4.299   4.082  19.322  0.00  0.00    +0.000 N 
ATOM      5  N   UNL     1       4.763   2.793  19.357  0.00  0.00    +0.000 NA
ATOM      6  C   UNL     1       3.659   2.050  19.240  0.00  0.00    +0.000 A 
ATOM      7  C   UNL     1       2.501   2.826  19.166  0.00  0.00    +0.000 A 
ATOM      8 BR   UNL     1       0.764   2.156  19.005  0.00  0.00    +0.000 Br
ATOM      9  C   UNL     1       2.906   4.136  19.220  0.00  0.00    +0.000 A 
ATOM     10  N   UNL     1       2.226   5.321  19.164  0.00  0.00    +0.000 NA
ENDROOT
BRANCH   1  17
ATOM     11 CL   UNL     1       1.156   7.472  21.567  0.00  0.00    +0.000 Cl
ATOM     12  C   UNL     1       1.472   8.284  20.074  0.00  0.00    +0.000 A 
ATOM     13  C   UNL     1       0.837   9.523  19.901  0.00  0.00    +0.000 A 
ATOM     14  C   UNL     1       0.973  10.234  18.708  0.00  0.00    +0.000 A 
ATOM     15  C   UNL     1       1.770   9.726  17.690  0.00  0.00    +0.000 A 
ATOM     16  C   UNL     1       2.425   8.505  17.861  0.00  0.00    +0.000 A 
ATOM     17  C   UNL     1       2.263   7.753  19.042  0.00  0.00    +0.000 A 
ENDBRANCH   1  17
BRANCH   3  18
ATOM     18  N   UNL     1       6.468   5.181  19.457  0.00  0.00    +0.000 N 
ATOM     19  H   UNL     1       6.715   4.185  19.487  0.00  0.00    +0.000 HD
BRANCH  18  20
ATOM     20  C   UNL     1       7.310   5.791  18.420  0.00  0.00    +0.000 C 
BRANCH  20  21
ATOM     21  C   UNL     1       6.806   5.484  17.032  0.00  0.00    +0.000 A 
ATOM     22  C   UNL     1       7.111   4.255  16.439  0.00  0.00    +0.000 A 
ATOM     23  C   UNL     1       6.556   3.945  15.206  0.00  0.00    +0.000 A 
ATOM     24  N   UNL     1       5.726   4.764  14.530  0.00  0.00    +0.000 NA
ATOM     25  C   UNL     1       5.438   5.947  15.114  0.00  0.00    +0.000 A 
ATOM     26  C   UNL     1       5.940   6.342  16.346  0.00  0.00    +0.000 A 
ENDBRANCH  20  21
ENDBRANCH  18  20
ENDBRANCH   3  18
TORSDOF 4
ENDMDL
MODEL 6
REMARK VINA RESULT:      -7.5      2.832      5.271
REMARK  Name = 
REMARK  4 active torsions:
REMARK  status: ('A' for Active; 'I' for Inactive)
REMARK    1  A    between atoms: C_7  and  C_8
REMARK    2  A    between atoms: C_10  and  N_11
REMARK    3  A    between atoms: N_11  and  C_12
REMARK    4  A    between atoms: C_12  and  C_13
REMARK                            x       y       z     vdW  Elec       q    Type
REMARK                         _______ _______ _______ _____ _____    ______ ____
ROOT
ATOM      1  C   UNL     1       2.837   6.566  18.910  0.00  0.00    +0.000 A 
ATOM      2  C   UNL     1       3.957   6.401  17.921  0.00  0.00    +0.000 A 
ATOM      3  C   UNL     1       4.601   5.224  17.912  0.00  0.00    +0.000 A 
ATOM      4  N   UNL     1       4.144   4.197  18.768  0.00  0.00    +0.000 N 
ATOM      5  N   UNL     1       4.610   2.911  18.842  0.00  0.00    +0.000 NA
ATOM      6  C   UNL     1       3.799   2.325  19.727  0.00  0.00    +0.000 A 
ATOM      7  C   UNL     1       2.850   3.208  20.245  0.00  0.00    +0.000 A 
ATOM      8 BR   UNL     1       1.547   2.768  21.511  0.00  0.00    +0.000 Br
ATOM      9  C   UNL     1       3.067   4.417  19.632  0.00  0.00    +0.000 A 
ATOM     10  N   UNL     1       2.439   5.628  19.721  0.00  0.00    +0.000 NA
ENDROOT
BRANCH   1  17
ATOM     11 CL   UNL     1       1.171   7.492  21.468  0.00  0.00    +0.000 Cl
ATOM     12  C   UNL     1       1.432   8.388  20.013  0.00  0.00    +0.000 A 
ATOM     13  C   UNL     1       0.802   9.639  19.939  0.00  0.00    +0.000 A 
ATOM     14  C   UNL     1       0.896  10.418  18.786  0.00  0.00    +0.000 A 
ATOM     15  C   UNL     1       1.647   9.965  17.707  0.00  0.00    +0.000 A 
ATOM     16  C   UNL     1       2.297   8.732  17.780  0.00  0.00    +0.000 A 
ATOM     17  C   UNL     1       2.176   7.912  18.920  0.00  0.00    +0.000 A 
ENDBRANCH   1  17
BRANCH   3  18
ATOM     18  N   UNL     1       5.702   4.980  17.068  0.00  0.00    +0.000 N 
ATOM     19  H   UNL     1       5.602   4.026  16.698  0.00  0.00    +0.000 HD
BRANCH  18  20
ATOM     20  C   UNL     1       5.915   5.858  15.912  0.00  0.00    +0.000 C 
BRANCH  20  21
ATOM     21  C   UNL     1       6.273   5.079  14.671  0.00  0.00    +0.000 A 
ATOM     22  C   UNL     1       5.381   4.124  14.170  0.00  0.00    +0.000 A 
ATOM     23  C   UNL     1       5.677   3.489  12.973  0.00  0.00    +0.000 A 
ATOM     24  N   UNL     1       6.784   3.737  12.246  0.00  0.00    +0.000 NA
ATOM     25  C   UNL     1       7.635   4.661  12.738  0.00  0.00    +0.000 A 
ATOM     26  C   UNL     1       7.423   5.352  13.923  0.00  0.00    +0.000 A 
ENDBRANCH  20  21
ENDBRANCH  18  20
ENDBRANCH   3  18
TORSDOF 4
ENDMDL
MODEL 7
REMARK VINA RESULT:      -7.5      2.869      5.226
REMARK  Name = 
REMARK  4 active torsions:
REMARK  status: ('A' for Active; 'I' for Inactive)
REMARK    1  A    between atoms: C_7  and  C_8
REMARK    2  A    between atoms: C_10  and  N_11
REMARK    3  A    between atoms: N_11  and  C_12
REMARK    4  A    between atoms: C_12  and  C_13
REMARK                            x       y       z     vdW  Elec       q    Type
REMARK                         _______ _______ _______ _____ _____    ______ ____
ROOT
ATOM      1  C   UNL     1       2.771   6.706  18.842  0.00  0.00    +0.000 A 
ATOM      2  C   UNL     1       3.796   6.523  17.757  0.00  0.00    +0.000 A 
ATOM      3  C   UNL     1       4.420   5.337  17.694  0.00  0.00    +0.000 A 
ATOM      4  N   UNL     1       4.028   4.319  18.592  0.00  0.00    +0.000 N 
ATOM      5  N   UNL     1       4.481   3.026  18.629  0.00  0.00    +0.000 NA
ATOM      6  C   UNL     1       3.746   2.454  19.586  0.00  0.00    +0.000 A 
ATOM      7  C   UNL     1       2.859   3.352  20.184  0.00  0.00    +0.000 A 
ATOM      8 BR   UNL     1       1.670   2.933  21.564  0.00  0.00    +0.000 Br
ATOM      9  C   UNL     1       3.037   4.555  19.549  0.00  0.00    +0.000 A 
ATOM     10  N   UNL     1       2.436   5.776  19.689  0.00  0.00    +0.000 NA
ENDROOT
BRANCH   1  17
ATOM     11 CL   UNL     1       1.143   7.566  21.447  0.00  0.00    +0.000 Cl
ATOM     12  C   UNL     1       1.406   8.509  20.022  0.00  0.00    +0.000 A 
ATOM     13  C   UNL     1       0.796   9.772  19.999  0.00  0.00    +0.000 A 
ATOM     14  C   UNL     1       0.893  10.590  18.873  0.00  0.00    +0.000 A 
ATOM     15  C   UNL     1       1.626  10.165  17.773  0.00  0.00    +0.000 A 
ATOM     16  C   UNL     1       2.257   8.919  17.795  0.00  0.00    +0.000 A 
ATOM     17  C   UNL     1       2.133   8.061  18.907  0.00  0.00    +0.000 A 
ENDBRANCH   1  17
BRANCH   3  18
ATOM     18  N   UNL     1       5.436   5.075  16.755  0.00  0.00    +0.000 N 
ATOM     19  H   UNL     1       6.299   4.880  17.279  0.00  0.00    +0.000 HD
BRANCH  18  20
ATOM     20  C   UNL     1       5.259   3.965  15.812  0.00  0.00    +0.000 C 
BRANCH  20  21
ATOM     21  C   UNL     1       5.976   4.214  14.508  0.00  0.00    +0.000 A 
ATOM     22  C   UNL     1       7.089   5.061  14.479  0.00  0.00    +0.000 A 
ATOM     23  C   UNL     1       7.799   5.200  13.296  0.00  0.00    +0.000 A 
ATOM     24  N   UNL     1       7.484   4.560  12.152  0.00  0.00    +0.000 NA
ATOM     25  C   UNL     1       6.409   3.744  12.193  0.00  0.00    +0.000 A 
ATOM     26  C   UNL     1       5.641   3.537  13.330  0.00  0.00    +0.000 A 
ENDBRANCH  20  21
ENDBRANCH  18  20
ENDBRANCH   3  18
TORSDOF 4
ENDMDL
MODEL 8
REMARK VINA RESULT:      -7.5      2.710      4.923
REMARK  Name = 
REMARK  4 active torsions:
REMARK  status: ('A' for Active; 'I' for Inactive)
REMARK    1  A    between atoms: C_7  and  C_8
REMARK    2  A    between atoms: C_10  and  N_11
REMARK    3  A    between atoms: N_11  and  C_12
REMARK    4  A    between atoms: C_12  and  C_13
REMARK                            x       y       z     vdW  Elec       q    Type
REMARK                         _______ _______ _______ _____ _____    ______ ____
ROOT
ATOM      1  C   UNL     1       2.730   6.168  19.629  0.00  0.00    +0.000 A 
ATOM      2  C   UNL     1       4.229   6.272  19.584  0.00  0.00    +0.000 A 
ATOM      3  C   UNL     1       4.922   5.129  19.463  0.00  0.00    +0.000 A 
ATOM      4  N   UNL     1       4.207   3.920  19.309  0.00  0.00    +0.000 N 
ATOM      5  N   UNL     1       4.729   2.672  19.087  0.00  0.00    +0.000 NA
ATOM      6  C   UNL     1       3.653   1.897  18.928  0.00  0.00    +0.000 A 
ATOM      7  C   UNL     1       2.459   2.607  19.074  0.00  0.00    +0.000 A 
ATOM      8 BR   UNL     1       0.746   1.875  18.930  0.00  0.00    +0.000 Br
ATOM      9  C   UNL     1       2.810   3.911  19.321  0.00  0.00    +0.000 A 
ATOM     10  N   UNL     1       2.075   5.048  19.520  0.00  0.00    +0.000 NA
ENDROOT
BRANCH   1  17
ATOM     11 CL   UNL     1       2.686   8.313  17.268  0.00  0.00    +0.000 Cl
ATOM     12  C   UNL     1       1.931   8.451  18.817  0.00  0.00    +0.000 A 
ATOM     13  C   UNL     1       1.266   9.659  19.073  0.00  0.00    +0.000 A 
ATOM     14  C   UNL     1       0.674   9.900  20.313  0.00  0.00    +0.000 A 
ATOM     15  C   UNL     1       0.717   8.921  21.298  0.00  0.00    +0.000 A 
ATOM     16  C   UNL     1       1.356   7.706  21.046  0.00  0.00    +0.000 A 
ATOM     17  C   UNL     1       1.997   7.463  19.814  0.00  0.00    +0.000 A 
ENDBRANCH   1  17
BRANCH   3  18
ATOM     18  N   UNL     1       6.329   5.104  19.469  0.00  0.00    +0.000 N 
ATOM     19  H   UNL     1       6.622   4.131  19.314  0.00  0.00    +0.000 HD
BRANCH  18  20
ATOM     20  C   UNL     1       7.056   5.920  18.489  0.00  0.00    +0.000 C 
BRANCH  20  21
ATOM     21  C   UNL     1       6.652   5.593  17.073  0.00  0.00    +0.000 A 
ATOM     22  C   UNL     1       7.116   4.418  16.473  0.00  0.00    +0.000 A 
ATOM     23  C   UNL     1       6.655   4.079  15.209  0.00  0.00    +0.000 A 
ATOM     24  N   UNL     1       5.772   4.818  14.509  0.00  0.00    +0.000 NA
ATOM     25  C   UNL     1       5.330   5.949  15.100  0.00  0.00    +0.000 A 
ATOM     26  C   UNL     1       5.729   6.368  16.361  0.00  0.00    +0.000 A 
ENDBRANCH  20  21
ENDBRANCH  18  20
ENDBRANCH   3  18
TORSDOF 4
ENDMDL
MODEL 9
REMARK VINA RESULT:      -7.5      2.614      4.927
REMARK  Name = 
REMARK  4 active torsions:
REMARK  status: ('A' for Active; 'I' for Inactive)
REMARK    1  A    between atoms: C_7  and  C_8
REMARK    2  A    between atoms: C_10  and  N_11
REMARK    3  A    between atoms: N_11  and  C_12
REMARK    4  A    between atoms: C_12  and  C_13
REMARK                            x       y       z     vdW  Elec       q    Type
REMARK                         _______ _______ _______ _____ _____    ______ ____
ROOT
ATOM      1  C   UNL     1       1.541   7.508  20.249  0.00  0.00    +0.000 A 
ATOM      2  C   UNL     1       2.261   7.858  18.976  0.00  0.00    +0.000 A 
ATOM      3  C   UNL     1       2.959   6.882  18.375  0.00  0.00    +0.000 A 
ATOM      4  N   UNL     1       2.912   5.582  18.925  0.00  0.00    +0.000 N 
ATOM      5  N   UNL     1       3.481   4.445  18.414  0.00  0.00    +0.000 NA
ATOM      6  C   UNL     1       3.077   3.481  19.246  0.00  0.00    +0.000 A 
ATOM      7  C   UNL     1       2.294   3.974  20.292  0.00  0.00    +0.000 A 
ATOM      8 BR   UNL     1       1.550   2.940  21.659  0.00  0.00    +0.000 Br
ATOM      9  C   UNL     1       2.185   5.327  20.092  0.00  0.00    +0.000 A 
ATOM     10  N   UNL     1       1.528   6.316  20.771  0.00  0.00    +0.000 NA
ENDROOT
BRANCH   1  17
ATOM     11 CL   UNL     1       0.252   9.823  18.472  0.00  0.00    +0.000 Cl
ATOM     12  C   UNL     1       0.219   9.689  20.195  0.00  0.00    +0.000 A 
ATOM     13  C   UNL     1      -0.406  10.740  20.883  0.00  0.00    +0.000 A 
ATOM     14  C   UNL     1      -0.436  10.763  22.277  0.00  0.00    +0.000 A 
ATOM     15  C   UNL     1       0.134   9.719  22.996  0.00  0.00    +0.000 A 
ATOM     16  C   UNL     1       0.737   8.657  22.321  0.00  0.00    +0.000 A 
ATOM     17  C   UNL     1       0.815   8.639  20.914  0.00  0.00    +0.000 A 
ENDBRANCH   1  17
BRANCH   3  18
ATOM     18  N   UNL     1       3.716   7.112  17.211  0.00  0.00    +0.000 N 
ATOM     19  H   UNL     1       3.258   7.869  16.687  0.00  0.00    +0.000 HD
BRANCH  18  20
ATOM     20  C   UNL     1       5.127   7.494  17.349  0.00  0.00    +0.000 C 
BRANCH  20  21
ATOM     21  C   UNL     1       6.048   6.307  17.209  0.00  0.00    +0.000 A 
ATOM     22  C   UNL     1       6.156   5.656  15.976  0.00  0.00    +0.000 A 
ATOM     23  C   UNL     1       7.081   4.632  15.834  0.00  0.00    +0.000 A 
ATOM     24  N   UNL     1       7.899   4.217  16.822  0.00  0.00    +0.000 NA
ATOM     25  C   UNL     1       7.786   4.856  18.007  0.00  0.00    +0.000 A 
ATOM     26  C   UNL     1       6.895   5.893  18.242  0.00  0.00    +0.000 A 
ENDBRANCH  20  21
ENDBRANCH  18  20
ENDBRANCH   3  18
TORSDOF 4
ENDMDL
