MODEL 1
REMARK VINA RESULT:      -7.5      0.000      0.000
REMARK  Name = 
REMARK  7 active torsions:
REMARK  status: ('A' for Active; 'I' for Inactive)
REMARK    1  A    between atoms: C_1  and  O_2
REMARK    2  A    between atoms: O_2  and  C_3
REMARK    3  A    between atoms: N_9  and  C_10
REMARK    4  A    between atoms: C_10  and  C_11
REMARK    5  A    between atoms: C_11  and  C_12
REMARK    6  A    between atoms: C_17  and  C_18
REMARK    7  A    between atoms: C_21  and  O_22
REMARK                            x       y       z     vdW  Elec       q    Type
REMARK                         _______ _______ _______ _____ _____    ______ ____
ROOT
ATOM      1  C   UNL     1      -0.898  11.205  22.103  0.00  0.00    +0.000 A 
ATOM      2  C   UNL     1      -1.077  11.924  20.918  0.00  0.00    +0.000 A 
ATOM      3  C   UNL     1      -0.465  11.507  19.734  0.00  0.00    +0.000 A 
ATOM      4  C   UNL     1       0.339  10.365  19.712  0.00  0.00    +0.000 A 
ATOM      5  C   UNL     1       0.912   9.896  18.538  0.00  0.00    +0.000 A 
ATOM      6  C   UNL     1       1.657   8.730  18.556  0.00  0.00    +0.000 A 
ATOM      7  N   UNL     1       1.881   8.048  19.711  0.00  0.00    +0.000 N 
ATOM      8  C   UNL     1       1.322   8.494  20.860  0.00  0.00    +0.000 A 
ATOM      9  C   UNL     1       0.552   9.645  20.902  0.00  0.00    +0.000 A 
ATOM     10  C   UNL     1      -0.078  10.084  22.082  0.00  0.00    +0.000 A 
ENDROOT
BRANCH   1  12
ATOM     11  C   UNL     1      -2.789  12.116  23.213  0.00  0.00    +0.000 C 
ATOM     12  O   UNL     1      -1.480  11.538  23.299  0.00  0.00    +0.000 OA
ENDBRANCH   1  12
BRANCH  10  13
ATOM     13  O   UNL     1       0.105   9.291  23.196  0.00  0.00    +0.000 OA
ATOM     14  H   UNL     1      -0.433   9.718  23.893  0.00  0.00    +0.000 HD
ENDBRANCH  10  13
BRANCH   7  15
ATOM     15  C   UNL     1       2.630   6.767  19.732  0.00  0.00    +0.000 C 
BRANCH  15  16
ATOM     16  C   UNL     1       1.816   5.605  20.295  0.00  0.00    +0.000 C 
BRANCH  16  17
ATOM     17  C   UNL     1       2.014   4.353  19.470  0.00  0.00    +0.000 A 
ATOM     18  C   UNL     1       2.384   4.499  18.120  0.00  0.00    +0.000 A 
ATOM     19  C   UNL     1       2.538   3.387  17.295  0.00  0.00    +0.000 A 
ATOM     20  C   UNL     1       2.322   2.113  17.806  0.00  0.00    +0.000 A 
ATOM     21  C   UNL     1       1.959   1.951  19.143  0.00  0.00    +0.000 A 
ATOM     22  C   UNL     1       1.805   3.061  19.991  0.00  0.00    +0.000 A 
ATOM     23  C   UNL     1       1.409   2.821  21.422  0.00  0.00    +0.000 C 
ENDBRANCH  16  17
ENDBRANCH  15  16
ENDBRANCH   7  15
TORSDOF 5
ENDMDL
MODEL 2
REMARK VINA RESULT:      -7.4      1.970      3.640
REMARK  Name = 
REMARK  7 active torsions:
REMARK  status: ('A' for Active; 'I' for Inactive)
REMARK    1  A    between atoms: C_1  and  O_2
REMARK    2  A    between atoms: O_2  and  C_3
REMARK    3  A    between atoms: N_9  and  C_10
REMARK    4  A    between atoms: C_10  and  C_11
REMARK    5  A    between atoms: C_11  and  C_12
REMARK    6  A    between atoms: C_17  and  C_18
REMARK    7  A    between atoms: C_21  and  O_22
REMARK                            x       y       z     vdW  Elec       q    Type
REMARK                         _______ _______ _______ _____ _____    ______ ____
ROOT
ATOM      1  C   UNL     1       1.151   8.879  19.851  0.00  0.00    +0.000 A 
ATOM      2  C   UNL     1       1.275   9.556  18.635  0.00  0.00    +0.000 A 
ATOM      3  C   UNL     1       2.158   9.099  17.653  0.00  0.00    +0.000 A 
ATOM      4  C   UNL     1       2.933   7.958  17.869  0.00  0.00    +0.000 A 
ATOM      5  C   UNL     1       3.775   7.448  16.890  0.00  0.00    +0.000 A 
ATOM      6  C   UNL     1       4.483   6.284  17.130  0.00  0.00    +0.000 A 
ATOM      7  N   UNL     1       4.409   5.643  18.327  0.00  0.00    +0.000 N 
ATOM      8  C   UNL     1       3.587   6.128  19.286  0.00  0.00    +0.000 A 
ATOM      9  C   UNL     1       2.840   7.279  19.098  0.00  0.00    +0.000 A 
ATOM     10  C   UNL     1       1.942   7.758  20.071  0.00  0.00    +0.000 A 
ENDROOT
BRANCH   1  12
ATOM     11  C   UNL     1       0.474  10.581  21.362  0.00  0.00    +0.000 C 
ATOM     12  O   UNL     1       0.294   9.252  20.854  0.00  0.00    +0.000 OA
ENDBRANCH   1  12
BRANCH  10  13
ATOM     13  O   UNL     1       1.837   7.004  21.221  0.00  0.00    +0.000 OA
ATOM     14  H   UNL     1       0.905   6.707  21.237  0.00  0.00    +0.000 HD
ENDBRANCH  10  13
BRANCH   7  15
ATOM     15  C   UNL     1       5.119   4.364  18.575  0.00  0.00    +0.000 C 
BRANCH  15  16
ATOM     16  C   UNL     1       4.241   3.136  18.349  0.00  0.00    +0.000 C 
BRANCH  16  17
ATOM     17  C   UNL     1       3.127   3.069  19.368  0.00  0.00    +0.000 A 
ATOM     18  C   UNL     1       3.447   2.661  20.677  0.00  0.00    +0.000 A 
ATOM     19  C   UNL     1       2.458   2.536  21.650  0.00  0.00    +0.000 A 
ATOM     20  C   UNL     1       1.134   2.813  21.330  0.00  0.00    +0.000 A 
ATOM     21  C   UNL     1       0.802   3.222  20.039  0.00  0.00    +0.000 A 
ATOM     22  C   UNL     1       1.786   3.360  19.046  0.00  0.00    +0.000 A 
ATOM     23  C   UNL     1       1.364   3.802  17.672  0.00  0.00    +0.000 C 
ENDBRANCH  16  17
ENDBRANCH  15  16
ENDBRANCH   7  15
TORSDOF 5
ENDMDL
MODEL 3
REMARK VINA RESULT:      -7.2      0.769      1.681
REMARK  Name = 
REMARK  7 active torsions:
REMARK  status: ('A' for Active; 'I' for Inactive)
REMARK    1  A    between atoms: C_1  and  O_2
REMARK    2  A    between atoms: O_2  and  C_3
REMARK    3  A    between atoms: N_9  and  C_10
REMARK    4  A    between atoms: C_10  and  C_11
REMARK    5  A    between atoms: C_11  and  C_12
REMARK    6  A    between atoms: C_17  and  C_18
REMARK    7  A    between atoms: C_21  and  O_22
REMARK                            x       y       z     vdW  Elec       q    Type
REMARK                         _______ _______ _______ _____ _____    ______ ____
ROOT
ATOM      1  C   UNL     1      -0.838  11.088  21.766  0.00  0.00    +0.000 A 
ATOM      2  C   UNL     1      -1.054  11.768  20.565  0.00  0.00    +0.000 A 
ATOM      3  C   UNL     1      -0.445  11.338  19.384  0.00  0.00    +0.000 A 
ATOM      4  C   UNL     1       0.393  10.221  19.381  0.00  0.00    +0.000 A 
ATOM      5  C   UNL     1       0.964   9.737  18.212  0.00  0.00    +0.000 A 
ATOM      6  C   UNL     1       1.744   8.595  18.250  0.00  0.00    +0.000 A 
ATOM      7  N   UNL     1       2.004   7.951  19.419  0.00  0.00    +0.000 N 
ATOM      8  C   UNL     1       1.446   8.411  20.564  0.00  0.00    +0.000 A 
ATOM      9  C   UNL     1       0.643   9.540  20.586  0.00  0.00    +0.000 A 
ATOM     10  C   UNL     1       0.016   9.991  21.763  0.00  0.00    +0.000 A 
ENDROOT
BRANCH   1  12
ATOM     11  C   UNL     1      -1.654  12.835  23.151  0.00  0.00    +0.000 C 
ATOM     12  O   UNL     1      -1.414  11.435  22.961  0.00  0.00    +0.000 OA
ENDBRANCH   1  12
BRANCH  10  13
ATOM     13  O   UNL     1       0.236   9.233  22.895  0.00  0.00    +0.000 OA
ATOM     14  H   UNL     1       1.102   9.541  23.233  0.00  0.00    +0.000 HD
ENDBRANCH  10  13
BRANCH   7  15
ATOM     15  C   UNL     1       2.790   6.694  19.463  0.00  0.00    +0.000 C 
BRANCH  15  16
ATOM     16  C   UNL     1       2.821   5.957  18.127  0.00  0.00    +0.000 C 
BRANCH  16  17
ATOM     17  C   UNL     1       2.433   4.506  18.297  0.00  0.00    +0.000 A 
ATOM     18  C   UNL     1       1.367   4.201  19.165  0.00  0.00    +0.000 A 
ATOM     19  C   UNL     1       0.991   2.880  19.400  0.00  0.00    +0.000 A 
ATOM     20  C   UNL     1       1.675   1.845  18.775  0.00  0.00    +0.000 A 
ATOM     21  C   UNL     1       2.730   2.131  17.909  0.00  0.00    +0.000 A 
ATOM     22  C   UNL     1       3.120   3.457  17.656  0.00  0.00    +0.000 A 
ATOM     23  C   UNL     1       4.268   3.701  16.714  0.00  0.00    +0.000 C 
ENDBRANCH  16  17
ENDBRANCH  15  16
ENDBRANCH   7  15
TORSDOF 5
ENDMDL
MODEL 4
REMARK VINA RESULT:      -7.2      2.534      3.505
REMARK  Name = 
REMARK  7 active torsions:
REMARK  status: ('A' for Active; 'I' for Inactive)
REMARK    1  A    between atoms: C_1  and  O_2
REMARK    2  A    between atoms: O_2  and  C_3
REMARK    3  A    between atoms: N_9  and  C_10
REMARK    4  A    between atoms: C_10  and  C_11
REMARK    5  A    between atoms: C_11  and  C_12
REMARK    6  A    between atoms: C_17  and  C_18
REMARK    7  A    between atoms: C_21  and  O_22
REMARK                            x       y       z     vdW  Elec       q    Type
REMARK                         _______ _______ _______ _____ _____    ______ ____
ROOT
ATOM      1  C   UNL     1       0.240  11.076  21.491  0.00  0.00    +0.000 A 
ATOM      2  C   UNL     1       0.133  11.750  20.272  0.00  0.00    +0.000 A 
ATOM      3  C   UNL     1       0.588  11.160  19.090  0.00  0.00    +0.000 A 
ATOM      4  C   UNL     1       1.159   9.886  19.105  0.00  0.00    +0.000 A 
ATOM      5  C   UNL     1       1.565   9.252  17.938  0.00  0.00    +0.000 A 
ATOM      6  C   UNL     1       2.076   7.967  17.997  0.00  0.00    +0.000 A 
ATOM      7  N   UNL     1       2.232   7.319  19.182  0.00  0.00    +0.000 N 
ATOM      8  C   UNL     1       1.834   7.926  20.324  0.00  0.00    +0.000 A 
ATOM      9  C   UNL     1       1.299   9.204  20.327  0.00  0.00    +0.000 A 
ATOM     10  C   UNL     1       0.831   9.818  21.504  0.00  0.00    +0.000 A 
ENDROOT
BRANCH   1  12
ATOM     11  C   UNL     1      -1.581  11.342  22.990  0.00  0.00    +0.000 C 
ATOM     12  O   UNL     1      -0.200  11.578  22.688  0.00  0.00    +0.000 OA
ENDBRANCH   1  12
BRANCH  10  13
ATOM     13  O   UNL     1       0.923   9.066  22.657  0.00  0.00    +0.000 OA
ATOM     14  H   UNL     1       0.358   8.285  22.488  0.00  0.00    +0.000 HD
ENDBRANCH  10  13
BRANCH   7  15
ATOM     15  C   UNL     1       2.725   5.921  19.251  0.00  0.00    +0.000 C 
BRANCH  15  16
ATOM     16  C   UNL     1       3.426   5.467  17.973  0.00  0.00    +0.000 C 
BRANCH  16  17
ATOM     17  C   UNL     1       4.918   5.692  18.062  0.00  0.00    +0.000 A 
ATOM     18  C   UNL     1       5.582   5.284  19.234  0.00  0.00    +0.000 A 
ATOM     19  C   UNL     1       6.948   5.503  19.397  0.00  0.00    +0.000 A 
ATOM     20  C   UNL     1       7.671   6.137  18.393  0.00  0.00    +0.000 A 
ATOM     21  C   UNL     1       7.028   6.543  17.224  0.00  0.00    +0.000 A 
ATOM     22  C   UNL     1       5.653   6.325  17.040  0.00  0.00    +0.000 A 
ATOM     23  C   UNL     1       5.017   6.789  15.758  0.00  0.00    +0.000 C 
ENDBRANCH  16  17
ENDBRANCH  15  16
ENDBRANCH   7  15
TORSDOF 5
ENDMDL
MODEL 5
REMARK VINA RESULT:      -7.2      1.605      2.310
REMARK  Name = 
REMARK  7 active torsions:
REMARK  status: ('A' for Active; 'I' for Inactive)
REMARK    1  A    between atoms: C_1  and  O_2
REMARK    2  A    between atoms: O_2  and  C_3
REMARK    3  A    between atoms: N_9  and  C_10
REMARK    4  A    between atoms: C_10  and  C_11
REMARK    5  A    between atoms: C_11  and  C_12
REMARK    6  A    between atoms: C_17  and  C_18
REMARK    7  A    between atoms: C_21  and  O_22
REMARK                            x       y       z     vdW  Elec       q    Type
REMARK                         _______ _______ _______ _____ _____    ______ ____
ROOT
ATOM      1  C   UNL     1      -0.515  11.228  22.051  0.00  0.00    +0.000 A 
ATOM      2  C   UNL     1      -0.653  11.978  20.881  0.00  0.00    +0.000 A 
ATOM      3  C   UNL     1      -0.090  11.536  19.681  0.00  0.00    +0.000 A 
ATOM      4  C   UNL     1       0.622  10.336  19.629  0.00  0.00    +0.000 A 
ATOM      5  C   UNL     1       1.142   9.844  18.439  0.00  0.00    +0.000 A 
ATOM      6  C   UNL     1       1.794   8.624  18.427  0.00  0.00    +0.000 A 
ATOM      7  N   UNL     1       1.980   7.907  19.568  0.00  0.00    +0.000 N 
ATOM      8  C   UNL     1       1.472   8.375  20.732  0.00  0.00    +0.000 A 
ATOM      9  C   UNL     1       0.794   9.581  20.804  0.00  0.00    +0.000 A 
ATOM     10  C   UNL     1       0.216  10.046  21.999  0.00  0.00    +0.000 A 
ENDROOT
BRANCH   1  12
ATOM     11  C   UNL     1      -2.434  11.973  23.234  0.00  0.00    +0.000 C 
ATOM     12  O   UNL     1      -1.054  11.583  23.260  0.00  0.00    +0.000 OA
ENDBRANCH   1  12
BRANCH  10  13
ATOM     13  O   UNL     1       0.350   9.222  23.098  0.00  0.00    +0.000 OA
ATOM     14  H   UNL     1       0.353   9.831  23.864  0.00  0.00    +0.000 HD
ENDBRANCH  10  13
BRANCH   7  15
ATOM     15  C   UNL     1       2.626   6.572  19.557  0.00  0.00    +0.000 C 
BRANCH  15  16
ATOM     16  C   UNL     1       2.313   5.762  18.302  0.00  0.00    +0.000 C 
BRANCH  16  17
ATOM     17  C   UNL     1       3.575   5.433  17.538  0.00  0.00    +0.000 A 
ATOM     18  C   UNL     1       4.432   6.492  17.184  0.00  0.00    +0.000 A 
ATOM     19  C   UNL     1       5.588   6.259  16.441  0.00  0.00    +0.000 A 
ATOM     20  C   UNL     1       5.903   4.967  16.038  0.00  0.00    +0.000 A 
ATOM     21  C   UNL     1       5.066   3.907  16.384  0.00  0.00    +0.000 A 
ATOM     22  C   UNL     1       3.900   4.121  17.138  0.00  0.00    +0.000 A 
ATOM     23  C   UNL     1       3.036   2.937  17.478  0.00  0.00    +0.000 C 
ENDBRANCH  16  17
ENDBRANCH  15  16
ENDBRANCH   7  15
TORSDOF 5
ENDMDL
MODEL 6
REMARK VINA RESULT:      -7.1      1.174      1.920
REMARK  Name = 
REMARK  7 active torsions:
REMARK  status: ('A' for Active; 'I' for Inactive)
REMARK    1  A    between atoms: C_1  and  O_2
REMARK    2  A    between atoms: O_2  and  C_3
REMARK    3  A    between atoms: N_9  and  C_10
REMARK    4  A    between atoms: C_10  and  C_11
REMARK    5  A    between atoms: C_11  and  C_12
REMARK    6  A    between atoms: C_17  and  C_18
REMARK    7  A    between atoms: C_21  and  O_22
REMARK                            x       y       z     vdW  Elec       q    Type
REMARK                         _______ _______ _______ _____ _____    ______ ____
ROOT
ATOM      1  C   UNL     1      -0.087  10.761  21.802  0.00  0.00    +0.000 A 
ATOM      2  C   UNL     1      -0.417  11.609  20.742  0.00  0.00    +0.000 A 
ATOM      3  C   UNL     1       0.021  11.331  19.445  0.00  0.00    +0.000 A 
ATOM      4  C   UNL     1       0.800  10.201  19.184  0.00  0.00    +0.000 A 
ATOM      5  C   UNL     1       1.200   9.869  17.897  0.00  0.00    +0.000 A 
ATOM      6  C   UNL     1       1.925   8.711  17.680  0.00  0.00    +0.000 A 
ATOM      7  N   UNL     1       2.296   7.903  18.710  0.00  0.00    +0.000 N 
ATOM      8  C   UNL     1       1.906   8.214  19.967  0.00  0.00    +0.000 A 
ATOM      9  C   UNL     1       1.164   9.351  20.245  0.00  0.00    +0.000 A 
ATOM     10  C   UNL     1       0.708   9.651  21.542  0.00  0.00    +0.000 A 
ENDROOT
BRANCH   1  12
ATOM     11  C   UNL     1      -1.799  11.527  23.258  0.00  0.00    +0.000 C 
ATOM     12  O   UNL     1      -0.495  10.954  23.097  0.00  0.00    +0.000 OA
ENDBRANCH   1  12
BRANCH  10  13
ATOM     13  O   UNL     1       1.031   8.737  22.524  0.00  0.00    +0.000 OA
ATOM     14  H   UNL     1       0.724   9.151  23.356  0.00  0.00    +0.000 HD
ENDBRANCH  10  13
BRANCH   7  15
ATOM     15  C   UNL     1       3.024   6.630  18.482  0.00  0.00    +0.000 C 
BRANCH  15  16
ATOM     16  C   UNL     1       2.097   5.450  18.204  0.00  0.00    +0.000 C 
BRANCH  16  17
ATOM     17  C   UNL     1       2.245   4.380  19.262  0.00  0.00    +0.000 A 
ATOM     18  C   UNL     1       1.335   4.379  20.336  0.00  0.00    +0.000 A 
ATOM     19  C   UNL     1       1.445   3.447  21.367  0.00  0.00    +0.000 A 
ATOM     20  C   UNL     1       2.468   2.507  21.341  0.00  0.00    +0.000 A 
ATOM     21  C   UNL     1       3.374   2.492  20.281  0.00  0.00    +0.000 A 
ATOM     22  C   UNL     1       3.275   3.420  19.231  0.00  0.00    +0.000 A 
ATOM     23  C   UNL     1       4.285   3.355  18.118  0.00  0.00    +0.000 C 
ENDBRANCH  16  17
ENDBRANCH  15  16
ENDBRANCH   7  15
TORSDOF 5
ENDMDL
MODEL 7
REMARK VINA RESULT:      -7.1      2.766      7.546
REMARK  Name = 
REMARK  7 active torsions:
REMARK  status: ('A' for Active; 'I' for Inactive)
REMARK    1  A    between atoms: C_1  and  O_2
REMARK    2  A    between atoms: O_2  and  C_3
REMARK    3  A    between atoms: N_9  and  C_10
REMARK    4  A    between atoms: C_10  and  C_11
REMARK    5  A    between atoms: C_11  and  C_12
REMARK    6  A    between atoms: C_17  and  C_18
REMARK    7  A    between atoms: C_21  and  O_22
REMARK                            x       y       z     vdW  Elec       q    Type
REMARK                         _______ _______ _______ _____ _____    ______ ____
ROOT
ATOM      1  C   UNL     1       3.887   4.416  19.320  0.00  0.00    +0.000 A 
ATOM      2  C   UNL     1       4.448   4.734  18.081  0.00  0.00    +0.000 A 
ATOM      3  C   UNL     1       4.147   5.944  17.452  0.00  0.00    +0.000 A 
ATOM      4  C   UNL     1       3.277   6.859  18.049  0.00  0.00    +0.000 A 
ATOM      5  C   UNL     1       3.005   8.093  17.475  0.00  0.00    +0.000 A 
ATOM      6  C   UNL     1       2.179   8.989  18.131  0.00  0.00    +0.000 A 
ATOM      7  N   UNL     1       1.586   8.673  19.313  0.00  0.00    +0.000 N 
ATOM      8  C   UNL     1       1.849   7.474  19.884  0.00  0.00    +0.000 A 
ATOM      9  C   UNL     1       2.681   6.544  19.284  0.00  0.00    +0.000 A 
ATOM     10  C   UNL     1       3.003   5.319  19.899  0.00  0.00    +0.000 A 
ENDROOT
BRANCH   1  12
ATOM     11  C   UNL     1       3.885   2.042  19.300  0.00  0.00    +0.000 C 
ATOM     12  O   UNL     1       4.149   3.260  20.008  0.00  0.00    +0.000 OA
ENDBRANCH   1  12
BRANCH  10  13
ATOM     13  O   UNL     1       2.450   5.103  21.145  0.00  0.00    +0.000 OA
ATOM     14  H   UNL     1       1.839   4.350  21.016  0.00  0.00    +0.000 HD
ENDBRANCH  10  13
BRANCH   7  15
ATOM     15  C   UNL     1       0.745   9.646  20.052  0.00  0.00    +0.000 C 
BRANCH  15  16
ATOM     16  C   UNL     1       0.428  10.902  19.244  0.00  0.00    +0.000 C 
BRANCH  16  17
ATOM     17  C   UNL     1      -0.992  10.872  18.726  0.00  0.00    +0.000 A 
ATOM     18  C   UNL     1      -1.298   9.979  17.682  0.00  0.00    +0.000 A 
ATOM     19  C   UNL     1      -2.577   9.935  17.129  0.00  0.00    +0.000 A 
ATOM     20  C   UNL     1      -3.567  10.784  17.610  0.00  0.00    +0.000 A 
ATOM     21  C   UNL     1      -3.280  11.670  18.647  0.00  0.00    +0.000 A 
ATOM     22  C   UNL     1      -1.998  11.725  19.220  0.00  0.00    +0.000 A 
ATOM     23  C   UNL     1      -1.750  12.705  20.335  0.00  0.00    +0.000 C 
ENDBRANCH  16  17
ENDBRANCH  15  16
ENDBRANCH   7  15
TORSDOF 5
ENDMDL
MODEL 8
REMARK VINA RESULT:      -7.0      1.773      2.773
REMARK  Name = 
REMARK  7 active torsions:
REMARK  status: ('A' for Active; 'I' for Inactive)
REMARK    1  A    between atoms: C_1  and  O_2
REMARK    2  A    between atoms: O_2  and  C_3
REMARK    3  A    between atoms: N_9  and  C_10
REMARK    4  A    between atoms: C_10  and  C_11
REMARK    5  A    between atoms: C_11  and  C_12
REMARK    6  A    between atoms: C_17  and  C_18
REMARK    7  A    between atoms: C_21  and  O_22
REMARK                            x       y       z     vdW  Elec       q    Type
REMARK                         _______ _______ _______ _____ _____    ______ ____
ROOT
ATOM      1  C   UNL     1      -0.739  12.176  20.207  0.00  0.00    +0.000 A 
ATOM      2  C   UNL     1      -0.859  11.897  21.570  0.00  0.00    +0.000 A 
ATOM      3  C   UNL     1      -0.310  10.730  22.109  0.00  0.00    +0.000 A 
ATOM      4  C   UNL     1       0.367   9.821  21.294  0.00  0.00    +0.000 A 
ATOM      5  C   UNL     1       0.972   8.683  21.812  0.00  0.00    +0.000 A 
ATOM      6  C   UNL     1       1.679   7.839  20.973  0.00  0.00    +0.000 A 
ATOM      7  N   UNL     1       1.761   8.072  19.636  0.00  0.00    +0.000 N 
ATOM      8  C   UNL     1       1.180   9.182  19.122  0.00  0.00    +0.000 A 
ATOM      9  C   UNL     1       0.474  10.073  19.914  0.00  0.00    +0.000 A 
ATOM     10  C   UNL     1      -0.085  11.256  19.396  0.00  0.00    +0.000 A 
ENDROOT
BRANCH   1  12
ATOM     11  C   UNL     1      -0.756  14.550  20.142  0.00  0.00    +0.000 C 
ATOM     12  O   UNL     1      -1.231  13.307  19.608  0.00  0.00    +0.000 OA
ENDBRANCH   1  12
BRANCH  10  13
ATOM     13  O   UNL     1       0.123  11.486  18.051  0.00  0.00    +0.000 OA
ATOM     14  H   UNL     1      -0.550  10.937  17.601  0.00  0.00    +0.000 HD
ENDBRANCH  10  13
BRANCH   7  15
ATOM     15  C   UNL     1       2.563   7.206  18.738  0.00  0.00    +0.000 C 
BRANCH  15  16
ATOM     16  C   UNL     1       3.206   6.025  19.459  0.00  0.00    +0.000 C 
BRANCH  16  17
ATOM     17  C   UNL     1       2.479   4.736  19.149  0.00  0.00    +0.000 A 
ATOM     18  C   UNL     1       1.420   4.353  19.993  0.00  0.00    +0.000 A 
ATOM     19  C   UNL     1       0.738   3.154  19.788  0.00  0.00    +0.000 A 
ATOM     20  C   UNL     1       1.108   2.320  18.740  0.00  0.00    +0.000 A 
ATOM     21  C   UNL     1       2.153   2.688  17.893  0.00  0.00    +0.000 A 
ATOM     22  C   UNL     1       2.847   3.895  18.080  0.00  0.00    +0.000 A 
ATOM     23  C   UNL     1       3.967   4.235  17.135  0.00  0.00    +0.000 C 
ENDBRANCH  16  17
ENDBRANCH  15  16
ENDBRANCH   7  15
TORSDOF 5
ENDMDL
MODEL 9
REMARK VINA RESULT:      -7.0      3.364      5.319
REMARK  Name = 
REMARK  7 active torsions:
REMARK  status: ('A' for Active; 'I' for Inactive)
REMARK    1  A    between atoms: C_1  and  O_2
REMARK    2  A    between atoms: O_2  and  C_3
REMARK    3  A    between atoms: N_9  and  C_10
REMARK    4  A    between atoms: C_10  and  C_11
REMARK    5  A    between atoms: C_11  and  C_12
REMARK    6  A    between atoms: C_17  and  C_18
REMARK    7  A    between atoms: C_21  and  O_22
REMARK                            x       y       z     vdW  Elec       q    Type
REMARK                         _______ _______ _______ _____ _____    ______ ____
ROOT
ATOM      1  C   UNL     1       1.533   8.908  19.416  0.00  0.00    +0.000 A 
ATOM      2  C   UNL     1       1.011   8.568  20.667  0.00  0.00    +0.000 A 
ATOM      3  C   UNL     1       1.173   7.278  21.179  0.00  0.00    +0.000 A 
ATOM      4  C   UNL     1       1.859   6.304  20.450  0.00  0.00    +0.000 A 
ATOM      5  C   UNL     1       2.085   5.033  20.959  0.00  0.00    +0.000 A 
ATOM      6  C   UNL     1       2.816   4.118  20.222  0.00  0.00    +0.000 A 
ATOM      7  N   UNL     1       3.286   4.419  18.981  0.00  0.00    +0.000 N 
ATOM      8  C   UNL     1       3.076   5.658  18.479  0.00  0.00    +0.000 A 
ATOM      9  C   UNL     1       2.367   6.622  19.177  0.00  0.00    +0.000 A 
ATOM     10  C   UNL     1       2.193   7.928  18.684  0.00  0.00    +0.000 A 
ENDROOT
BRANCH   1  12
ATOM     11  C   UNL     1       0.319  10.944  19.290  0.00  0.00    +0.000 C 
ATOM     12  O   UNL     1       1.433  10.155  18.855  0.00  0.00    +0.000 OA
ENDBRANCH   1  12
BRANCH  10  13
ATOM     13  O   UNL     1       2.784   8.200  17.467  0.00  0.00    +0.000 OA
ATOM     14  H   UNL     1       2.396   7.544  16.853  0.00  0.00    +0.000 HD
ENDBRANCH  10  13
BRANCH   7  15
ATOM     15  C   UNL     1       4.120   3.466  18.207  0.00  0.00    +0.000 C 
BRANCH  15  16
ATOM     16  C   UNL     1       4.769   4.096  16.978  0.00  0.00    +0.000 C 
BRANCH  16  17
ATOM     17  C   UNL     1       5.858   5.067  17.375  0.00  0.00    +0.000 A 
ATOM     18  C   UNL     1       6.683   4.728  18.464  0.00  0.00    +0.000 A 
ATOM     19  C   UNL     1       7.676   5.600  18.908  0.00  0.00    +0.000 A 
ATOM     20  C   UNL     1       7.856   6.823  18.274  0.00  0.00    +0.000 A 
ATOM     21  C   UNL     1       7.048   7.171  17.192  0.00  0.00    +0.000 A 
ATOM     22  C   UNL     1       6.046   6.303  16.726  0.00  0.00    +0.000 A 
ATOM     23  C   UNL     1       5.206   6.737  15.556  0.00  0.00    +0.000 C 
ENDBRANCH  16  17
ENDBRANCH  15  16
ENDBRANCH   7  15
TORSDOF 5
ENDMDL
