MODEL 1
REMARK VINA RESULT:      -7.1      0.000      0.000
REMARK  Name = 
REMARK  4 active torsions:
REMARK  status: ('A' for Active; 'I' for Inactive)
REMARK    1  A    between atoms: C_2  and  O_3
REMARK    2  A    between atoms: C_2  and  C_23
REMARK    3  A    between atoms: O_3  and  C_4
REMARK    4  A    between atoms: C_5  and  C_6
REMARK                            x       y       z     vdW  Elec       q    Type
REMARK                         _______ _______ _______ _____ _____    ______ ____
ROOT
ATOM      1  C   UNL     1       2.317   6.903  19.967  0.00  0.00    +0.000 A 
ATOM      2  C   UNL     1       2.900   7.072  18.753  0.00  0.00    +0.000 A 
ATOM      3  C   UNL     1       2.681   8.355  17.960  0.00  0.00    +0.000 A 
ATOM      4  O   UNL     1       3.207   8.537  16.865  0.00  0.00    +0.000 OA
ATOM      5  N   UNL     1       1.856   9.278  18.545  0.00  0.00    +0.000 N 
ATOM      6  C   UNL     1       1.211   9.052  19.745  0.00  0.00    +0.000 A 
ATOM      7  C   UNL     1       0.365  10.101  20.071  0.00  0.00    +0.000 A 
ATOM      8  C   UNL     1      -0.400  10.019  21.215  0.00  0.00    +0.000 A 
ATOM      9  C   UNL     1      -0.292   8.864  21.997  0.00  0.00    +0.000 A 
ATOM     10  C   UNL     1       0.578   7.811  21.639  0.00  0.00    +0.000 A 
ATOM     11  C   UNL     1       1.367   7.904  20.490  0.00  0.00    +0.000 A 
ATOM     12  C   UNL     1       0.436  11.168  19.021  0.00  0.00    +0.000 C 
ATOM     13  C   UNL     1       1.470  10.589  18.024  0.00  0.00    +0.000 C 
ENDROOT
BRANCH   2  14
ATOM     14  C   UNL     1       3.752   6.027  18.154  0.00  0.00    +0.000 A 
ATOM     15  C   UNL     1       3.248   5.179  17.157  0.00  0.00    +0.000 A 
ATOM     16  C   UNL     1       4.066   4.207  16.575  0.00  0.00    +0.000 A 
ATOM     17  C   UNL     1       5.393   4.079  16.981  0.00  0.00    +0.000 A 
ATOM     18  C   UNL     1       5.907   4.930  17.959  0.00  0.00    +0.000 A 
ATOM     19  C   UNL     1       5.092   5.902  18.543  0.00  0.00    +0.000 A 
ENDBRANCH   2  14
BRANCH   1  20
ATOM     20  O   UNL     1       2.467   5.728  20.736  0.00  0.00    +0.000 OA
BRANCH  20  22
ATOM     21  O   UNL     1       0.351   4.779  20.610  0.00  0.00    +0.000 OA
ATOM     22  C   UNL     1       1.567   4.728  20.479  0.00  0.00    +0.000 C 
BRANCH  22  23
ATOM     23  C   UNL     1       2.277   3.540  19.909  0.00  0.00    +0.000 A 
ATOM     24  C   UNL     1       3.567   3.230  20.378  0.00  0.00    +0.000 A 
ATOM     25  C   UNL     1       4.260   2.125  19.867  0.00  0.00    +0.000 A 
ATOM     26  C   UNL     1       3.663   1.329  18.898  0.00  0.00    +0.000 A 
ATOM     27  F   UNL     1       4.332   0.284  18.393  0.00  0.00    +0.000 F 
ATOM     28  C   UNL     1       2.378   1.601  18.444  0.00  0.00    +0.000 A 
ATOM     29  C   UNL     1       1.683   2.703  18.951  0.00  0.00    +0.000 A 
ENDBRANCH  22  23
ENDBRANCH  20  22
ENDBRANCH   1  20
TORSDOF 4
ENDMDL
MODEL 2
REMARK VINA RESULT:      -6.8      1.993      4.277
REMARK  Name = 
REMARK  4 active torsions:
REMARK  status: ('A' for Active; 'I' for Inactive)
REMARK    1  A    between atoms: C_2  and  O_3
REMARK    2  A    between atoms: C_2  and  C_23
REMARK    3  A    between atoms: O_3  and  C_4
REMARK    4  A    between atoms: C_5  and  C_6
REMARK                            x       y       z     vdW  Elec       q    Type
REMARK                         _______ _______ _______ _____ _____    ______ ____
ROOT
ATOM      1  C   UNL     1       2.560   6.797  18.249  0.00  0.00    +0.000 A 
ATOM      2  C   UNL     1       2.356   5.825  19.175  0.00  0.00    +0.000 A 
ATOM      3  C   UNL     1       1.609   6.129  20.467  0.00  0.00    +0.000 A 
ATOM      4  O   UNL     1       1.401   5.264  21.315  0.00  0.00    +0.000 OA
ATOM      5  N   UNL     1       1.196   7.426  20.621  0.00  0.00    +0.000 N 
ATOM      6  C   UNL     1       1.483   8.417  19.703  0.00  0.00    +0.000 A 
ATOM      7  C   UNL     1       1.035   9.655  20.137  0.00  0.00    +0.000 A 
ATOM      8  C   UNL     1       1.284  10.770  19.364  0.00  0.00    +0.000 A 
ATOM      9  C   UNL     1       1.992  10.599  18.170  0.00  0.00    +0.000 A 
ATOM     10  C   UNL     1       2.436   9.323  17.754  0.00  0.00    +0.000 A 
ATOM     11  C   UNL     1       2.167   8.192  18.528  0.00  0.00    +0.000 A 
ATOM     12  C   UNL     1       0.356   9.523  21.465  0.00  0.00    +0.000 C 
ATOM     13  C   UNL     1       0.462   8.003  21.746  0.00  0.00    +0.000 C 
ENDROOT
BRANCH   2  14
ATOM     14  C   UNL     1       2.854   4.451  18.973  0.00  0.00    +0.000 A 
ATOM     15  C   UNL     1       3.958   3.978  19.698  0.00  0.00    +0.000 A 
ATOM     16  C   UNL     1       4.411   2.668  19.521  0.00  0.00    +0.000 A 
ATOM     17  C   UNL     1       3.763   1.821  18.623  0.00  0.00    +0.000 A 
ATOM     18  C   UNL     1       2.654   2.279  17.912  0.00  0.00    +0.000 A 
ATOM     19  C   UNL     1       2.199   3.588  18.086  0.00  0.00    +0.000 A 
ENDBRANCH   2  14
BRANCH   1  20
ATOM     20  O   UNL     1       3.263   6.578  17.045  0.00  0.00    +0.000 OA
BRANCH  20  22
ATOM     21  O   UNL     1       5.327   7.036  18.006  0.00  0.00    +0.000 OA
ATOM     22  C   UNL     1       4.626   6.503  17.156  0.00  0.00    +0.000 C 
BRANCH  22  23
ATOM     23  C   UNL     1       5.170   5.577  16.114  0.00  0.00    +0.000 A 
ATOM     24  C   UNL     1       5.398   6.072  14.816  0.00  0.00    +0.000 A 
ATOM     25  C   UNL     1       5.906   5.232  13.818  0.00  0.00    +0.000 A 
ATOM     26  C   UNL     1       6.194   3.906  14.116  0.00  0.00    +0.000 A 
ATOM     27  F   UNL     1       6.661   3.096  13.156  0.00  0.00    +0.000 F 
ATOM     28  C   UNL     1       6.005   3.406  15.399  0.00  0.00    +0.000 A 
ATOM     29  C   UNL     1       5.497   4.241  16.399  0.00  0.00    +0.000 A 
ENDBRANCH  22  23
ENDBRANCH  20  22
ENDBRANCH   1  20
TORSDOF 4
ENDMDL
MODEL 3
REMARK VINA RESULT:      -6.7      2.063      4.216
REMARK  Name = 
REMARK  4 active torsions:
REMARK  status: ('A' for Active; 'I' for Inactive)
REMARK    1  A    between atoms: C_2  and  O_3
REMARK    2  A    between atoms: C_2  and  C_23
REMARK    3  A    between atoms: O_3  and  C_4
REMARK    4  A    between atoms: C_5  and  C_6
REMARK                            x       y       z     vdW  Elec       q    Type
REMARK                         _______ _______ _______ _____ _____    ______ ____
ROOT
ATOM      1  C   UNL     1       2.625   6.686  18.209  0.00  0.00    +0.000 A 
ATOM      2  C   UNL     1       2.406   5.721  19.138  0.00  0.00    +0.000 A 
ATOM      3  C   UNL     1       1.651   6.040  20.423  0.00  0.00    +0.000 A 
ATOM      4  O   UNL     1       1.429   5.181  21.273  0.00  0.00    +0.000 OA
ATOM      5  N   UNL     1       1.250   7.341  20.566  0.00  0.00    +0.000 N 
ATOM      6  C   UNL     1       1.553   8.324  19.644  0.00  0.00    +0.000 A 
ATOM      7  C   UNL     1       1.114   9.569  20.068  0.00  0.00    +0.000 A 
ATOM      8  C   UNL     1       1.379  10.677  19.291  0.00  0.00    +0.000 A 
ATOM      9  C   UNL     1       2.094  10.492  18.104  0.00  0.00    +0.000 A 
ATOM     10  C   UNL     1       2.530   9.210  17.698  0.00  0.00    +0.000 A 
ATOM     11  C   UNL     1       2.244   8.086  18.476  0.00  0.00    +0.000 A 
ATOM     12  C   UNL     1       0.423   9.450  21.392  0.00  0.00    +0.000 C 
ATOM     13  C   UNL     1       0.512   7.932  21.682  0.00  0.00    +0.000 C 
ENDROOT
BRANCH   2  14
ATOM     14  C   UNL     1       2.892   4.342  18.947  0.00  0.00    +0.000 A 
ATOM     15  C   UNL     1       2.193   3.445  18.126  0.00  0.00    +0.000 A 
ATOM     16  C   UNL     1       2.671   2.147  17.929  0.00  0.00    +0.000 A 
ATOM     17  C   UNL     1       3.852   1.737  18.546  0.00  0.00    +0.000 A 
ATOM     18  C   UNL     1       4.562   2.628  19.350  0.00  0.00    +0.000 A 
ATOM     19  C   UNL     1       4.086   3.926  19.549  0.00  0.00    +0.000 A 
ENDBRANCH   2  14
BRANCH   1  20
ATOM     20  O   UNL     1       3.336   6.454  17.011  0.00  0.00    +0.000 OA
BRANCH  20  22
ATOM     21  O   UNL     1       5.384   6.880  18.019  0.00  0.00    +0.000 OA
ATOM     22  C   UNL     1       4.699   6.395  17.129  0.00  0.00    +0.000 C 
BRANCH  22  23
ATOM     23  C   UNL     1       5.268   5.553  16.029  0.00  0.00    +0.000 A 
ATOM     24  C   UNL     1       6.494   5.929  15.449  0.00  0.00    +0.000 A 
ATOM     25  C   UNL     1       7.053   5.164  14.419  0.00  0.00    +0.000 A 
ATOM     26  C   UNL     1       6.397   4.023  13.976  0.00  0.00    +0.000 A 
ATOM     27  F   UNL     1       6.921   3.301  12.977  0.00  0.00    +0.000 F 
ATOM     28  C   UNL     1       5.201   3.618  14.557  0.00  0.00    +0.000 A 
ATOM     29  C   UNL     1       4.638   4.379  15.585  0.00  0.00    +0.000 A 
ENDBRANCH  22  23
ENDBRANCH  20  22
ENDBRANCH   1  20
TORSDOF 4
ENDMDL
MODEL 4
REMARK VINA RESULT:      -6.6      6.860     11.343
REMARK  Name = 
REMARK  4 active torsions:
REMARK  status: ('A' for Active; 'I' for Inactive)
REMARK    1  A    between atoms: C_2  and  O_3
REMARK    2  A    between atoms: C_2  and  C_23
REMARK    3  A    between atoms: O_3  and  C_4
REMARK    4  A    between atoms: C_5  and  C_6
REMARK                            x       y       z     vdW  Elec       q    Type
REMARK                         _______ _______ _______ _____ _____    ______ ____
ROOT
ATOM      1  C   UNL     1      -1.412  12.823  22.332  0.00  0.00    +0.000 A 
ATOM      2  C   UNL     1      -1.292  13.712  21.314  0.00  0.00    +0.000 A 
ATOM      3  C   UNL     1      -0.738  13.273  19.963  0.00  0.00    +0.000 A 
ATOM      4  O   UNL     1      -0.631  14.056  19.022  0.00  0.00    +0.000 OA
ATOM      5  N   UNL     1      -0.362  11.960  19.877  0.00  0.00    +0.000 N 
ATOM      6  C   UNL     1      -0.418  11.092  20.950  0.00  0.00    +0.000 A 
ATOM      7  C   UNL     1       0.106   9.850  20.625  0.00  0.00    +0.000 A 
ATOM      8  C   UNL     1       0.176   8.873  21.596  0.00  0.00    +0.000 A 
ATOM      9  C   UNL     1      -0.282   9.189  22.880  0.00  0.00    +0.000 A 
ATOM     10  C   UNL     1      -0.810  10.464  23.181  0.00  0.00    +0.000 A 
ATOM     11  C   UNL     1      -0.898  11.446  22.191  0.00  0.00    +0.000 A 
ATOM     12  C   UNL     1       0.550   9.834  19.194  0.00  0.00    +0.000 C 
ATOM     13  C   UNL     1       0.196  11.264  18.717  0.00  0.00    +0.000 C 
ENDROOT
BRANCH   2  14
ATOM     14  C   UNL     1      -1.681  15.125  21.474  0.00  0.00    +0.000 A 
ATOM     15  C   UNL     1      -2.910  15.588  20.982  0.00  0.00    +0.000 A 
ATOM     16  C   UNL     1      -3.285  16.923  21.158  0.00  0.00    +0.000 A 
ATOM     17  C   UNL     1      -2.438  17.802  21.830  0.00  0.00    +0.000 A 
ATOM     18  C   UNL     1      -1.222  17.346  22.337  0.00  0.00    +0.000 A 
ATOM     19  C   UNL     1      -0.844  16.013  22.162  0.00  0.00    +0.000 A 
ENDBRANCH   2  14
BRANCH   1  20
ATOM     20  O   UNL     1      -1.898  13.176  23.610  0.00  0.00    +0.000 OA
BRANCH  20  22
ATOM     21  O   UNL     1      -3.869  11.964  23.809  0.00  0.00    +0.000 OA
ATOM     22  C   UNL     1      -3.245  13.016  23.800  0.00  0.00    +0.000 C 
BRANCH  22  23
ATOM     23  C   UNL     1      -3.876  14.341  24.096  0.00  0.00    +0.000 A 
ATOM     24  C   UNL     1      -5.176  14.596  23.622  0.00  0.00    +0.000 A 
ATOM     25  C   UNL     1      -5.795  15.825  23.881  0.00  0.00    +0.000 A 
ATOM     26  C   UNL     1      -5.123  16.791  24.619  0.00  0.00    +0.000 A 
ATOM     27  F   UNL     1      -5.707  17.975  24.851  0.00  0.00    +0.000 F 
ATOM     28  C   UNL     1      -3.851  16.547  25.123  0.00  0.00    +0.000 A 
ATOM     29  C   UNL     1      -3.228  15.322  24.866  0.00  0.00    +0.000 A 
ENDBRANCH  22  23
ENDBRANCH  20  22
ENDBRANCH   1  20
TORSDOF 4
ENDMDL
MODEL 5
REMARK VINA RESULT:      -6.6      6.916     11.400
REMARK  Name = 
REMARK  4 active torsions:
REMARK  status: ('A' for Active; 'I' for Inactive)
REMARK    1  A    between atoms: C_2  and  O_3
REMARK    2  A    between atoms: C_2  and  C_23
REMARK    3  A    between atoms: O_3  and  C_4
REMARK    4  A    between atoms: C_5  and  C_6
REMARK                            x       y       z     vdW  Elec       q    Type
REMARK                         _______ _______ _______ _____ _____    ______ ____
ROOT
ATOM      1  C   UNL     1      -1.488  12.867  22.372  0.00  0.00    +0.000 A 
ATOM      2  C   UNL     1      -1.354  13.778  21.375  0.00  0.00    +0.000 A 
ATOM      3  C   UNL     1      -0.798  13.365  20.017  0.00  0.00    +0.000 A 
ATOM      4  O   UNL     1      -0.679  14.168  19.095  0.00  0.00    +0.000 OA
ATOM      5  N   UNL     1      -0.437  12.049  19.901  0.00  0.00    +0.000 N 
ATOM      6  C   UNL     1      -0.508  11.157  20.954  0.00  0.00    +0.000 A 
ATOM      7  C   UNL     1       0.002   9.917  20.602  0.00  0.00    +0.000 A 
ATOM      8  C   UNL     1       0.056   8.917  21.551  0.00  0.00    +0.000 A 
ATOM      9  C   UNL     1      -0.403   9.208  22.840  0.00  0.00    +0.000 A 
ATOM     10  C   UNL     1      -0.918  10.483  23.168  0.00  0.00    +0.000 A 
ATOM     11  C   UNL     1      -0.990  11.488  22.201  0.00  0.00    +0.000 A 
ATOM     12  C   UNL     1       0.453   9.929  19.174  0.00  0.00    +0.000 C 
ATOM     13  C   UNL     1       0.117  11.374  18.728  0.00  0.00    +0.000 C 
ENDROOT
BRANCH   2  14
ATOM     14  C   UNL     1      -1.726  15.192  21.567  0.00  0.00    +0.000 A 
ATOM     15  C   UNL     1      -0.858  16.077  22.222  0.00  0.00    +0.000 A 
ATOM     16  C   UNL     1      -1.205  17.421  22.380  0.00  0.00    +0.000 A 
ATOM     17  C   UNL     1      -2.418  17.892  21.880  0.00  0.00    +0.000 A 
ATOM     18  C   UNL     1      -3.279  17.023  21.212  0.00  0.00    +0.000 A 
ATOM     19  C   UNL     1      -2.935  15.678  21.053  0.00  0.00    +0.000 A 
ENDBRANCH   2  14
BRANCH   1  20
ATOM     20  O   UNL     1      -1.976  13.197  23.656  0.00  0.00    +0.000 OA
BRANCH  20  22
ATOM     21  O   UNL     1      -3.930  11.959  23.864  0.00  0.00    +0.000 OA
ATOM     22  C   UNL     1      -3.320  13.020  23.846  0.00  0.00    +0.000 C 
BRANCH  22  23
ATOM     23  C   UNL     1      -3.970  14.339  24.128  0.00  0.00    +0.000 A 
ATOM     24  C   UNL     1      -3.253  15.309  24.853  0.00  0.00    +0.000 A 
ATOM     25  C   UNL     1      -3.831  16.553  25.134  0.00  0.00    +0.000 A 
ATOM     26  C   UNL     1      -5.116  16.830  24.685  0.00  0.00    +0.000 A 
ATOM     27  F   UNL     1      -5.678  18.013  24.970  0.00  0.00    +0.000 F 
ATOM     28  C   UNL     1      -5.829  15.897  23.941  0.00  0.00    +0.000 A 
ATOM     29  C   UNL     1      -5.256  14.653  23.659  0.00  0.00    +0.000 A 
ENDBRANCH  22  23
ENDBRANCH  20  22
ENDBRANCH   1  20
TORSDOF 4
ENDMDL
MODEL 6
REMARK VINA RESULT:      -6.6      5.820     10.488
REMARK  Name = 
REMARK  4 active torsions:
REMARK  status: ('A' for Active; 'I' for Inactive)
REMARK    1  A    between atoms: C_2  and  O_3
REMARK    2  A    between atoms: C_2  and  C_23
REMARK    3  A    between atoms: O_3  and  C_4
REMARK    4  A    between atoms: C_5  and  C_6
REMARK                            x       y       z     vdW  Elec       q    Type
REMARK                         _______ _______ _______ _____ _____    ______ ____
ROOT
ATOM      1  C   UNL     1      -1.191  11.898  20.722  0.00  0.00    +0.000 A 
ATOM      2  C   UNL     1      -1.149  11.657  22.058  0.00  0.00    +0.000 A 
ATOM      3  C   UNL     1      -0.292  10.525  22.614  0.00  0.00    +0.000 A 
ATOM      4  O   UNL     1      -0.227  10.295  23.819  0.00  0.00    +0.000 OA
ATOM      5  N   UNL     1       0.386   9.785  21.684  0.00  0.00    +0.000 N 
ATOM      6  C   UNL     1       0.266   9.997  20.324  0.00  0.00    +0.000 A 
ATOM      7  C   UNL     1       0.982   9.056  19.599  0.00  0.00    +0.000 A 
ATOM      8  C   UNL     1       0.932   9.088  18.221  0.00  0.00    +0.000 A 
ATOM      9  C   UNL     1       0.147  10.073  17.614  0.00  0.00    +0.000 A 
ATOM     10  C   UNL     1      -0.572  11.019  18.380  0.00  0.00    +0.000 A 
ATOM     11  C   UNL     1      -0.505  10.998  19.775  0.00  0.00    +0.000 A 
ATOM     12  C   UNL     1       1.683   8.112  20.527  0.00  0.00    +0.000 C 
ATOM     13  C   UNL     1       1.278   8.650  21.922  0.00  0.00    +0.000 C 
ENDROOT
BRANCH   2  14
ATOM     14  C   UNL     1      -1.929  12.465  23.013  0.00  0.00    +0.000 A 
ATOM     15  C   UNL     1      -1.493  13.744  23.389  0.00  0.00    +0.000 A 
ATOM     16  C   UNL     1      -2.248  14.517  24.275  0.00  0.00    +0.000 A 
ATOM     17  C   UNL     1      -3.446  14.020  24.787  0.00  0.00    +0.000 A 
ATOM     18  C   UNL     1      -3.895  12.756  24.404  0.00  0.00    +0.000 A 
ATOM     19  C   UNL     1      -3.142  11.982  23.519  0.00  0.00    +0.000 A 
ENDBRANCH   2  14
BRANCH   1  20
ATOM     20  O   UNL     1      -1.982  12.917  20.149  0.00  0.00    +0.000 OA
BRANCH  20  22
ATOM     21  O   UNL     1      -3.584  11.663  19.029  0.00  0.00    +0.000 OA
ATOM     22  C   UNL     1      -3.256  12.556  19.798  0.00  0.00    +0.000 C 
BRANCH  22  23
ATOM     23  C   UNL     1      -4.245  13.370  20.572  0.00  0.00    +0.000 A 
ATOM     24  C   UNL     1      -5.454  12.770  20.973  0.00  0.00    +0.000 A 
ATOM     25  C   UNL     1      -6.401  13.502  21.699  0.00  0.00    +0.000 A 
ATOM     26  C   UNL     1      -6.139  14.825  22.031  0.00  0.00    +0.000 A 
ATOM     27  F   UNL     1      -7.053  15.533  22.708  0.00  0.00    +0.000 F 
ATOM     28  C   UNL     1      -4.938  15.426  21.671  0.00  0.00    +0.000 A 
ATOM     29  C   UNL     1      -3.990  14.699  20.946  0.00  0.00    +0.000 A 
ENDBRANCH  22  23
ENDBRANCH  20  22
ENDBRANCH   1  20
TORSDOF 4
ENDMDL
MODEL 7
REMARK VINA RESULT:      -6.6      9.898     11.557
REMARK  Name = 
REMARK  4 active torsions:
REMARK  status: ('A' for Active; 'I' for Inactive)
REMARK    1  A    between atoms: C_2  and  O_3
REMARK    2  A    between atoms: C_2  and  C_23
REMARK    3  A    between atoms: O_3  and  C_4
REMARK    4  A    between atoms: C_5  and  C_6
REMARK                            x       y       z     vdW  Elec       q    Type
REMARK                         _______ _______ _______ _____ _____    ______ ____
ROOT
ATOM      1  C   UNL     1       8.582  13.491  22.453  0.00  0.00    +0.000 A 
ATOM      2  C   UNL     1       9.238  14.679  22.479  0.00  0.00    +0.000 A 
ATOM      3  C   UNL     1       9.501  15.390  23.801  0.00  0.00    +0.000 A 
ATOM      4  O   UNL     1      10.104  16.460  23.852  0.00  0.00    +0.000 OA
ATOM      5  N   UNL     1       9.015  14.763  24.917  0.00  0.00    +0.000 N 
ATOM      6  C   UNL     1       8.281  13.595  24.860  0.00  0.00    +0.000 A 
ATOM      7  C   UNL     1       7.829  13.219  26.116  0.00  0.00    +0.000 A 
ATOM      8  C   UNL     1       7.033  12.099  26.238  0.00  0.00    +0.000 A 
ATOM      9  C   UNL     1       6.710  11.392  25.075  0.00  0.00    +0.000 A 
ATOM     10  C   UNL     1       7.186  11.800  23.808  0.00  0.00    +0.000 A 
ATOM     11  C   UNL     1       8.007  12.924  23.689  0.00  0.00    +0.000 A 
ATOM     12  C   UNL     1       8.302  14.195  27.149  0.00  0.00    +0.000 C 
ATOM     13  C   UNL     1       9.118  15.206  26.307  0.00  0.00    +0.000 C 
ENDROOT
BRANCH   2  14
ATOM     14  C   UNL     1       9.710  15.327  21.241  0.00  0.00    +0.000 A 
ATOM     15  C   UNL     1      11.052  15.223  20.847  0.00  0.00    +0.000 A 
ATOM     16  C   UNL     1      11.489  15.818  19.661  0.00  0.00    +0.000 A 
ATOM     17  C   UNL     1      10.588  16.516  18.857  0.00  0.00    +0.000 A 
ATOM     18  C   UNL     1       9.248  16.608  19.233  0.00  0.00    +0.000 A 
ATOM     19  C   UNL     1       8.809  16.015  20.419  0.00  0.00    +0.000 A 
ENDBRANCH   2  14
BRANCH   1  20
ATOM     20  O   UNL     1       8.292  12.797  21.258  0.00  0.00    +0.000 OA
BRANCH  20  22
ATOM     21  O   UNL     1       9.340  10.738  21.493  0.00  0.00    +0.000 OA
ATOM     22  C   UNL     1       9.171  11.804  20.916  0.00  0.00    +0.000 C 
BRANCH  22  23
ATOM     23  C   UNL     1       9.871  12.163  19.643  0.00  0.00    +0.000 A 
ATOM     24  C   UNL     1       9.145  12.814  18.628  0.00  0.00    +0.000 A 
ATOM     25  C   UNL     1       9.769  13.164  17.424  0.00  0.00    +0.000 A 
ATOM     26  C   UNL     1      11.115  12.873  17.238  0.00  0.00    +0.000 A 
ATOM     27  F   UNL     1      11.708  13.189  16.080  0.00  0.00    +0.000 F 
ATOM     28  C   UNL     1      11.857  12.259  18.240  0.00  0.00    +0.000 A 
ATOM     29  C   UNL     1      11.238  11.907  19.444  0.00  0.00    +0.000 A 
ENDBRANCH  22  23
ENDBRANCH  20  22
ENDBRANCH   1  20
TORSDOF 4
ENDMDL
MODEL 8
REMARK VINA RESULT:      -6.4      1.913      4.117
REMARK  Name = 
REMARK  4 active torsions:
REMARK  status: ('A' for Active; 'I' for Inactive)
REMARK    1  A    between atoms: C_2  and  O_3
REMARK    2  A    between atoms: C_2  and  C_23
REMARK    3  A    between atoms: O_3  and  C_4
REMARK    4  A    between atoms: C_5  and  C_6
REMARK                            x       y       z     vdW  Elec       q    Type
REMARK                         _______ _______ _______ _____ _____    ______ ____
ROOT
ATOM      1  C   UNL     1       2.659   7.423  18.177  0.00  0.00    +0.000 A 
ATOM      2  C   UNL     1       2.446   6.395  19.038  0.00  0.00    +0.000 A 
ATOM      3  C   UNL     1       1.611   6.599  20.296  0.00  0.00    +0.000 A 
ATOM      4  O   UNL     1       1.393   5.682  21.085  0.00  0.00    +0.000 OA
ATOM      5  N   UNL     1       1.133   7.868  20.490  0.00  0.00    +0.000 N 
ATOM      6  C   UNL     1       1.429   8.917  19.642  0.00  0.00    +0.000 A 
ATOM      7  C   UNL     1       0.901  10.111  20.110  0.00  0.00    +0.000 A 
ATOM      8  C   UNL     1       1.144  11.275  19.411  0.00  0.00    +0.000 A 
ATOM      9  C   UNL     1       1.927  11.196  18.255  0.00  0.00    +0.000 A 
ATOM     10  C   UNL     1       2.452   9.965  17.803  0.00  0.00    +0.000 A 
ATOM     11  C   UNL     1       2.189   8.784  18.501  0.00  0.00    +0.000 A 
ATOM     12  C   UNL     1       0.152   9.880  21.386  0.00  0.00    +0.000 C 
ATOM     13  C   UNL     1       0.309   8.353  21.596  0.00  0.00    +0.000 C 
ENDROOT
BRANCH   2  14
ATOM     14  C   UNL     1       3.016   5.056  18.797  0.00  0.00    +0.000 A 
ATOM     15  C   UNL     1       2.511   4.239  17.775  0.00  0.00    +0.000 A 
ATOM     16  C   UNL     1       3.070   2.981  17.535  0.00  0.00    +0.000 A 
ATOM     17  C   UNL     1       4.139   2.533  18.309  0.00  0.00    +0.000 A 
ATOM     18  C   UNL     1       4.658   3.348  19.315  0.00  0.00    +0.000 A 
ATOM     19  C   UNL     1       4.101   4.605  19.558  0.00  0.00    +0.000 A 
ENDBRANCH   2  14
BRANCH   1  20
ATOM     20  O   UNL     1       3.441   7.298  17.007  0.00  0.00    +0.000 OA
BRANCH  20  22
ATOM     21  O   UNL     1       5.469   7.821  18.011  0.00  0.00    +0.000 OA
ATOM     22  C   UNL     1       4.793   7.200  17.202  0.00  0.00    +0.000 C 
BRANCH  22  23
ATOM     23  C   UNL     1       5.356   6.127  16.323  0.00  0.00    +0.000 A 
ATOM     24  C   UNL     1       4.871   6.003  15.007  0.00  0.00    +0.000 A 
ATOM     25  C   UNL     1       5.376   5.011  14.158  0.00  0.00    +0.000 A 
ATOM     26  C   UNL     1       6.366   4.152  14.617  0.00  0.00    +0.000 A 
ATOM     27  F   UNL     1       6.835   3.189  13.812  0.00  0.00    +0.000 F 
ATOM     28  C   UNL     1       6.879   4.277  15.903  0.00  0.00    +0.000 A 
ATOM     29  C   UNL     1       6.378   5.266  16.755  0.00  0.00    +0.000 A 
ENDBRANCH  22  23
ENDBRANCH  20  22
ENDBRANCH   1  20
TORSDOF 4
ENDMDL
MODEL 9
REMARK VINA RESULT:      -6.4      4.824      8.401
REMARK  Name = 
REMARK  4 active torsions:
REMARK  status: ('A' for Active; 'I' for Inactive)
REMARK    1  A    between atoms: C_2  and  O_3
REMARK    2  A    between atoms: C_2  and  C_23
REMARK    3  A    between atoms: O_3  and  C_4
REMARK    4  A    between atoms: C_5  and  C_6
REMARK                            x       y       z     vdW  Elec       q    Type
REMARK                         _______ _______ _______ _____ _____    ______ ____
ROOT
ATOM      1  C   UNL     1      -1.870  12.100  19.786  0.00  0.00    +0.000 A 
ATOM      2  C   UNL     1      -2.557  12.991  20.545  0.00  0.00    +0.000 A 
ATOM      3  C   UNL     1      -4.049  13.209  20.325  0.00  0.00    +0.000 A 
ATOM      4  O   UNL     1      -4.696  14.000  21.007  0.00  0.00    +0.000 OA
ATOM      5  N   UNL     1      -4.611  12.473  19.316  0.00  0.00    +0.000 N 
ATOM      6  C   UNL     1      -3.877  11.632  18.503  0.00  0.00    +0.000 A 
ATOM      7  C   UNL     1      -4.664  11.079  17.504  0.00  0.00    +0.000 A 
ATOM      8  C   UNL     1      -4.080  10.251  16.568  0.00  0.00    +0.000 A 
ATOM      9  C   UNL     1      -2.705  10.013  16.667  0.00  0.00    +0.000 A 
ATOM     10  C   UNL     1      -1.929  10.591  17.697  0.00  0.00    +0.000 A 
ATOM     11  C   UNL     1      -2.525  11.414  18.656  0.00  0.00    +0.000 A 
ATOM     12  C   UNL     1      -6.077  11.555  17.636  0.00  0.00    +0.000 C 
ATOM     13  C   UNL     1      -6.008  12.472  18.882  0.00  0.00    +0.000 C 
ENDROOT
BRANCH   2  14
ATOM     14  C   UNL     1      -1.892  13.783  21.597  0.00  0.00    +0.000 A 
ATOM     15  C   UNL     1      -1.188  14.952  21.272  0.00  0.00    +0.000 A 
ATOM     16  C   UNL     1      -0.580  15.713  22.275  0.00  0.00    +0.000 A 
ATOM     17  C   UNL     1      -0.675  15.314  23.608  0.00  0.00    +0.000 A 
ATOM     18  C   UNL     1      -1.388  14.162  23.940  0.00  0.00    +0.000 A 
ATOM     19  C   UNL     1      -1.996  13.400  22.940  0.00  0.00    +0.000 A 
ENDBRANCH   2  14
BRANCH   1  20
ATOM     20  O   UNL     1      -0.483  11.873  19.930  0.00  0.00    +0.000 OA
BRANCH  20  22
ATOM     21  O   UNL     1      -0.511  10.539  21.831  0.00  0.00    +0.000 OA
ATOM     22  C   UNL     1      -0.133  10.792  20.695  0.00  0.00    +0.000 C 
BRANCH  22  23
ATOM     23  C   UNL     1       0.742   9.873  19.902  0.00  0.00    +0.000 A 
ATOM     24  C   UNL     1       1.184  10.283  18.631  0.00  0.00    +0.000 A 
ATOM     25  C   UNL     1       2.004   9.447  17.862  0.00  0.00    +0.000 A 
ATOM     26  C   UNL     1       2.387   8.211  18.365  0.00  0.00    +0.000 A 
ATOM     27  F   UNL     1       3.155   7.402  17.622  0.00  0.00    +0.000 F 
ATOM     28  C   UNL     1       1.986   7.800  19.630  0.00  0.00    +0.000 A 
ATOM     29  C   UNL     1       1.167   8.631  20.401  0.00  0.00    +0.000 A 
ENDBRANCH  22  23
ENDBRANCH  20  22
ENDBRANCH   1  20
TORSDOF 4
ENDMDL
