MODEL 1
REMARK VINA RESULT:      -6.8      0.000      0.000
REMARK  Name = 
REMARK  10 active torsions:
REMARK  status: ('A' for Active; 'I' for Inactive)
REMARK    1  A    between atoms: C_1  and  N_2
REMARK    2  A    between atoms: N_5  and  C_6
REMARK    3  A    between atoms: N_13  and  C_14
REMARK    4  A    between atoms: C_14  and  C_15
REMARK    5  A    between atoms: C_15  and  N_16
REMARK    6  A    between atoms: N_16  and  C_17
REMARK    7  A    between atoms: C_17  and  C_18
REMARK    8  A    between atoms: C_18  and  O_19
REMARK    9  A    between atoms: C_21  and  O_22
REMARK   10  A    between atoms: C_25  and  O_26
REMARK                            x       y       z     vdW  Elec       q    Type
REMARK                         _______ _______ _______ _____ _____    ______ ____
ROOT
ATOM      1  C   UNL     1      -1.649  13.514  20.537  0.00  0.00    +0.000 A 
ATOM      2  C   UNL     1      -0.754  13.141  19.494  0.00  0.00    +0.000 A 
ATOM      3  C   UNL     1      -1.092  12.338  18.381  0.00  0.00    +0.000 A 
ATOM      4  C   UNL     1      -2.397  11.860  18.347  0.00  0.00    +0.000 A 
ATOM      5  C   UNL     1      -3.293  12.214  19.329  0.00  0.00    +0.000 A 
ATOM      6  C   UNL     1      -4.500  11.582  19.021  0.00  0.00    +0.000 A 
ATOM      7  N   UNL     1      -4.411  10.843  17.905  0.00  0.00    +0.000 NA
ATOM      8  N   UNL     1      -3.118  11.042  17.501  0.00  0.00    +0.000 N 
ATOM      9  C   UNL     1      -5.635  11.733  19.908  0.00  0.00    +0.000 A 
ATOM     10  C   UNL     1      -6.857  11.087  19.689  0.00  0.00    +0.000 A 
ATOM     11  C   UNL     1      -7.912  11.250  20.587  0.00  0.00    +0.000 A 
ATOM     12  C   UNL     1      -7.740  12.027  21.732  0.00  0.00    +0.000 A 
ATOM     13  C   UNL     1      -6.522  12.669  21.968  0.00  0.00    +0.000 A 
ATOM     14  C   UNL     1      -5.468  12.567  21.046  0.00  0.00    +0.000 A 
ATOM     15  C   UNL     1      -4.204  13.396  21.210  0.00  0.00    +0.000 C 
ATOM     16  O   UNL     1      -4.240  14.419  21.884  0.00  0.00    +0.000 OA
ATOM     17  C   UNL     1      -2.979  13.055  20.404  0.00  0.00    +0.000 A 
ENDROOT
BRANCH   1  22
ATOM     18  C   UNL     1      -0.441  16.702  24.996  0.00  0.00    +0.000 C 
ATOM     19  N   UNL     1      -0.210  15.689  23.970  0.00  0.00    +0.000 NA
ATOM     20  C   UNL     1      -0.303  16.294  22.621  0.00  0.00    +0.000 C 
ATOM     21  C   UNL     1      -0.110  15.255  21.495  0.00  0.00    +0.000 C 
ATOM     22  N   UNL     1      -1.108  14.178  21.634  0.00  0.00    +0.000 N 
ATOM     23  C   UNL     1      -1.029  13.520  22.954  0.00  0.00    +0.000 C 
ATOM     24  C   UNL     1      -1.187  14.582  24.075  0.00  0.00    +0.000 C 
ENDBRANCH   1  22
BRANCH  10  25
ATOM     25  O   UNL     1      -7.082  10.287  18.606  0.00  0.00    +0.000 OA
ATOM     26  H   UNL     1      -7.313   9.393  18.942  0.00  0.00    +0.000 HD
ENDBRANCH  10  25
BRANCH  13  27
ATOM     27  O   UNL     1      -6.366  13.361  23.135  0.00  0.00    +0.000 OA
ATOM     28  H   UNL     1      -7.131  13.220  23.714  0.00  0.00    +0.000 HD
ENDBRANCH  13  27
BRANCH   8  29
ATOM     29  C   UNL     1      -2.643  10.410  16.280  0.00  0.00    +0.000 C 
BRANCH  29  30
ATOM     30  C   UNL     1      -3.452  10.858  15.056  0.00  0.00    +0.000 C 
BRANCH  30  31
ATOM     31  N   UNL     1      -3.235   9.989  13.882  0.00  0.00    +0.000 NA
ATOM     32  H   UNL     1      -2.752   9.140  14.178  0.00  0.00    +0.000 HD
BRANCH  31  33
ATOM     33  C   UNL     1      -4.541   9.595  13.311  0.00  0.00    +0.000 C 
BRANCH  33  34
ATOM     34  C   UNL     1      -4.613   9.831  11.799  0.00  0.00    +0.000 C 
BRANCH  34  35
ATOM     35  O   UNL     1      -3.307   9.792  11.225  0.00  0.00    +0.000 OA
ATOM     36  H   UNL     1      -2.717   9.481  11.933  0.00  0.00    +0.000 HD
ENDBRANCH  34  35
ENDBRANCH  33  34
ENDBRANCH  31  33
ENDBRANCH  30  31
ENDBRANCH  29  30
ENDBRANCH   8  29
TORSDOF 9
ENDMDL
MODEL 2
REMARK VINA RESULT:      -6.4      3.304      6.892
REMARK  Name = 
REMARK  10 active torsions:
REMARK  status: ('A' for Active; 'I' for Inactive)
REMARK    1  A    between atoms: C_1  and  N_2
REMARK    2  A    between atoms: N_5  and  C_6
REMARK    3  A    between atoms: N_13  and  C_14
REMARK    4  A    between atoms: C_14  and  C_15
REMARK    5  A    between atoms: C_15  and  N_16
REMARK    6  A    between atoms: N_16  and  C_17
REMARK    7  A    between atoms: C_17  and  C_18
REMARK    8  A    between atoms: C_18  and  O_19
REMARK    9  A    between atoms: C_21  and  O_22
REMARK   10  A    between atoms: C_25  and  O_26
REMARK                            x       y       z     vdW  Elec       q    Type
REMARK                         _______ _______ _______ _____ _____    ______ ____
ROOT
ATOM      1  C   UNL     1      -0.560  10.839  20.723  0.00  0.00    +0.000 A 
ATOM      2  C   UNL     1      -0.326  11.236  22.071  0.00  0.00    +0.000 A 
ATOM      3  C   UNL     1      -1.215  12.002  22.858  0.00  0.00    +0.000 A 
ATOM      4  C   UNL     1      -2.385  12.415  22.232  0.00  0.00    +0.000 A 
ATOM      5  C   UNL     1      -2.652  12.036  20.937  0.00  0.00    +0.000 A 
ATOM      6  C   UNL     1      -3.882  12.603  20.595  0.00  0.00    +0.000 A 
ATOM      7  N   UNL     1      -4.400  13.324  21.600  0.00  0.00    +0.000 NA
ATOM      8  N   UNL     1      -3.473  13.181  22.598  0.00  0.00    +0.000 N 
ATOM      9  C   UNL     1      -4.413  12.413  19.261  0.00  0.00    +0.000 A 
ATOM     10  C   UNL     1      -5.612  12.995  18.835  0.00  0.00    +0.000 A 
ATOM     11  C   UNL     1      -6.068  12.797  17.531  0.00  0.00    +0.000 A 
ATOM     12  C   UNL     1      -5.308  12.051  16.632  0.00  0.00    +0.000 A 
ATOM     13  C   UNL     1      -4.103  11.473  17.041  0.00  0.00    +0.000 A 
ATOM     14  C   UNL     1      -3.658  11.610  18.366  0.00  0.00    +0.000 A 
ATOM     15  C   UNL     1      -2.440  10.846  18.862  0.00  0.00    +0.000 C 
ATOM     16  O   UNL     1      -2.082   9.835  18.269  0.00  0.00    +0.000 OA
ATOM     17  C   UNL     1      -1.801  11.231  20.169  0.00  0.00    +0.000 A 
ENDROOT
BRANCH   1  22
ATOM     18  C   UNL     1       2.873   7.830  17.459  0.00  0.00    +0.000 C 
ATOM     19  N   UNL     1       2.510   8.808  18.479  0.00  0.00    +0.000 NA
ATOM     20  C   UNL     1       1.753   8.155  19.572  0.00  0.00    +0.000 C 
ATOM     21  C   UNL     1       1.305   9.157  20.659  0.00  0.00    +0.000 C 
ATOM     22  N   UNL     1       0.489  10.222  20.048  0.00  0.00    +0.000 N 
ATOM     23  C   UNL     1       1.218  10.928  18.974  0.00  0.00    +0.000 C 
ATOM     24  C   UNL     1       1.694   9.904  17.909  0.00  0.00    +0.000 C 
ENDBRANCH   1  22
BRANCH  10  25
ATOM     25  O   UNL     1      -6.389  13.763  19.654  0.00  0.00    +0.000 OA
ATOM     26  H   UNL     1      -5.797  14.176  20.320  0.00  0.00    +0.000 HD
ENDBRANCH  10  25
BRANCH  13  27
ATOM     27  O   UNL     1      -3.350  10.811  16.114  0.00  0.00    +0.000 OA
ATOM     28  H   UNL     1      -3.814  10.016  15.810  0.00  0.00    +0.000 HD
ENDBRANCH  13  27
BRANCH   8  29
ATOM     29  C   UNL     1      -3.705  13.813  23.887  0.00  0.00    +0.000 C 
BRANCH  29  30
ATOM     30  C   UNL     1      -4.277  12.824  24.911  0.00  0.00    +0.000 C 
BRANCH  30  31
ATOM     31  N   UNL     1      -5.385  12.016  24.362  0.00  0.00    +0.000 NA
ATOM     32  H   UNL     1      -5.601  11.259  25.011  0.00  0.00    +0.000 HD
BRANCH  31  33
ATOM     33  C   UNL     1      -6.592  12.858  24.228  0.00  0.00    +0.000 C 
BRANCH  33  34
ATOM     34  C   UNL     1      -7.609  12.271  23.243  0.00  0.00    +0.000 C 
BRANCH  34  35
ATOM     35  O   UNL     1      -6.959  11.864  22.040  0.00  0.00    +0.000 OA
ATOM     36  H   UNL     1      -6.253  12.515  21.887  0.00  0.00    +0.000 HD
ENDBRANCH  34  35
ENDBRANCH  33  34
ENDBRANCH  31  33
ENDBRANCH  30  31
ENDBRANCH  29  30
ENDBRANCH   8  29
TORSDOF 9
ENDMDL
MODEL 3
REMARK VINA RESULT:      -6.3      4.062      5.947
REMARK  Name = 
REMARK  10 active torsions:
REMARK  status: ('A' for Active; 'I' for Inactive)
REMARK    1  A    between atoms: C_1  and  N_2
REMARK    2  A    between atoms: N_5  and  C_6
REMARK    3  A    between atoms: N_13  and  C_14
REMARK    4  A    between atoms: C_14  and  C_15
REMARK    5  A    between atoms: C_15  and  N_16
REMARK    6  A    between atoms: N_16  and  C_17
REMARK    7  A    between atoms: C_17  and  C_18
REMARK    8  A    between atoms: C_18  and  O_19
REMARK    9  A    between atoms: C_21  and  O_22
REMARK   10  A    between atoms: C_25  and  O_26
REMARK                            x       y       z     vdW  Elec       q    Type
REMARK                         _______ _______ _______ _____ _____    ______ ____
ROOT
ATOM      1  C   UNL     1      -2.898  12.597  22.367  0.00  0.00    +0.000 A 
ATOM      2  C   UNL     1      -1.833  12.186  23.219  0.00  0.00    +0.000 A 
ATOM      3  C   UNL     1      -0.737  11.387  22.821  0.00  0.00    +0.000 A 
ATOM      4  C   UNL     1      -0.744  10.953  21.500  0.00  0.00    +0.000 A 
ATOM      5  C   UNL     1      -1.748  11.345  20.646  0.00  0.00    +0.000 A 
ATOM      6  C   UNL     1      -1.479  10.752  19.410  0.00  0.00    +0.000 A 
ATOM      7  N   UNL     1      -0.368  10.002  19.442  0.00  0.00    +0.000 NA
ATOM      8  N   UNL     1       0.074  10.154  20.729  0.00  0.00    +0.000 N 
ATOM      9  C   UNL     1      -2.398  10.948  18.306  0.00  0.00    +0.000 A 
ATOM     10  C   UNL     1      -2.218  10.343  17.057  0.00  0.00    +0.000 A 
ATOM     11  C   UNL     1      -3.145  10.548  16.034  0.00  0.00    +0.000 A 
ATOM     12  C   UNL     1      -4.277  11.327  16.266  0.00  0.00    +0.000 A 
ATOM     13  C   UNL     1      -4.474  11.929  17.511  0.00  0.00    +0.000 A 
ATOM     14  C   UNL     1      -3.523  11.784  18.534  0.00  0.00    +0.000 A 
ATOM     15  C   UNL     1      -3.645  12.571  19.829  0.00  0.00    +0.000 C 
ATOM     16  O   UNL     1      -4.310  13.599  19.847  0.00  0.00    +0.000 OA
ATOM     17  C   UNL     1      -2.807  12.183  21.018  0.00  0.00    +0.000 A 
ENDROOT
BRANCH   1  22
ATOM     18  C   UNL     1      -7.752  15.012  23.819  0.00  0.00    +0.000 C 
ATOM     19  N   UNL     1      -6.375  14.559  23.994  0.00  0.00    +0.000 NA
ATOM     20  C   UNL     1      -5.493  15.197  22.989  0.00  0.00    +0.000 C 
ATOM     21  C   UNL     1      -4.029  14.718  23.101  0.00  0.00    +0.000 C 
ATOM     22  N   UNL     1      -3.973  13.251  22.961  0.00  0.00    +0.000 N 
ATOM     23  C   UNL     1      -4.812  12.568  23.968  0.00  0.00    +0.000 C 
ATOM     24  C   UNL     1      -6.271  13.088  23.869  0.00  0.00    +0.000 C 
ENDBRANCH   1  22
BRANCH  10  25
ATOM     25  O   UNL     1      -1.149   9.543  16.775  0.00  0.00    +0.000 OA
ATOM     26  H   UNL     1      -1.181   8.778  17.391  0.00  0.00    +0.000 HD
ENDBRANCH  10  25
BRANCH  13  27
ATOM     27  O   UNL     1      -5.630  12.624  17.723  0.00  0.00    +0.000 OA
ATOM     28  H   UNL     1      -5.433  13.548  17.941  0.00  0.00    +0.000 HD
ENDBRANCH  13  27
BRANCH   8  29
ATOM     29  C   UNL     1       1.303   9.497  21.147  0.00  0.00    +0.000 C 
BRANCH  29  30
ATOM     30  C   UNL     1       1.600   8.255  20.298  0.00  0.00    +0.000 C 
BRANCH  30  31
ATOM     31  N   UNL     1       1.764   7.034  21.114  0.00  0.00    +0.000 NA
ATOM     32  H   UNL     1       0.864   6.781  21.522  0.00  0.00    +0.000 HD
BRANCH  31  33
ATOM     33  C   UNL     1       2.204   5.918  20.251  0.00  0.00    +0.000 C 
BRANCH  33  34
ATOM     34  C   UNL     1       1.901   4.548  20.867  0.00  0.00    +0.000 C 
BRANCH  34  35
ATOM     35  O   UNL     1       0.622   4.081  20.441  0.00  0.00    +0.000 OA
ATOM     36  H   UNL     1       0.405   4.597  19.645  0.00  0.00    +0.000 HD
ENDBRANCH  34  35
ENDBRANCH  33  34
ENDBRANCH  31  33
ENDBRANCH  30  31
ENDBRANCH  29  30
ENDBRANCH   8  29
TORSDOF 9
ENDMDL
MODEL 4
REMARK VINA RESULT:      -6.3      2.924      8.731
REMARK  Name = 
REMARK  10 active torsions:
REMARK  status: ('A' for Active; 'I' for Inactive)
REMARK    1  A    between atoms: C_1  and  N_2
REMARK    2  A    between atoms: N_5  and  C_6
REMARK    3  A    between atoms: N_13  and  C_14
REMARK    4  A    between atoms: C_14  and  C_15
REMARK    5  A    between atoms: C_15  and  N_16
REMARK    6  A    between atoms: N_16  and  C_17
REMARK    7  A    between atoms: C_17  and  C_18
REMARK    8  A    between atoms: C_18  and  O_19
REMARK    9  A    between atoms: C_21  and  O_22
REMARK   10  A    between atoms: C_25  and  O_26
REMARK                            x       y       z     vdW  Elec       q    Type
REMARK                         _______ _______ _______ _____ _____    ______ ____
ROOT
ATOM      1  C   UNL     1      -2.703  12.383  19.636  0.00  0.00    +0.000 A 
ATOM      2  C   UNL     1      -3.670  12.466  20.679  0.00  0.00    +0.000 A 
ATOM      3  C   UNL     1      -3.452  13.057  21.943  0.00  0.00    +0.000 A 
ATOM      4  C   UNL     1      -2.176  13.559  22.172  0.00  0.00    +0.000 A 
ATOM      5  C   UNL     1      -1.223  13.511  21.182  0.00  0.00    +0.000 A 
ATOM      6  C   UNL     1      -0.063  14.082  21.712  0.00  0.00    +0.000 A 
ATOM      7  N   UNL     1      -0.231  14.477  22.982  0.00  0.00    +0.000 NA
ATOM      8  N   UNL     1      -1.538  14.161  23.237  0.00  0.00    +0.000 N 
ATOM      9  C   UNL     1       1.141  14.134  20.908  0.00  0.00    +0.000 A 
ATOM     10  C   UNL     1       2.352  14.644  21.391  0.00  0.00    +0.000 A 
ATOM     11  C   UNL     1       3.487  14.652  20.581  0.00  0.00    +0.000 A 
ATOM     12  C   UNL     1       3.432  14.114  19.297  0.00  0.00    +0.000 A 
ATOM     13  C   UNL     1       2.232  13.593  18.804  0.00  0.00    +0.000 A 
ATOM     14  C   UNL     1       1.063  13.631  19.582  0.00  0.00    +0.000 A 
ATOM     15  C   UNL     1      -0.278  13.223  18.993  0.00  0.00    +0.000 C 
ATOM     16  O   UNL     1      -0.432  13.243  17.778  0.00  0.00    +0.000 OA
ATOM     17  C   UNL     1      -1.448  12.976  19.908  0.00  0.00    +0.000 A 
ENDROOT
BRANCH   1  22
ATOM     18  C   UNL     1      -3.498  10.117  14.564  0.00  0.00    +0.000 C 
ATOM     19  N   UNL     1      -3.589  10.215  16.017  0.00  0.00    +0.000 NA
ATOM     20  C   UNL     1      -4.307  11.452  16.405  0.00  0.00    +0.000 C 
ATOM     21  C   UNL     1      -4.393  11.627  17.937  0.00  0.00    +0.000 C 
ATOM     22  N   UNL     1      -3.036  11.629  18.515  0.00  0.00    +0.000 N 
ATOM     23  C   UNL     1      -2.293  10.395  18.184  0.00  0.00    +0.000 C 
ATOM     24  C   UNL     1      -2.248  10.213  16.644  0.00  0.00    +0.000 C 
ENDBRANCH   1  22
BRANCH  10  25
ATOM     25  O   UNL     1       2.483  15.156  22.650  0.00  0.00    +0.000 OA
ATOM     26  H   UNL     1       3.431  15.375  22.782  0.00  0.00    +0.000 HD
ENDBRANCH  10  25
BRANCH  13  27
ATOM     27  O   UNL     1       2.234  13.008  17.571  0.00  0.00    +0.000 OA
ATOM     28  H   UNL     1       2.458  12.068  17.644  0.00  0.00    +0.000 HD
ENDBRANCH  13  27
BRANCH   8  29
ATOM     29  C   UNL     1      -2.110  14.474  24.538  0.00  0.00    +0.000 C 
BRANCH  29  30
ATOM     30  C   UNL     1      -3.205  15.543  24.435  0.00  0.00    +0.000 C 
BRANCH  30  31
ATOM     31  N   UNL     1      -4.557  14.998  24.680  0.00  0.00    +0.000 NA
ATOM     32  H   UNL     1      -4.773  15.072  25.674  0.00  0.00    +0.000 HD
BRANCH  31  33
ATOM     33  C   UNL     1      -5.553  15.797  23.936  0.00  0.00    +0.000 C 
BRANCH  33  34
ATOM     34  C   UNL     1      -6.767  14.965  23.508  0.00  0.00    +0.000 C 
BRANCH  34  35
ATOM     35  O   UNL     1      -7.230  14.163  24.593  0.00  0.00    +0.000 OA
ATOM     36  H   UNL     1      -6.574  13.451  24.694  0.00  0.00    +0.000 HD
ENDBRANCH  34  35
ENDBRANCH  33  34
ENDBRANCH  31  33
ENDBRANCH  30  31
ENDBRANCH  29  30
ENDBRANCH   8  29
TORSDOF 9
ENDMDL
MODEL 5
REMARK VINA RESULT:      -6.3      3.014      6.332
REMARK  Name = 
REMARK  10 active torsions:
REMARK  status: ('A' for Active; 'I' for Inactive)
REMARK    1  A    between atoms: C_1  and  N_2
REMARK    2  A    between atoms: N_5  and  C_6
REMARK    3  A    between atoms: N_13  and  C_14
REMARK    4  A    between atoms: C_14  and  C_15
REMARK    5  A    between atoms: C_15  and  N_16
REMARK    6  A    between atoms: N_16  and  C_17
REMARK    7  A    between atoms: C_17  and  C_18
REMARK    8  A    between atoms: C_18  and  O_19
REMARK    9  A    between atoms: C_21  and  O_22
REMARK   10  A    between atoms: C_25  and  O_26
REMARK                            x       y       z     vdW  Elec       q    Type
REMARK                         _______ _______ _______ _____ _____    ______ ____
ROOT
ATOM      1  C   UNL     1      -0.126  13.935  20.735  0.00  0.00    +0.000 A 
ATOM      2  C   UNL     1      -0.249  14.476  22.047  0.00  0.00    +0.000 A 
ATOM      3  C   UNL     1      -1.414  14.416  22.844  0.00  0.00    +0.000 A 
ATOM      4  C   UNL     1      -2.521  13.807  22.265  0.00  0.00    +0.000 A 
ATOM      5  C   UNL     1      -2.433  13.258  21.007  0.00  0.00    +0.000 A 
ATOM      6  C   UNL     1      -3.692  12.731  20.708  0.00  0.00    +0.000 A 
ATOM      7  N   UNL     1      -4.569  12.926  21.704  0.00  0.00    +0.000 NA
ATOM      8  N   UNL     1      -3.824  13.572  22.654  0.00  0.00    +0.000 N 
ATOM      9  C   UNL     1      -3.924  12.119  19.415  0.00  0.00    +0.000 A 
ATOM     10  C   UNL     1      -5.172  11.618  19.029  0.00  0.00    +0.000 A 
ATOM     11  C   UNL     1      -5.346  11.056  17.764  0.00  0.00    +0.000 A 
ATOM     12  C   UNL     1      -4.285  11.028  16.862  0.00  0.00    +0.000 A 
ATOM     13  C   UNL     1      -3.035  11.534  17.230  0.00  0.00    +0.000 A 
ATOM     14  C   UNL     1      -2.824  12.048  18.520  0.00  0.00    +0.000 A 
ATOM     15  C   UNL     1      -1.430  12.441  18.983  0.00  0.00    +0.000 C 
ATOM     16  O   UNL     1      -0.452  11.963  18.421  0.00  0.00    +0.000 OA
ATOM     17  C   UNL     1      -1.266  13.265  20.233  0.00  0.00    +0.000 A 
ENDROOT
BRANCH   1  22
ATOM     18  C   UNL     1       4.769  15.801  18.721  0.00  0.00    +0.000 C 
ATOM     19  N   UNL     1       3.561  14.983  18.762  0.00  0.00    +0.000 NA
ATOM     20  C   UNL     1       2.356  15.843  18.715  0.00  0.00    +0.000 C 
ATOM     21  C   UNL     1       1.046  15.029  18.800  0.00  0.00    +0.000 C 
ATOM     22  N   UNL     1       1.041  14.221  20.034  0.00  0.00    +0.000 N 
ATOM     23  C   UNL     1       2.209  13.318  20.107  0.00  0.00    +0.000 C 
ATOM     24  C   UNL     1       3.515  14.147  19.982  0.00  0.00    +0.000 C 
ENDBRANCH   1  22
BRANCH  10  25
ATOM     25  O   UNL     1      -6.261  11.644  19.853  0.00  0.00    +0.000 OA
ATOM     26  H   UNL     1      -7.057  11.502  19.294  0.00  0.00    +0.000 HD
ENDBRANCH  10  25
BRANCH  13  27
ATOM     27  O   UNL     1      -2.040  11.556  16.296  0.00  0.00    +0.000 OA
ATOM     28  H   UNL     1      -1.542  10.725  16.314  0.00  0.00    +0.000 HD
ENDBRANCH  13  27
BRANCH   8  29
ATOM     29  C   UNL     1      -4.438  13.933  23.922  0.00  0.00    +0.000 C 
BRANCH  29  30
ATOM     30  C   UNL     1      -5.540  14.984  23.741  0.00  0.00    +0.000 C 
BRANCH  30  31
ATOM     31  N   UNL     1      -6.699  14.469  22.984  0.00  0.00    +0.000 NA
ATOM     32  H   UNL     1      -6.379  13.757  22.326  0.00  0.00    +0.000 HD
BRANCH  31  33
ATOM     33  C   UNL     1      -7.654  13.833  23.915  0.00  0.00    +0.000 C 
BRANCH  33  34
ATOM     34  C   UNL     1      -7.656  12.305  23.798  0.00  0.00    +0.000 C 
BRANCH  34  35
ATOM     35  O   UNL     1      -7.169  11.903  22.519  0.00  0.00    +0.000 OA
ATOM     36  H   UNL     1      -7.959  11.744  21.973  0.00  0.00    +0.000 HD
ENDBRANCH  34  35
ENDBRANCH  33  34
ENDBRANCH  31  33
ENDBRANCH  30  31
ENDBRANCH  29  30
ENDBRANCH   8  29
TORSDOF 9
ENDMDL
MODEL 6
REMARK VINA RESULT:      -6.3      2.652      4.890
REMARK  Name = 
REMARK  10 active torsions:
REMARK  status: ('A' for Active; 'I' for Inactive)
REMARK    1  A    between atoms: C_1  and  N_2
REMARK    2  A    between atoms: N_5  and  C_6
REMARK    3  A    between atoms: N_13  and  C_14
REMARK    4  A    between atoms: C_14  and  C_15
REMARK    5  A    between atoms: C_15  and  N_16
REMARK    6  A    between atoms: N_16  and  C_17
REMARK    7  A    between atoms: C_17  and  C_18
REMARK    8  A    between atoms: C_18  and  O_19
REMARK    9  A    between atoms: C_21  and  O_22
REMARK   10  A    between atoms: C_25  and  O_26
REMARK                            x       y       z     vdW  Elec       q    Type
REMARK                         _______ _______ _______ _____ _____    ______ ____
ROOT
ATOM      1  C   UNL     1      -5.111  12.670  19.726  0.00  0.00    +0.000 A 
ATOM      2  C   UNL     1      -5.922  12.149  18.678  0.00  0.00    +0.000 A 
ATOM      3  C   UNL     1      -5.453  11.358  17.605  0.00  0.00    +0.000 A 
ATOM      4  C   UNL     1      -4.085  11.115  17.576  0.00  0.00    +0.000 A 
ATOM      5  C   UNL     1      -3.274  11.589  18.582  0.00  0.00    +0.000 A 
ATOM      6  C   UNL     1      -1.972  11.189  18.272  0.00  0.00    +0.000 A 
ATOM      7  N   UNL     1      -1.917  10.498  17.124  0.00  0.00    +0.000 NA
ATOM      8  N   UNL     1      -3.226  10.452  16.725  0.00  0.00    +0.000 N 
ATOM      9  C   UNL     1      -0.877  11.583  19.135  0.00  0.00    +0.000 A 
ATOM     10  C   UNL     1       0.457  11.262  18.858  0.00  0.00    +0.000 A 
ATOM     11  C   UNL     1       1.476  11.684  19.712  0.00  0.00    +0.000 A 
ATOM     12  C   UNL     1       1.173  12.465  20.826  0.00  0.00    +0.000 A 
ATOM     13  C   UNL     1      -0.154  12.801  21.110  0.00  0.00    +0.000 A 
ATOM     14  C   UNL     1      -1.199  12.335  20.296  0.00  0.00    +0.000 A 
ATOM     15  C   UNL     1      -2.651  12.553  20.691  0.00  0.00    +0.000 C 
ATOM     16  O   UNL     1      -2.929  12.766  21.865  0.00  0.00    +0.000 OA
ATOM     17  C   UNL     1      -3.741  12.326  19.677  0.00  0.00    +0.000 A 
ENDROOT
BRANCH   1  22
ATOM     18  C   UNL     1      -6.513  16.367  23.709  0.00  0.00    +0.000 C 
ATOM     19  N   UNL     1      -6.726  15.476  22.574  0.00  0.00    +0.000 NA
ATOM     20  C   UNL     1      -6.365  14.086  22.936  0.00  0.00    +0.000 C 
ATOM     21  C   UNL     1      -6.530  13.106  21.754  0.00  0.00    +0.000 C 
ATOM     22  N   UNL     1      -5.711  13.558  20.614  0.00  0.00    +0.000 N 
ATOM     23  C   UNL     1      -6.061  14.930  20.192  0.00  0.00    +0.000 C 
ATOM     24  C   UNL     1      -5.927  15.896  21.400  0.00  0.00    +0.000 C 
ENDBRANCH   1  22
BRANCH  10  25
ATOM     25  O   UNL     1       0.825  10.529  17.766  0.00  0.00    +0.000 OA
ATOM     26  H   UNL     1       1.464   9.848  18.070  0.00  0.00    +0.000 HD
ENDBRANCH  10  25
BRANCH  13  27
ATOM     27  O   UNL     1      -0.405  13.627  22.167  0.00  0.00    +0.000 OA
ATOM     28  H   UNL     1       0.396  14.119  22.407  0.00  0.00    +0.000 HD
ENDBRANCH  13  27
BRANCH   8  29
ATOM     29  C   UNL     1      -3.578   9.743  15.504  0.00  0.00    +0.000 C 
BRANCH  29  30
ATOM     30  C   UNL     1      -2.942  10.389  14.267  0.00  0.00    +0.000 C 
BRANCH  30  31
ATOM     31  N   UNL     1      -3.389   9.764  13.005  0.00  0.00    +0.000 NA
ATOM     32  H   UNL     1      -3.112   8.782  13.001  0.00  0.00    +0.000 HD
BRANCH  31  33
ATOM     33  C   UNL     1      -4.864   9.822  12.921  0.00  0.00    +0.000 C 
BRANCH  33  34
ATOM     34  C   UNL     1      -5.386   9.421  11.537  0.00  0.00    +0.000 C 
BRANCH  34  35
ATOM     35  O   UNL     1      -4.299   9.157  10.651  0.00  0.00    +0.000 OA
ATOM     36  H   UNL     1      -3.590   8.787  11.206  0.00  0.00    +0.000 HD
ENDBRANCH  34  35
ENDBRANCH  33  34
ENDBRANCH  31  33
ENDBRANCH  30  31
ENDBRANCH  29  30
ENDBRANCH   8  29
TORSDOF 9
ENDMDL
MODEL 7
REMARK VINA RESULT:      -6.2      2.011      2.823
REMARK  Name = 
REMARK  10 active torsions:
REMARK  status: ('A' for Active; 'I' for Inactive)
REMARK    1  A    between atoms: C_1  and  N_2
REMARK    2  A    between atoms: N_5  and  C_6
REMARK    3  A    between atoms: N_13  and  C_14
REMARK    4  A    between atoms: C_14  and  C_15
REMARK    5  A    between atoms: C_15  and  N_16
REMARK    6  A    between atoms: N_16  and  C_17
REMARK    7  A    between atoms: C_17  and  C_18
REMARK    8  A    between atoms: C_18  and  O_19
REMARK    9  A    between atoms: C_21  and  O_22
REMARK   10  A    between atoms: C_25  and  O_26
REMARK                            x       y       z     vdW  Elec       q    Type
REMARK                         _______ _______ _______ _____ _____    ______ ____
ROOT
ATOM      1  C   UNL     1      -2.094  15.038  22.623  0.00  0.00    +0.000 A 
ATOM      2  C   UNL     1      -0.951  14.887  21.786  0.00  0.00    +0.000 A 
ATOM      3  C   UNL     1      -0.899  14.093  20.618  0.00  0.00    +0.000 A 
ATOM      4  C   UNL     1      -2.055  13.388  20.306  0.00  0.00    +0.000 A 
ATOM      5  C   UNL     1      -3.183  13.523  21.082  0.00  0.00    +0.000 A 
ATOM      6  C   UNL     1      -4.160  12.699  20.520  0.00  0.00    +0.000 A 
ATOM      7  N   UNL     1      -3.708  12.046  19.439  0.00  0.00    +0.000 NA
ATOM      8  N   UNL     1      -2.421  12.497  19.318  0.00  0.00    +0.000 N 
ATOM      9  C   UNL     1      -5.460  12.596  21.152  0.00  0.00    +0.000 A 
ATOM     10  C   UNL     1      -6.468  11.750  20.673  0.00  0.00    +0.000 A 
ATOM     11  C   UNL     1      -7.695  11.673  21.332  0.00  0.00    +0.000 A 
ATOM     12  C   UNL     1      -7.909  12.409  22.496  0.00  0.00    +0.000 A 
ATOM     13  C   UNL     1      -6.908  13.250  22.990  0.00  0.00    +0.000 A 
ATOM     14  C   UNL     1      -5.688  13.387  22.308  0.00  0.00    +0.000 A 
ATOM     15  C   UNL     1      -4.664  14.423  22.744  0.00  0.00    +0.000 C 
ATOM     16  O   UNL     1      -5.029  15.387  23.407  0.00  0.00    +0.000 OA
ATOM     17  C   UNL     1      -3.259  14.352  22.209  0.00  0.00    +0.000 A 
ENDROOT
BRANCH   1  22
ATOM     18  C   UNL     1      -0.336  17.748  27.213  0.00  0.00    +0.000 C 
ATOM     19  N   UNL     1      -1.305  17.196  26.271  0.00  0.00    +0.000 NA
ATOM     20  C   UNL     1      -1.131  15.729  26.155  0.00  0.00    +0.000 C 
ATOM     21  C   UNL     1      -2.105  15.099  25.135  0.00  0.00    +0.000 C 
ATOM     22  N   UNL     1      -1.924  15.733  23.816  0.00  0.00    +0.000 N 
ATOM     23  C   UNL     1      -2.123  17.197  23.875  0.00  0.00    +0.000 C 
ATOM     24  C   UNL     1      -1.165  17.810  24.931  0.00  0.00    +0.000 C 
ENDBRANCH   1  22
BRANCH  10  25
ATOM     25  O   UNL     1      -6.312  10.979  19.558  0.00  0.00    +0.000 OA
ATOM     26  H   UNL     1      -7.059  10.341  19.533  0.00  0.00    +0.000 HD
ENDBRANCH  10  25
BRANCH  13  27
ATOM     27  O   UNL     1      -7.127  13.898  24.172  0.00  0.00    +0.000 OA
ATOM     28  H   UNL     1      -8.032  13.739  24.481  0.00  0.00    +0.000 HD
ENDBRANCH  13  27
BRANCH   8  29
ATOM     29  C   UNL     1      -1.597  12.024  18.217  0.00  0.00    +0.000 C 
BRANCH  29  30
ATOM     30  C   UNL     1      -1.530  10.492  18.173  0.00  0.00    +0.000 C 
BRANCH  30  31
ATOM     31  N   UNL     1      -2.797   9.881  17.722  0.00  0.00    +0.000 NA
ATOM     32  H   UNL     1      -3.580  10.392  18.129  0.00  0.00    +0.000 HD
BRANCH  31  33
ATOM     33  C   UNL     1      -2.900   9.986  16.251  0.00  0.00    +0.000 C 
BRANCH  33  34
ATOM     34  C   UNL     1      -4.016  10.940  15.811  0.00  0.00    +0.000 C 
BRANCH  34  35
ATOM     35  O   UNL     1      -5.007  11.052  16.830  0.00  0.00    +0.000 OA
ATOM     36  H   UNL     1      -5.326  10.147  16.990  0.00  0.00    +0.000 HD
ENDBRANCH  34  35
ENDBRANCH  33  34
ENDBRANCH  31  33
ENDBRANCH  30  31
ENDBRANCH  29  30
ENDBRANCH   8  29
TORSDOF 9
ENDMDL
MODEL 8
REMARK VINA RESULT:      -6.2      3.831      5.113
REMARK  Name = 
REMARK  10 active torsions:
REMARK  status: ('A' for Active; 'I' for Inactive)
REMARK    1  A    between atoms: C_1  and  N_2
REMARK    2  A    between atoms: N_5  and  C_6
REMARK    3  A    between atoms: N_13  and  C_14
REMARK    4  A    between atoms: C_14  and  C_15
REMARK    5  A    between atoms: C_15  and  N_16
REMARK    6  A    between atoms: N_16  and  C_17
REMARK    7  A    between atoms: C_17  and  C_18
REMARK    8  A    between atoms: C_18  and  O_19
REMARK    9  A    between atoms: C_21  and  O_22
REMARK   10  A    between atoms: C_25  and  O_26
REMARK                            x       y       z     vdW  Elec       q    Type
REMARK                         _______ _______ _______ _____ _____    ______ ____
ROOT
ATOM      1  C   UNL     1      -0.994  12.058  21.555  0.00  0.00    +0.000 A 
ATOM      2  C   UNL     1       0.267  11.467  21.854  0.00  0.00    +0.000 A 
ATOM      3  C   UNL     1       0.985  10.605  20.994  0.00  0.00    +0.000 A 
ATOM      4  C   UNL     1       0.372  10.299  19.784  0.00  0.00    +0.000 A 
ATOM      5  C   UNL     1      -0.838  10.865  19.456  0.00  0.00    +0.000 A 
ATOM      6  C   UNL     1      -1.187  10.367  18.198  0.00  0.00    +0.000 A 
ATOM      7  N   UNL     1      -0.270   9.512  17.722  0.00  0.00    +0.000 NA
ATOM      8  N   UNL     1       0.684   9.500  18.704  0.00  0.00    +0.000 N 
ATOM      9  C   UNL     1      -2.449  10.754  17.600  0.00  0.00    +0.000 A 
ATOM     10  C   UNL     1      -2.886  10.253  16.368  0.00  0.00    +0.000 A 
ATOM     11  C   UNL     1      -4.120  10.643  15.846  0.00  0.00    +0.000 A 
ATOM     12  C   UNL     1      -4.943  11.504  16.571  0.00  0.00    +0.000 A 
ATOM     13  C   UNL     1      -4.523  12.004  17.806  0.00  0.00    +0.000 A 
ATOM     14  C   UNL     1      -3.259  11.671  18.320  0.00  0.00    +0.000 A 
ATOM     15  C   UNL     1      -2.727  12.342  19.577  0.00  0.00    +0.000 C 
ATOM     16  O   UNL     1      -3.187  13.424  19.921  0.00  0.00    +0.000 OA
ATOM     17  C   UNL     1      -1.527  11.764  20.279  0.00  0.00    +0.000 A 
ENDROOT
BRANCH   1  22
ATOM     18  C   UNL     1      -4.052  15.409  24.858  0.00  0.00    +0.000 C 
ATOM     19  N   UNL     1      -3.107  14.344  24.536  0.00  0.00    +0.000 NA
ATOM     20  C   UNL     1      -1.958  14.889  23.776  0.00  0.00    +0.000 C 
ATOM     21  C   UNL     1      -0.947  13.794  23.371  0.00  0.00    +0.000 C 
ATOM     22  N   UNL     1      -1.630  12.756  22.577  0.00  0.00    +0.000 N 
ATOM     23  C   UNL     1      -2.764  12.156  23.311  0.00  0.00    +0.000 C 
ATOM     24  C   UNL     1      -3.751  13.273  23.744  0.00  0.00    +0.000 C 
ENDBRANCH   1  22
BRANCH  10  25
ATOM     25  O   UNL     1      -2.144   9.382  15.623  0.00  0.00    +0.000 OA
ATOM     26  H   UNL     1      -1.576   9.915  15.025  0.00  0.00    +0.000 HD
ENDBRANCH  10  25
BRANCH  13  27
ATOM     27  O   UNL     1      -5.386  12.785  18.520  0.00  0.00    +0.000 OA
ATOM     28  H   UNL     1      -5.104  13.712  18.489  0.00  0.00    +0.000 HD
ENDBRANCH  13  27
BRANCH   8  29
ATOM     29  C   UNL     1       1.880   8.689  18.531  0.00  0.00    +0.000 C 
BRANCH  29  30
ATOM     30  C   UNL     1       2.020   7.639  19.640  0.00  0.00    +0.000 C 
BRANCH  30  31
ATOM     31  N   UNL     1       2.989   6.577  19.298  0.00  0.00    +0.000 NA
ATOM     32  H   UNL     1       3.026   5.900  20.060  0.00  0.00    +0.000 HD
BRANCH  31  33
ATOM     33  C   UNL     1       2.536   5.869  18.082  0.00  0.00    +0.000 C 
BRANCH  33  34
ATOM     34  C   UNL     1       1.946   4.490  18.394  0.00  0.00    +0.000 C 
BRANCH  34  35
ATOM     35  O   UNL     1       1.175   4.015  17.292  0.00  0.00    +0.000 OA
ATOM     36  H   UNL     1       1.807   3.577  16.696  0.00  0.00    +0.000 HD
ENDBRANCH  34  35
ENDBRANCH  33  34
ENDBRANCH  31  33
ENDBRANCH  30  31
ENDBRANCH  29  30
ENDBRANCH   8  29
TORSDOF 9
ENDMDL
MODEL 9
REMARK VINA RESULT:      -6.2      3.351      6.100
REMARK  Name = 
REMARK  10 active torsions:
REMARK  status: ('A' for Active; 'I' for Inactive)
REMARK    1  A    between atoms: C_1  and  N_2
REMARK    2  A    between atoms: N_5  and  C_6
REMARK    3  A    between atoms: N_13  and  C_14
REMARK    4  A    between atoms: C_14  and  C_15
REMARK    5  A    between atoms: C_15  and  N_16
REMARK    6  A    between atoms: N_16  and  C_17
REMARK    7  A    between atoms: C_17  and  C_18
REMARK    8  A    between atoms: C_18  and  O_19
REMARK    9  A    between atoms: C_21  and  O_22
REMARK   10  A    between atoms: C_25  and  O_26
REMARK                            x       y       z     vdW  Elec       q    Type
REMARK                         _______ _______ _______ _____ _____    ______ ____
ROOT
ATOM      1  C   UNL     1      -1.168  10.439  18.753  0.00  0.00    +0.000 A 
ATOM      2  C   UNL     1      -2.047   9.959  17.740  0.00  0.00    +0.000 A 
ATOM      3  C   UNL     1      -3.358  10.432  17.512  0.00  0.00    +0.000 A 
ATOM      4  C   UNL     1      -3.812  11.419  18.380  0.00  0.00    +0.000 A 
ATOM      5  C   UNL     1      -2.984  11.918  19.358  0.00  0.00    +0.000 A 
ATOM      6  C   UNL     1      -3.719  12.879  20.056  0.00  0.00    +0.000 A 
ATOM      7  N   UNL     1      -4.966  13.006  19.577  0.00  0.00    +0.000 NA
ATOM      8  N   UNL     1      -4.994  12.113  18.540  0.00  0.00    +0.000 N 
ATOM      9  C   UNL     1      -3.120  13.557  21.188  0.00  0.00    +0.000 A 
ATOM     10  C   UNL     1      -3.815  14.492  21.964  0.00  0.00    +0.000 A 
ATOM     11  C   UNL     1      -3.196  15.101  23.056  0.00  0.00    +0.000 A 
ATOM     12  C   UNL     1      -1.893  14.749  23.405  0.00  0.00    +0.000 A 
ATOM     13  C   UNL     1      -1.191  13.810  22.645  0.00  0.00    +0.000 A 
ATOM     14  C   UNL     1      -1.775  13.231  21.506  0.00  0.00    +0.000 A 
ATOM     15  C   UNL     1      -0.961  12.341  20.581  0.00  0.00    +0.000 C 
ATOM     16  O   UNL     1       0.261  12.432  20.579  0.00  0.00    +0.000 OA
ATOM     17  C   UNL     1      -1.665  11.493  19.555  0.00  0.00    +0.000 A 
ENDROOT
BRANCH   1  22
ATOM     18  C   UNL     1       3.098   6.810  19.111  0.00  0.00    +0.000 C 
ATOM     19  N   UNL     1       2.425   8.101  19.212  0.00  0.00    +0.000 NA
ATOM     20  C   UNL     1       1.288   8.015  20.158  0.00  0.00    +0.000 C 
ATOM     21  C   UNL     1       0.512   9.346  20.269  0.00  0.00    +0.000 C 
ATOM     22  N   UNL     1       0.029   9.753  18.937  0.00  0.00    +0.000 N 
ATOM     23  C   UNL     1       1.135   9.887  17.966  0.00  0.00    +0.000 C 
ATOM     24  C   UNL     1       1.928   8.555  17.894  0.00  0.00    +0.000 C 
ENDBRANCH   1  22
BRANCH  10  25
ATOM     25  O   UNL     1      -5.103  14.857  21.696  0.00  0.00    +0.000 OA
ATOM     26  H   UNL     1      -5.374  15.505  22.382  0.00  0.00    +0.000 HD
ENDBRANCH  10  25
BRANCH  13  27
ATOM     27  O   UNL     1       0.055  13.437  23.060  0.00  0.00    +0.000 OA
ATOM     28  H   UNL     1      -0.008  12.851  23.830  0.00  0.00    +0.000 HD
ENDBRANCH  13  27
BRANCH   8  29
ATOM     29  C   UNL     1      -6.201  11.982  17.740  0.00  0.00    +0.000 C 
BRANCH  29  30
ATOM     30  C   UNL     1      -7.466  12.033  18.606  0.00  0.00    +0.000 C 
BRANCH  30  31
ATOM     31  N   UNL     1      -7.432  11.064  19.720  0.00  0.00    +0.000 NA
ATOM     32  H   UNL     1      -8.368  10.975  20.116  0.00  0.00    +0.000 HD
BRANCH  31  33
ATOM     33  C   UNL     1      -7.026   9.738  19.209  0.00  0.00    +0.000 C 
BRANCH  33  34
ATOM     34  C   UNL     1      -7.379   8.604  20.178  0.00  0.00    +0.000 C 
BRANCH  34  35
ATOM     35  O   UNL     1      -7.663   9.127  21.474  0.00  0.00    +0.000 OA
ATOM     36  H   UNL     1      -6.798   9.275  21.895  0.00  0.00    +0.000 HD
ENDBRANCH  34  35
ENDBRANCH  33  34
ENDBRANCH  31  33
ENDBRANCH  30  31
ENDBRANCH  29  30
ENDBRANCH   8  29
TORSDOF 9
ENDMDL
