MODEL 1
REMARK VINA RESULT:      -7.9      0.000      0.000
REMARK  Name = 
REMARK  2 active torsions:
REMARK  status: ('A' for Active; 'I' for Inactive)
REMARK    1  A    between atoms: N_3  and  C_4
REMARK    2  A    between atoms: C_16  and  N_17
REMARK                            x       y       z     vdW  Elec       q    Type
REMARK                         _______ _______ _______ _____ _____    ______ ____
ROOT
ATOM      1  O   UNL     1       2.070   9.438  17.623  0.00  0.00    +0.000 OA
ATOM      2  C   UNL     1       2.311   8.403  18.240  0.00  0.00    +0.000 C 
ATOM      3  N   UNL     1       1.913   8.117  19.517  0.00  0.00    +0.000 N 
ATOM      4  N   UNL     1       3.087   7.457  17.623  0.00  0.00    +0.000 N 
ATOM      5  C   UNL     1       3.415   6.172  18.058  0.00  0.00    +0.000 A 
ATOM      6  C   UNL     1       4.217   5.384  17.237  0.00  0.00    +0.000 A 
ATOM      7  C   UNL     1       4.500   4.071  17.624  0.00  0.00    +0.000 A 
ATOM      8  C   UNL     1       3.962   3.590  18.818  0.00  0.00    +0.000 A 
ATOM      9  C   UNL     1       3.191   4.439  19.590  0.00  0.00    +0.000 A 
ATOM     10  N   UNL     1       2.923   5.722  19.238  0.00  0.00    +0.000 NA
ATOM     11  H   UNL     1       2.305   7.254  19.884  0.00  0.00    +0.000 HD
ATOM     12  H   UNL     1       3.403   7.755  16.711  0.00  0.00    +0.000 HD
ENDROOT
BRANCH   3  13
ATOM     13  C   UNL     1       1.143   8.902  20.389  0.00  0.00    +0.000 A 
ATOM     14  C   UNL     1       1.187   8.776  21.777  0.00  0.00    +0.000 A 
ATOM     15  C   UNL     1       0.371   9.574  22.585  0.00  0.00    +0.000 A 
ATOM     16  C   UNL     1      -0.505  10.497  22.009  0.00  0.00    +0.000 A 
ATOM     17 CL   UNL     1      -1.509  11.424  23.065  0.00  0.00    +0.000 Cl
ATOM     18  C   UNL     1      -0.541  10.638  20.619  0.00  0.00    +0.000 A 
ATOM     19 CL   UNL     1      -1.608  11.745  19.829  0.00  0.00    +0.000 Cl
ATOM     20  C   UNL     1       0.293   9.854  19.815  0.00  0.00    +0.000 A 
ENDBRANCH   3  13
BRANCH   8  21
ATOM     21  N   UNL     1       4.185   2.220  19.254  0.00  0.00    +0.000 N 
ATOM     22  O   UNL     1       4.888   2.046  20.260  0.00  0.00    +0.000 OA
ATOM     23  O   UNL     1       3.661   1.314  18.592  0.00  0.00    +0.000 OA
ENDBRANCH   8  21
TORSDOF 2
ENDMDL
MODEL 2
REMARK VINA RESULT:      -7.7      0.709      1.561
REMARK  Name = 
REMARK  2 active torsions:
REMARK  status: ('A' for Active; 'I' for Inactive)
REMARK    1  A    between atoms: N_3  and  C_4
REMARK    2  A    between atoms: C_16  and  N_17
REMARK                            x       y       z     vdW  Elec       q    Type
REMARK                         _______ _______ _______ _____ _____    ______ ____
ROOT
ATOM      1  O   UNL     1       2.289   9.554  17.301  0.00  0.00    +0.000 OA
ATOM      2  C   UNL     1       2.446   8.529  17.959  0.00  0.00    +0.000 C 
ATOM      3  N   UNL     1       1.894   8.267  19.183  0.00  0.00    +0.000 N 
ATOM      4  N   UNL     1       3.285   7.569  17.456  0.00  0.00    +0.000 N 
ATOM      5  C   UNL     1       3.548   6.290  17.949  0.00  0.00    +0.000 A 
ATOM      6  C   UNL     1       4.439   5.484  17.244  0.00  0.00    +0.000 A 
ATOM      7  C   UNL     1       4.663   4.176  17.683  0.00  0.00    +0.000 A 
ATOM      8  C   UNL     1       3.981   3.719  18.811  0.00  0.00    +0.000 A 
ATOM      9  C   UNL     1       3.128   4.584  19.470  0.00  0.00    +0.000 A 
ATOM     10  N   UNL     1       2.914   5.862  19.067  0.00  0.00    +0.000 NA
ATOM     11  H   UNL     1       2.232   7.407  19.609  0.00  0.00    +0.000 HD
ATOM     12  H   UNL     1       3.711   7.849  16.585  0.00  0.00    +0.000 HD
ENDROOT
BRANCH   3  13
ATOM     13  C   UNL     1       1.030   9.070  19.942  0.00  0.00    +0.000 A 
ATOM     14  C   UNL     1       0.216  10.059  19.390  0.00  0.00    +0.000 A 
ATOM     15  C   UNL     1      -0.601  10.840  20.213  0.00  0.00    +0.000 A 
ATOM     16  C   UNL     1      -0.601  10.647  21.596  0.00  0.00    +0.000 A 
ATOM     17 CL   UNL     1      -1.607  11.673  22.554  0.00  0.00    +0.000 Cl
ATOM     18  C   UNL     1       0.201   9.647  22.152  0.00  0.00    +0.000 A 
ATOM     19 CL   UNL     1       0.269   9.356  23.855  0.00  0.00    +0.000 Cl
ATOM     20  C   UNL     1       1.000   8.851  21.325  0.00  0.00    +0.000 A 
ENDBRANCH   3  13
BRANCH   8  21
ATOM     21  N   UNL     1       4.140   2.354  19.293  0.00  0.00    +0.000 N 
ATOM     22  O   UNL     1       4.862   2.178  20.285  0.00  0.00    +0.000 OA
ATOM     23  O   UNL     1       3.547   1.456  18.681  0.00  0.00    +0.000 OA
ENDBRANCH   8  21
TORSDOF 2
ENDMDL
MODEL 3
REMARK VINA RESULT:      -7.6      4.613      5.755
REMARK  Name = 
REMARK  2 active torsions:
REMARK  status: ('A' for Active; 'I' for Inactive)
REMARK    1  A    between atoms: N_3  and  C_4
REMARK    2  A    between atoms: C_16  and  N_17
REMARK                            x       y       z     vdW  Elec       q    Type
REMARK                         _______ _______ _______ _____ _____    ______ ____
ROOT
ATOM      1  O   UNL     1       6.955   7.292  17.249  0.00  0.00    +0.000 OA
ATOM      2  C   UNL     1       6.402   6.428  16.573  0.00  0.00    +0.000 C 
ATOM      3  N   UNL     1       5.164   5.896  16.806  0.00  0.00    +0.000 N 
ATOM      4  N   UNL     1       7.094   5.907  15.512  0.00  0.00    +0.000 N 
ATOM      5  C   UNL     1       6.659   5.005  14.539  0.00  0.00    +0.000 A 
ATOM      6  C   UNL     1       7.554   4.632  13.539  0.00  0.00    +0.000 A 
ATOM      7  C   UNL     1       7.116   3.784  12.520  0.00  0.00    +0.000 A 
ATOM      8  C   UNL     1       5.792   3.343  12.532  0.00  0.00    +0.000 A 
ATOM      9  C   UNL     1       4.968   3.739  13.569  0.00  0.00    +0.000 A 
ATOM     10  N   UNL     1       5.384   4.548  14.576  0.00  0.00    +0.000 NA
ATOM     11  H   UNL     1       4.931   5.117  16.195  0.00  0.00    +0.000 HD
ATOM     12  H   UNL     1       8.024   6.293  15.432  0.00  0.00    +0.000 HD
ENDROOT
BRANCH   3  13
ATOM     13  C   UNL     1       4.253   6.213  17.825  0.00  0.00    +0.000 A 
ATOM     14  C   UNL     1       4.098   5.449  18.982  0.00  0.00    +0.000 A 
ATOM     15  C   UNL     1       3.151   5.811  19.944  0.00  0.00    +0.000 A 
ATOM     16  C   UNL     1       2.342   6.933  19.752  0.00  0.00    +0.000 A 
ATOM     17 CL   UNL     1       1.168   7.300  20.965  0.00  0.00    +0.000 Cl
ATOM     18  C   UNL     1       2.504   7.710  18.602  0.00  0.00    +0.000 A 
ATOM     19 CL   UNL     1       1.533   9.105  18.282  0.00  0.00    +0.000 Cl
ATOM     20  C   UNL     1       3.469   7.359  17.651  0.00  0.00    +0.000 A 
ENDBRANCH   3  13
BRANCH   8  21
ATOM     21  N   UNL     1       5.265   2.492  11.476  0.00  0.00    +0.000 N 
ATOM     22  O   UNL     1       5.946   1.514  11.133  0.00  0.00    +0.000 OA
ATOM     23  O   UNL     1       4.171   2.799  10.983  0.00  0.00    +0.000 OA
ENDBRANCH   8  21
TORSDOF 2
ENDMDL
MODEL 4
REMARK VINA RESULT:      -7.6      2.945      3.783
REMARK  Name = 
REMARK  2 active torsions:
REMARK  status: ('A' for Active; 'I' for Inactive)
REMARK    1  A    between atoms: N_3  and  C_4
REMARK    2  A    between atoms: C_16  and  N_17
REMARK                            x       y       z     vdW  Elec       q    Type
REMARK                         _______ _______ _______ _____ _____    ______ ____
ROOT
ATOM      1  O   UNL     1       1.786   5.550  20.409  0.00  0.00    +0.000 OA
ATOM      2  C   UNL     1       2.423   5.794  19.387  0.00  0.00    +0.000 C 
ATOM      3  N   UNL     1       2.488   7.003  18.751  0.00  0.00    +0.000 N 
ATOM      4  N   UNL     1       3.099   4.761  18.793  0.00  0.00    +0.000 N 
ATOM      5  C   UNL     1       3.969   4.795  17.702  0.00  0.00    +0.000 A 
ATOM      6  C   UNL     1       4.553   3.601  17.288  0.00  0.00    +0.000 A 
ATOM      7  C   UNL     1       5.478   3.625  16.241  0.00  0.00    +0.000 A 
ATOM      8  C   UNL     1       5.792   4.849  15.649  0.00  0.00    +0.000 A 
ATOM      9  C   UNL     1       5.156   5.990  16.101  0.00  0.00    +0.000 A 
ATOM     10  N   UNL     1       4.242   5.980  17.104  0.00  0.00    +0.000 NA
ATOM     11  H   UNL     1       2.982   6.972  17.862  0.00  0.00    +0.000 HD
ATOM     12  H   UNL     1       2.959   3.884  19.273  0.00  0.00    +0.000 HD
ENDROOT
BRANCH   3  13
ATOM     13  C   UNL     1       1.880   8.215  19.111  0.00  0.00    +0.000 A 
ATOM     14  C   UNL     1       1.692   9.274  18.224  0.00  0.00    +0.000 A 
ATOM     15  C   UNL     1       1.102  10.465  18.661  0.00  0.00    +0.000 A 
ATOM     16  C   UNL     1       0.706  10.609  19.992  0.00  0.00    +0.000 A 
ATOM     17 CL   UNL     1       0.018  12.119  20.470  0.00  0.00    +0.000 Cl
ATOM     18  C   UNL     1       0.878   9.545  20.881  0.00  0.00    +0.000 A 
ATOM     19 CL   UNL     1       0.429   9.650  22.548  0.00  0.00    +0.000 Cl
ATOM     20  C   UNL     1       1.448   8.347  20.436  0.00  0.00    +0.000 A 
ENDBRANCH   3  13
BRANCH   8  21
ATOM     21  N   UNL     1       6.778   4.946  14.583  0.00  0.00    +0.000 N 
ATOM     22  O   UNL     1       6.540   4.344  13.526  0.00  0.00    +0.000 OA
ATOM     23  O   UNL     1       7.794   5.620  14.800  0.00  0.00    +0.000 OA
ENDBRANCH   8  21
TORSDOF 2
ENDMDL
MODEL 5
REMARK VINA RESULT:      -7.5      2.790      3.279
REMARK  Name = 
REMARK  2 active torsions:
REMARK  status: ('A' for Active; 'I' for Inactive)
REMARK    1  A    between atoms: N_3  and  C_4
REMARK    2  A    between atoms: C_16  and  N_17
REMARK                            x       y       z     vdW  Elec       q    Type
REMARK                         _______ _______ _______ _____ _____    ______ ____
ROOT
ATOM      1  O   UNL     1       1.340   5.121  20.751  0.00  0.00    +0.000 OA
ATOM      2  C   UNL     1       2.069   5.508  19.841  0.00  0.00    +0.000 C 
ATOM      3  N   UNL     1       2.280   6.810  19.479  0.00  0.00    +0.000 N 
ATOM      4  N   UNL     1       2.699   4.559  19.079  0.00  0.00    +0.000 N 
ATOM      5  C   UNL     1       3.647   4.733  18.069  0.00  0.00    +0.000 A 
ATOM      6  C   UNL     1       4.159   3.599  17.445  0.00  0.00    +0.000 A 
ATOM      7  C   UNL     1       5.158   3.749  16.479  0.00  0.00    +0.000 A 
ATOM      8  C   UNL     1       5.615   5.033  16.177  0.00  0.00    +0.000 A 
ATOM      9  C   UNL     1       5.043   6.112  16.825  0.00  0.00    +0.000 A 
ATOM     10  N   UNL     1       4.060   5.983  17.751  0.00  0.00    +0.000 NA
ATOM     11  H   UNL     1       2.834   6.915  18.632  0.00  0.00    +0.000 HD
ATOM     12  H   UNL     1       2.452   3.620  19.354  0.00  0.00    +0.000 HD
ENDROOT
BRANCH   3  13
ATOM     13  C   UNL     1       1.749   7.975  20.054  0.00  0.00    +0.000 A 
ATOM     14  C   UNL     1       1.544   8.130  21.424  0.00  0.00    +0.000 A 
ATOM     15  C   UNL     1       0.985   9.310  21.925  0.00  0.00    +0.000 A 
ATOM     16  C   UNL     1       0.615  10.339  21.057  0.00  0.00    +0.000 A 
ATOM     17 CL   UNL     1      -0.104  11.753  21.740  0.00  0.00    +0.000 Cl
ATOM     18  C   UNL     1       0.832  10.194  19.684  0.00  0.00    +0.000 A 
ATOM     19 CL   UNL     1       0.388  11.414  18.542  0.00  0.00    +0.000 Cl
ATOM     20  C   UNL     1       1.413   9.022  19.188  0.00  0.00    +0.000 A 
ENDBRANCH   3  13
BRANCH   8  21
ATOM     21  N   UNL     1       6.682   5.252  15.212  0.00  0.00    +0.000 N 
ATOM     22  O   UNL     1       7.625   5.979  15.555  0.00  0.00    +0.000 OA
ATOM     23  O   UNL     1       6.580   4.700  14.107  0.00  0.00    +0.000 OA
ENDBRANCH   8  21
TORSDOF 2
ENDMDL
MODEL 6
REMARK VINA RESULT:      -7.4      4.859      6.036
REMARK  Name = 
REMARK  2 active torsions:
REMARK  status: ('A' for Active; 'I' for Inactive)
REMARK    1  A    between atoms: N_3  and  C_4
REMARK    2  A    between atoms: C_16  and  N_17
REMARK                            x       y       z     vdW  Elec       q    Type
REMARK                         _______ _______ _______ _____ _____    ______ ____
ROOT
ATOM      1  O   UNL     1       6.800   7.298  17.213  0.00  0.00    +0.000 OA
ATOM      2  C   UNL     1       6.261   6.432  16.528  0.00  0.00    +0.000 C 
ATOM      3  N   UNL     1       5.007   5.919  16.722  0.00  0.00    +0.000 N 
ATOM      4  N   UNL     1       6.984   5.888  15.500  0.00  0.00    +0.000 N 
ATOM      5  C   UNL     1       6.573   4.979  14.524  0.00  0.00    +0.000 A 
ATOM      6  C   UNL     1       7.499   4.582  13.563  0.00  0.00    +0.000 A 
ATOM      7  C   UNL     1       7.088   3.726  12.538  0.00  0.00    +0.000 A 
ATOM      8  C   UNL     1       5.759   3.302  12.507  0.00  0.00    +0.000 A 
ATOM      9  C   UNL     1       4.903   3.723  13.508  0.00  0.00    +0.000 A 
ATOM     10  N   UNL     1       5.292   4.539  14.519  0.00  0.00    +0.000 NA
ATOM     11  H   UNL     1       4.787   5.136  16.112  0.00  0.00    +0.000 HD
ATOM     12  H   UNL     1       7.921   6.261  15.450  0.00  0.00    +0.000 HD
ENDROOT
BRANCH   3  13
ATOM     13  C   UNL     1       4.064   6.262  17.703  0.00  0.00    +0.000 A 
ATOM     14  C   UNL     1       3.390   7.482  17.727  0.00  0.00    +0.000 A 
ATOM     15  C   UNL     1       2.482   7.766  18.752  0.00  0.00    +0.000 A 
ATOM     16  C   UNL     1       2.250   6.836  19.768  0.00  0.00    +0.000 A 
ATOM     17 CL   UNL     1       1.143   7.268  21.021  0.00  0.00    +0.000 Cl
ATOM     18  C   UNL     1       2.912   5.605  19.739  0.00  0.00    +0.000 A 
ATOM     19 CL   UNL     1       2.692   4.407  20.966  0.00  0.00    +0.000 Cl
ATOM     20  C   UNL     1       3.802   5.315  18.699  0.00  0.00    +0.000 A 
ENDBRANCH   3  13
BRANCH   8  21
ATOM     21  N   UNL     1       5.259   2.444  11.443  0.00  0.00    +0.000 N 
ATOM     22  O   UNL     1       5.957   1.474  11.114  0.00  0.00    +0.000 OA
ATOM     23  O   UNL     1       4.172   2.739  10.930  0.00  0.00    +0.000 OA
ENDBRANCH   8  21
TORSDOF 2
ENDMDL
MODEL 7
REMARK VINA RESULT:      -7.4      4.218      7.648
REMARK  Name = 
REMARK  2 active torsions:
REMARK  status: ('A' for Active; 'I' for Inactive)
REMARK    1  A    between atoms: N_3  and  C_4
REMARK    2  A    between atoms: C_16  and  N_17
REMARK                            x       y       z     vdW  Elec       q    Type
REMARK                         _______ _______ _______ _____ _____    ______ ____
ROOT
ATOM      1  O   UNL     1       2.829   8.171  17.217  0.00  0.00    +0.000 OA
ATOM      2  C   UNL     1       2.220   8.399  18.259  0.00  0.00    +0.000 C 
ATOM      3  N   UNL     1       2.123   7.559  19.334  0.00  0.00    +0.000 N 
ATOM      4  N   UNL     1       1.531   9.580  18.352  0.00  0.00    +0.000 N 
ATOM      5  C   UNL     1       0.857  10.118  19.449  0.00  0.00    +0.000 A 
ATOM      6  C   UNL     1       0.239  11.357  19.299  0.00  0.00    +0.000 A 
ATOM      7  C   UNL     1      -0.383  11.943  20.405  0.00  0.00    +0.000 A 
ATOM      8  C   UNL     1      -0.358  11.269  21.626  0.00  0.00    +0.000 A 
ATOM      9  C   UNL     1       0.257  10.033  21.693  0.00  0.00    +0.000 A 
ATOM     10  N   UNL     1       0.849   9.443  20.624  0.00  0.00    +0.000 NA
ATOM     11  H   UNL     1       1.486   7.888  20.055  0.00  0.00    +0.000 HD
ATOM     12  H   UNL     1       1.588  10.125  17.504  0.00  0.00    +0.000 HD
ENDROOT
BRANCH   3  13
ATOM     13  C   UNL     1       2.693   6.288  19.504  0.00  0.00    +0.000 A 
ATOM     14  C   UNL     1       3.903   5.905  18.927  0.00  0.00    +0.000 A 
ATOM     15  C   UNL     1       4.398   4.611  19.118  0.00  0.00    +0.000 A 
ATOM     16  C   UNL     1       3.680   3.686  19.878  0.00  0.00    +0.000 A 
ATOM     17 CL   UNL     1       4.333   2.095  20.042  0.00  0.00    +0.000 Cl
ATOM     18  C   UNL     1       2.474   4.069  20.471  0.00  0.00    +0.000 A 
ATOM     19 CL   UNL     1       1.518   2.979  21.413  0.00  0.00    +0.000 Cl
ATOM     20  C   UNL     1       1.993   5.372  20.298  0.00  0.00    +0.000 A 
ENDBRANCH   3  13
BRANCH   8  21
ATOM     21  N   UNL     1      -0.951  11.846  22.824  0.00  0.00    +0.000 N 
ATOM     22  O   UNL     1      -1.884  11.226  23.357  0.00  0.00    +0.000 OA
ATOM     23  O   UNL     1      -0.490  12.919  23.234  0.00  0.00    +0.000 OA
ENDBRANCH   8  21
TORSDOF 2
ENDMDL
MODEL 8
REMARK VINA RESULT:      -7.4      1.838      2.170
REMARK  Name = 
REMARK  2 active torsions:
REMARK  status: ('A' for Active; 'I' for Inactive)
REMARK    1  A    between atoms: N_3  and  C_4
REMARK    2  A    between atoms: C_16  and  N_17
REMARK                            x       y       z     vdW  Elec       q    Type
REMARK                         _______ _______ _______ _____ _____    ______ ____
ROOT
ATOM      1  O   UNL     1       2.299   9.431  17.296  0.00  0.00    +0.000 OA
ATOM      2  C   UNL     1       2.129   8.636  18.218  0.00  0.00    +0.000 C 
ATOM      3  N   UNL     1       1.330   8.833  19.311  0.00  0.00    +0.000 N 
ATOM      4  N   UNL     1       2.830   7.460  18.186  0.00  0.00    +0.000 N 
ATOM      5  C   UNL     1       2.739   6.361  19.042  0.00  0.00    +0.000 A 
ATOM      6  C   UNL     1       3.556   5.262  18.792  0.00  0.00    +0.000 A 
ATOM      7  C   UNL     1       3.431   4.127  19.597  0.00  0.00    +0.000 A 
ATOM      8  C   UNL     1       2.485   4.129  20.622  0.00  0.00    +0.000 A 
ATOM      9  C   UNL     1       1.723   5.266  20.822  0.00  0.00    +0.000 A 
ATOM     10  N   UNL     1       1.846   6.382  20.061  0.00  0.00    +0.000 NA
ATOM     11  H   UNL     1       1.408   8.101  20.012  0.00  0.00    +0.000 HD
ATOM     12  H   UNL     1       3.449   7.403  17.391  0.00  0.00    +0.000 HD
ENDROOT
BRANCH   3  13
ATOM     13  C   UNL     1       0.528   9.942  19.620  0.00  0.00    +0.000 A 
ATOM     14  C   UNL     1       0.759  10.778  20.712  0.00  0.00    +0.000 A 
ATOM     15  C   UNL     1      -0.099  11.850  20.974  0.00  0.00    +0.000 A 
ATOM     16  C   UNL     1      -1.203  12.088  20.153  0.00  0.00    +0.000 A 
ATOM     17 CL   UNL     1      -2.240  13.408  20.557  0.00  0.00    +0.000 Cl
ATOM     18  C   UNL     1      -1.430  11.263  19.048  0.00  0.00    +0.000 A 
ATOM     19 CL   UNL     1      -2.782  11.481  17.992  0.00  0.00    +0.000 Cl
ATOM     20  C   UNL     1      -0.557  10.204  18.775  0.00  0.00    +0.000 A 
ENDBRANCH   3  13
BRANCH   8  21
ATOM     21  N   UNL     1       2.277   2.963  21.467  0.00  0.00    +0.000 N 
ATOM     22  O   UNL     1       3.282   2.340  21.842  0.00  0.00    +0.000 OA
ATOM     23  O   UNL     1       1.111   2.663  21.757  0.00  0.00    +0.000 OA
ENDBRANCH   8  21
TORSDOF 2
ENDMDL
MODEL 9
REMARK VINA RESULT:      -7.4      1.564      2.269
REMARK  Name = 
REMARK  2 active torsions:
REMARK  status: ('A' for Active; 'I' for Inactive)
REMARK    1  A    between atoms: N_3  and  C_4
REMARK    2  A    between atoms: C_16  and  N_17
REMARK                            x       y       z     vdW  Elec       q    Type
REMARK                         _______ _______ _______ _____ _____    ______ ____
ROOT
ATOM      1  O   UNL     1       2.206   9.186  17.309  0.00  0.00    +0.000 OA
ATOM      2  C   UNL     1       2.131   8.401  18.250  0.00  0.00    +0.000 C 
ATOM      3  N   UNL     1       1.459   8.613  19.423  0.00  0.00    +0.000 N 
ATOM      4  N   UNL     1       2.815   7.218  18.151  0.00  0.00    +0.000 N 
ATOM      5  C   UNL     1       2.810   6.126  19.022  0.00  0.00    +0.000 A 
ATOM      6  C   UNL     1       3.585   5.018  18.692  0.00  0.00    +0.000 A 
ATOM      7  C   UNL     1       3.540   3.890  19.516  0.00  0.00    +0.000 A 
ATOM      8  C   UNL     1       2.713   3.909  20.639  0.00  0.00    +0.000 A 
ATOM      9  C   UNL     1       1.987   5.054  20.912  0.00  0.00    +0.000 A 
ATOM     10  N   UNL     1       2.035   6.163  20.132  0.00  0.00    +0.000 NA
ATOM     11  H   UNL     1       1.608   7.885  20.117  0.00  0.00    +0.000 HD
ATOM     12  H   UNL     1       3.342   7.149  17.293  0.00  0.00    +0.000 HD
ENDROOT
BRANCH   3  13
ATOM     13  C   UNL     1       0.705   9.732  19.808  0.00  0.00    +0.000 A 
ATOM     14  C   UNL     1       0.483  10.831  18.980  0.00  0.00    +0.000 A 
ATOM     15  C   UNL     1      -0.257  11.924  19.441  0.00  0.00    +0.000 A 
ATOM     16  C   UNL     1      -0.770  11.932  20.740  0.00  0.00    +0.000 A 
ATOM     17 CL   UNL     1      -1.643  13.330  21.255  0.00  0.00    +0.000 Cl
ATOM     18  C   UNL     1      -0.563  10.826  21.569  0.00  0.00    +0.000 A 
ATOM     19 CL   UNL     1      -1.152  10.764  23.193  0.00  0.00    +0.000 Cl
ATOM     20  C   UNL     1       0.158   9.724  21.096  0.00  0.00    +0.000 A 
ENDBRANCH   3  13
BRANCH   8  21
ATOM     21  N   UNL     1       2.590   2.751  21.512  0.00  0.00    +0.000 N 
ATOM     22  O   UNL     1       1.494   2.558  22.058  0.00  0.00    +0.000 OA
ATOM     23  O   UNL     1       3.588   2.032  21.657  0.00  0.00    +0.000 OA
ENDBRANCH   8  21
TORSDOF 2
ENDMDL
