MODEL 1
REMARK VINA RESULT:      -8.6      0.000      0.000
REMARK  Name = 
REMARK  6 active torsions:
REMARK  status: ('A' for Active; 'I' for Inactive)
REMARK    1  A    between atoms: C_1  and  C_2
REMARK    2  A    between atoms: C_2  and  N_3
REMARK    3  A    between atoms: C_2  and  C_21
REMARK    4  A    between atoms: C_4  and  C_6
REMARK    5  A    between atoms: C_12  and  C_13
REMARK    6  A    between atoms: N_16  and  C_17
REMARK                            x       y       z     vdW  Elec       q    Type
REMARK                         _______ _______ _______ _____ _____    ______ ____
ROOT
ATOM      1  C   UNL     1       2.248   7.253  19.157  0.00  0.00    +0.000 A 
ATOM      2  C   UNL     1       1.726   6.748  20.337  0.00  0.00    +0.000 A 
ATOM      3  N   UNL     1       2.280   5.549  20.684  0.00  0.00    +0.000 NA
ATOM      4  C   UNL     1       3.137   5.284  19.727  0.00  0.00    +0.000 A 
ATOM      5  C   UNL     1       4.026   4.190  19.574  0.00  0.00    +0.000 A 
ATOM      6  C   UNL     1       4.811   4.112  18.484  0.00  0.00    +0.000 A 
ATOM      7  C   UNL     1       4.783   5.124  17.421  0.00  0.00    +0.000 A 
ATOM      8  C   UNL     1       3.947   6.174  17.597  0.00  0.00    +0.000 A 
ATOM      9  N   UNL     1       3.141   6.268  18.739  0.00  0.00    +0.000 N 
ENDROOT
BRANCH   7  10
ATOM     10  C   UNL     1       5.627   4.982  16.271  0.00  0.00    +0.000 A 
ATOM     11  C   UNL     1       6.921   5.507  16.045  0.00  0.00    +0.000 A 
ATOM     12  N   UNL     1       7.405   5.177  14.842  0.00  0.00    +0.000 NA
ATOM     13  N   UNL     1       6.421   4.439  14.299  0.00  0.00    +0.000 N 
ATOM     14  C   UNL     1       6.579   3.871  12.983  0.00  0.00    +0.000 C 
ATOM     15  C   UNL     1       5.332   4.297  15.114  0.00  0.00    +0.000 A 
ENDBRANCH   7  10
BRANCH   1  17
ATOM     16  N   UNL     1       1.125   9.360  19.164  0.00  0.00    +0.000 N 
ATOM     17  C   UNL     1       1.975   8.508  18.488  0.00  0.00    +0.000 C 
ATOM     18  O   UNL     1       2.465   8.824  17.407  0.00  0.00    +0.000 OA
ATOM     19  H   UNL     1       0.768   9.094  20.067  0.00  0.00    +0.000 HD
BRANCH  16  21
ATOM     20  C   UNL     1       1.275  11.763  19.692  0.00  0.00    +0.000 C 
ATOM     21  C   UNL     1       0.804  10.701  18.695  0.00  0.00    +0.000 C 
BRANCH  21  22
ATOM     22  C   UNL     1      -0.690  10.814  18.434  0.00  0.00    +0.000 A 
ATOM     23  C   UNL     1      -1.306   9.939  17.524  0.00  0.00    +0.000 A 
ATOM     24  C   UNL     1      -2.683  10.002  17.294  0.00  0.00    +0.000 A 
ATOM     25  C   UNL     1      -3.457  10.939  17.974  0.00  0.00    +0.000 A 
ATOM     26 CL   UNL     1      -5.157  10.995  17.715  0.00  0.00    +0.000 Cl
ATOM     27  C   UNL     1      -2.864  11.826  18.868  0.00  0.00    +0.000 A 
ATOM     28  C   UNL     1      -1.486  11.767  19.095  0.00  0.00    +0.000 A 
ENDBRANCH  21  22
ENDBRANCH  16  21
ENDBRANCH   1  17
TORSDOF 4
ENDMDL
MODEL 2
REMARK VINA RESULT:      -7.9      3.894      8.470
REMARK  Name = 
REMARK  6 active torsions:
REMARK  status: ('A' for Active; 'I' for Inactive)
REMARK    1  A    between atoms: C_1  and  C_2
REMARK    2  A    between atoms: C_2  and  N_3
REMARK    3  A    between atoms: C_2  and  C_21
REMARK    4  A    between atoms: C_4  and  C_6
REMARK    5  A    between atoms: C_12  and  C_13
REMARK    6  A    between atoms: N_16  and  C_17
REMARK                            x       y       z     vdW  Elec       q    Type
REMARK                         _______ _______ _______ _____ _____    ______ ____
ROOT
ATOM      1  C   UNL     1       4.713   3.857  19.383  0.00  0.00    +0.000 A 
ATOM      2  C   UNL     1       4.441   2.523  19.643  0.00  0.00    +0.000 A 
ATOM      3  N   UNL     1       3.179   2.330  20.126  0.00  0.00    +0.000 NA
ATOM      4  C   UNL     1       2.655   3.531  20.189  0.00  0.00    +0.000 A 
ATOM      5  C   UNL     1       1.356   3.941  20.583  0.00  0.00    +0.000 A 
ATOM      6  C   UNL     1       1.040   5.249  20.589  0.00  0.00    +0.000 A 
ATOM      7  C   UNL     1       2.000   6.292  20.207  0.00  0.00    +0.000 A 
ATOM      8  C   UNL     1       3.226   5.879  19.809  0.00  0.00    +0.000 A 
ATOM      9  N   UNL     1       3.554   4.518  19.784  0.00  0.00    +0.000 N 
ENDROOT
BRANCH   7  10
ATOM     10  C   UNL     1       1.617   7.673  20.251  0.00  0.00    +0.000 A 
ATOM     11  C   UNL     1       1.101   8.421  21.335  0.00  0.00    +0.000 A 
ATOM     12  N   UNL     1       0.845   9.692  21.004  0.00  0.00    +0.000 NA
ATOM     13  N   UNL     1       1.199   9.757  19.708  0.00  0.00    +0.000 N 
ATOM     14  C   UNL     1       1.085  10.999  18.985  0.00  0.00    +0.000 C 
ATOM     15  C   UNL     1       1.664   8.572  19.209  0.00  0.00    +0.000 A 
ENDBRANCH   7  10
BRANCH   1  17
ATOM     16  N   UNL     1       5.861   4.653  17.448  0.00  0.00    +0.000 N 
ATOM     17  C   UNL     1       5.898   4.465  18.814  0.00  0.00    +0.000 C 
ATOM     18  O   UNL     1       6.870   4.813  19.478  0.00  0.00    +0.000 OA
ATOM     19  H   UNL     1       5.036   4.395  16.931  0.00  0.00    +0.000 HD
BRANCH  16  21
ATOM     20  C   UNL     1       6.805   6.850  16.847  0.00  0.00    +0.000 C 
ATOM     21  C   UNL     1       6.917   5.330  16.709  0.00  0.00    +0.000 C 
BRANCH  21  22
ATOM     22  C   UNL     1       6.882   4.905  15.249  0.00  0.00    +0.000 A 
ATOM     23  C   UNL     1       7.795   5.462  14.338  0.00  0.00    +0.000 A 
ATOM     24  C   UNL     1       7.804   5.061  13.000  0.00  0.00    +0.000 A 
ATOM     25  C   UNL     1       6.901   4.097  12.560  0.00  0.00    +0.000 A 
ATOM     26 CL   UNL     1       6.933   3.579  10.919  0.00  0.00    +0.000 Cl
ATOM     27  C   UNL     1       5.978   3.543  13.442  0.00  0.00    +0.000 A 
ATOM     28  C   UNL     1       5.965   3.947  14.779  0.00  0.00    +0.000 A 
ENDBRANCH  21  22
ENDBRANCH  16  21
ENDBRANCH   1  17
TORSDOF 4
ENDMDL
MODEL 3
REMARK VINA RESULT:      -7.7      4.052      8.515
REMARK  Name = 
REMARK  6 active torsions:
REMARK  status: ('A' for Active; 'I' for Inactive)
REMARK    1  A    between atoms: C_1  and  C_2
REMARK    2  A    between atoms: C_2  and  N_3
REMARK    3  A    between atoms: C_2  and  C_21
REMARK    4  A    between atoms: C_4  and  C_6
REMARK    5  A    between atoms: C_12  and  C_13
REMARK    6  A    between atoms: N_16  and  C_17
REMARK                            x       y       z     vdW  Elec       q    Type
REMARK                         _______ _______ _______ _____ _____    ______ ____
ROOT
ATOM      1  C   UNL     1       4.685   3.908  19.454  0.00  0.00    +0.000 A 
ATOM      2  C   UNL     1       4.427   2.576  19.738  0.00  0.00    +0.000 A 
ATOM      3  N   UNL     1       3.165   2.378  20.219  0.00  0.00    +0.000 NA
ATOM      4  C   UNL     1       2.626   3.573  20.255  0.00  0.00    +0.000 A 
ATOM      5  C   UNL     1       1.320   3.976  20.636  0.00  0.00    +0.000 A 
ATOM      6  C   UNL     1       0.989   5.279  20.615  0.00  0.00    +0.000 A 
ATOM      7  C   UNL     1       1.938   6.326  20.218  0.00  0.00    +0.000 A 
ATOM      8  C   UNL     1       3.171   5.920  19.833  0.00  0.00    +0.000 A 
ATOM      9  N   UNL     1       3.516   4.563  19.837  0.00  0.00    +0.000 N 
ENDROOT
BRANCH   7  10
ATOM     10  C   UNL     1       1.539   7.703  20.233  0.00  0.00    +0.000 A 
ATOM     11  C   UNL     1       1.609   8.662  19.195  0.00  0.00    +0.000 A 
ATOM     12  N   UNL     1       1.151   9.861  19.575  0.00  0.00    +0.000 NA
ATOM     13  N   UNL     1       0.786   9.667  20.854  0.00  0.00    +0.000 N 
ATOM     14  C   UNL     1       0.213  10.748  21.617  0.00  0.00    +0.000 C 
ATOM     15  C   UNL     1       1.002   8.392  21.296  0.00  0.00    +0.000 A 
ENDBRANCH   7  10
BRANCH   1  17
ATOM     16  N   UNL     1       5.789   4.781  17.527  0.00  0.00    +0.000 N 
ATOM     17  C   UNL     1       5.865   4.519  18.879  0.00  0.00    +0.000 C 
ATOM     18  O   UNL     1       6.866   4.809  19.529  0.00  0.00    +0.000 OA
ATOM     19  H   UNL     1       4.943   4.570  17.024  0.00  0.00    +0.000 HD
BRANCH  16  21
ATOM     20  C   UNL     1       6.646   6.991  16.846  0.00  0.00    +0.000 C 
ATOM     21  C   UNL     1       6.838   5.473  16.791  0.00  0.00    +0.000 C 
BRANCH  21  22
ATOM     22  C   UNL     1       6.878   4.974  15.354  0.00  0.00    +0.000 A 
ATOM     23  C   UNL     1       5.976   3.982  14.935  0.00  0.00    +0.000 A 
ATOM     24  C   UNL     1       5.970   3.534  13.612  0.00  0.00    +0.000 A 
ATOM     25  C   UNL     1       6.866   4.076  12.694  0.00  0.00    +0.000 A 
ATOM     26 CL   UNL     1       6.838   3.548  11.056  0.00  0.00    +0.000 Cl
ATOM     27  C   UNL     1       7.779   5.049  13.091  0.00  0.00    +0.000 A 
ATOM     28  C   UNL     1       7.788   5.494  14.415  0.00  0.00    +0.000 A 
ENDBRANCH  21  22
ENDBRANCH  16  21
ENDBRANCH   1  17
TORSDOF 4
ENDMDL
MODEL 4
REMARK VINA RESULT:      -7.7      4.104      8.472
REMARK  Name = 
REMARK  6 active torsions:
REMARK  status: ('A' for Active; 'I' for Inactive)
REMARK    1  A    between atoms: C_1  and  C_2
REMARK    2  A    between atoms: C_2  and  N_3
REMARK    3  A    between atoms: C_2  and  C_21
REMARK    4  A    between atoms: C_4  and  C_6
REMARK    5  A    between atoms: C_12  and  C_13
REMARK    6  A    between atoms: N_16  and  C_17
REMARK                            x       y       z     vdW  Elec       q    Type
REMARK                         _______ _______ _______ _____ _____    ______ ____
ROOT
ATOM      1  C   UNL     1       4.657   3.847  18.993  0.00  0.00    +0.000 A 
ATOM      2  C   UNL     1       4.506   2.534  19.410  0.00  0.00    +0.000 A 
ATOM      3  N   UNL     1       3.382   2.349  20.162  0.00  0.00    +0.000 NA
ATOM      4  C   UNL     1       2.828   3.535  20.238  0.00  0.00    +0.000 A 
ATOM      5  C   UNL     1       1.622   3.942  20.863  0.00  0.00    +0.000 A 
ATOM      6  C   UNL     1       1.255   5.236  20.832  0.00  0.00    +0.000 A 
ATOM      7  C   UNL     1       2.066   6.268  20.174  0.00  0.00    +0.000 A 
ATOM      8  C   UNL     1       3.200   5.857  19.561  0.00  0.00    +0.000 A 
ATOM      9  N   UNL     1       3.578   4.508  19.576  0.00  0.00    +0.000 N 
ENDROOT
BRANCH   7  10
ATOM     10  C   UNL     1       1.637   7.636  20.187  0.00  0.00    +0.000 A 
ATOM     11  C   UNL     1       1.672   8.591  19.144  0.00  0.00    +0.000 A 
ATOM     12  N   UNL     1       1.194   9.782  19.523  0.00  0.00    +0.000 NA
ATOM     13  N   UNL     1       0.852   9.588  20.808  0.00  0.00    +0.000 N 
ATOM     14  C   UNL     1       0.267  10.661  21.574  0.00  0.00    +0.000 C 
ATOM     15  C   UNL     1       1.102   8.320  21.255  0.00  0.00    +0.000 A 
ENDBRANCH   7  10
BRANCH   1  17
ATOM     16  N   UNL     1       5.191   5.048  17.000  0.00  0.00    +0.000 N 
ATOM     17  C   UNL     1       5.669   4.436  18.141  0.00  0.00    +0.000 C 
ATOM     18  O   UNL     1       6.869   4.422  18.399  0.00  0.00    +0.000 OA
ATOM     19  H   UNL     1       4.199   5.080  16.830  0.00  0.00    +0.000 HD
BRANCH  16  21
ATOM     20  C   UNL     1       5.497   7.174  15.791  0.00  0.00    +0.000 C 
ATOM     21  C   UNL     1       6.044   5.772  16.068  0.00  0.00    +0.000 C 
BRANCH  21  22
ATOM     22  C   UNL     1       6.197   4.976  14.781  0.00  0.00    +0.000 A 
ATOM     23  C   UNL     1       7.350   5.137  13.995  0.00  0.00    +0.000 A 
ATOM     24  C   UNL     1       7.528   4.390  12.827  0.00  0.00    +0.000 A 
ATOM     25  C   UNL     1       6.555   3.474  12.436  0.00  0.00    +0.000 A 
ATOM     26 CL   UNL     1       6.790   2.531  11.016  0.00  0.00    +0.000 Cl
ATOM     27  C   UNL     1       5.398   3.310  13.192  0.00  0.00    +0.000 A 
ATOM     28  C   UNL     1       5.218   4.059  14.357  0.00  0.00    +0.000 A 
ENDBRANCH  21  22
ENDBRANCH  16  21
ENDBRANCH   1  17
TORSDOF 4
ENDMDL
MODEL 5
REMARK VINA RESULT:      -7.6      1.327      1.728
REMARK  Name = 
REMARK  6 active torsions:
REMARK  status: ('A' for Active; 'I' for Inactive)
REMARK    1  A    between atoms: C_1  and  C_2
REMARK    2  A    between atoms: C_2  and  N_3
REMARK    3  A    between atoms: C_2  and  C_21
REMARK    4  A    between atoms: C_4  and  C_6
REMARK    5  A    between atoms: C_12  and  C_13
REMARK    6  A    between atoms: N_16  and  C_17
REMARK                            x       y       z     vdW  Elec       q    Type
REMARK                         _______ _______ _______ _____ _____    ______ ____
ROOT
ATOM      1  C   UNL     1       2.310   7.227  19.092  0.00  0.00    +0.000 A 
ATOM      2  C   UNL     1       1.835   6.738  20.298  0.00  0.00    +0.000 A 
ATOM      3  N   UNL     1       2.431   5.565  20.660  0.00  0.00    +0.000 NA
ATOM      4  C   UNL     1       3.269   5.299  19.686  0.00  0.00    +0.000 A 
ATOM      5  C   UNL     1       4.183   4.225  19.535  0.00  0.00    +0.000 A 
ATOM      6  C   UNL     1       4.940   4.141  18.426  0.00  0.00    +0.000 A 
ATOM      7  C   UNL     1       4.855   5.124  17.339  0.00  0.00    +0.000 A 
ATOM      8  C   UNL     1       3.995   6.155  17.513  0.00  0.00    +0.000 A 
ATOM      9  N   UNL     1       3.218   6.257  18.673  0.00  0.00    +0.000 N 
ENDROOT
BRANCH   7  10
ATOM     10  C   UNL     1       5.670   4.976  16.169  0.00  0.00    +0.000 A 
ATOM     11  C   UNL     1       6.954   5.508  15.905  0.00  0.00    +0.000 A 
ATOM     12  N   UNL     1       7.410   5.168  14.694  0.00  0.00    +0.000 NA
ATOM     13  N   UNL     1       6.419   4.416  14.185  0.00  0.00    +0.000 N 
ATOM     14  C   UNL     1       6.548   3.835  12.871  0.00  0.00    +0.000 C 
ATOM     15  C   UNL     1       5.352   4.274  15.028  0.00  0.00    +0.000 A 
ENDBRANCH   7  10
BRANCH   1  17
ATOM     16  N   UNL     1       1.190   9.335  19.108  0.00  0.00    +0.000 N 
ATOM     17  C   UNL     1       1.984   8.457  18.399  0.00  0.00    +0.000 C 
ATOM     18  O   UNL     1       2.386   8.730  17.272  0.00  0.00    +0.000 OA
ATOM     19  H   UNL     1       0.905   9.105  20.046  0.00  0.00    +0.000 HD
BRANCH  16  21
ATOM     20  C   UNL     1       2.044  11.593  18.606  0.00  0.00    +0.000 C 
ATOM     21  C   UNL     1       0.831  10.658  18.616  0.00  0.00    +0.000 C 
BRANCH  21  22
ATOM     22  C   UNL     1      -0.301  11.232  19.453  0.00  0.00    +0.000 A 
ATOM     23  C   UNL     1      -0.198  11.241  20.854  0.00  0.00    +0.000 A 
ATOM     24  C   UNL     1      -1.211  11.795  21.641  0.00  0.00    +0.000 A 
ATOM     25  C   UNL     1      -2.335  12.348  21.035  0.00  0.00    +0.000 A 
ATOM     26 CL   UNL     1      -3.567  13.060  22.002  0.00  0.00    +0.000 Cl
ATOM     27  C   UNL     1      -2.465  12.337  19.649  0.00  0.00    +0.000 A 
ATOM     28  C   UNL     1      -1.455  11.778  18.861  0.00  0.00    +0.000 A 
ENDBRANCH  21  22
ENDBRANCH  16  21
ENDBRANCH   1  17
TORSDOF 4
ENDMDL
MODEL 6
REMARK VINA RESULT:      -7.6      1.660      1.956
REMARK  Name = 
REMARK  6 active torsions:
REMARK  status: ('A' for Active; 'I' for Inactive)
REMARK    1  A    between atoms: C_1  and  C_2
REMARK    2  A    between atoms: C_2  and  N_3
REMARK    3  A    between atoms: C_2  and  C_21
REMARK    4  A    between atoms: C_4  and  C_6
REMARK    5  A    between atoms: C_12  and  C_13
REMARK    6  A    between atoms: N_16  and  C_17
REMARK                            x       y       z     vdW  Elec       q    Type
REMARK                         _______ _______ _______ _____ _____    ______ ____
ROOT
ATOM      1  C   UNL     1       2.124   5.591  19.708  0.00  0.00    +0.000 A 
ATOM      2  C   UNL     1       1.315   4.700  20.394  0.00  0.00    +0.000 A 
ATOM      3  N   UNL     1       1.568   3.400  20.064  0.00  0.00    +0.000 NA
ATOM      4  C   UNL     1       2.520   3.461  19.164  0.00  0.00    +0.000 A 
ATOM      5  C   UNL     1       3.206   2.420  18.488  0.00  0.00    +0.000 A 
ATOM      6  C   UNL     1       4.147   2.720  17.574  0.00  0.00    +0.000 A 
ATOM      7  C   UNL     1       4.497   4.104  17.232  0.00  0.00    +0.000 A 
ATOM      8  C   UNL     1       3.850   5.084  17.906  0.00  0.00    +0.000 A 
ATOM      9  N   UNL     1       2.882   4.776  18.870  0.00  0.00    +0.000 N 
ENDROOT
BRANCH   7  10
ATOM     10  C   UNL     1       5.494   4.369  16.236  0.00  0.00    +0.000 A 
ATOM     11  C   UNL     1       6.742   5.020  16.376  0.00  0.00    +0.000 A 
ATOM     12  N   UNL     1       7.412   5.097  15.221  0.00  0.00    +0.000 NA
ATOM     13  N   UNL     1       6.593   4.494  14.342  0.00  0.00    +0.000 N 
ATOM     14  C   UNL     1       6.982   4.359  12.960  0.00  0.00    +0.000 C 
ATOM     15  C   UNL     1       5.429   4.044  14.900  0.00  0.00    +0.000 A 
ENDBRANCH   7  10
BRANCH   1  17
ATOM     16  N   UNL     1       1.396   7.599  20.774  0.00  0.00    +0.000 N 
ATOM     17  C   UNL     1       2.211   7.033  19.815  0.00  0.00    +0.000 C 
ATOM     18  O   UNL     1       2.960   7.722  19.129  0.00  0.00    +0.000 OA
ATOM     19  H   UNL     1       0.820   7.008  21.351  0.00  0.00    +0.000 HD
BRANCH  16  21
ATOM     20  C   UNL     1       1.162   9.258  22.583  0.00  0.00    +0.000 C 
ATOM     21  C   UNL     1       1.409   9.020  21.091  0.00  0.00    +0.000 C 
BRANCH  21  22
ATOM     22  C   UNL     1       0.382   9.750  20.239  0.00  0.00    +0.000 A 
ATOM     23  C   UNL     1       0.336   9.523  18.854  0.00  0.00    +0.000 A 
ATOM     24  C   UNL     1      -0.622  10.155  18.058  0.00  0.00    +0.000 A 
ATOM     25  C   UNL     1      -1.544  11.021  18.640  0.00  0.00    +0.000 A 
ATOM     26 CL   UNL     1      -2.745  11.776  17.664  0.00  0.00    +0.000 Cl
ATOM     27  C   UNL     1      -1.507  11.273  20.008  0.00  0.00    +0.000 A 
ATOM     28  C   UNL     1      -0.546  10.644  20.804  0.00  0.00    +0.000 A 
ENDBRANCH  21  22
ENDBRANCH  16  21
ENDBRANCH   1  17
TORSDOF 4
ENDMDL
MODEL 7
REMARK VINA RESULT:      -7.5      6.619      9.800
REMARK  Name = 
REMARK  6 active torsions:
REMARK  status: ('A' for Active; 'I' for Inactive)
REMARK    1  A    between atoms: C_1  and  C_2
REMARK    2  A    between atoms: C_2  and  N_3
REMARK    3  A    between atoms: C_2  and  C_21
REMARK    4  A    between atoms: C_4  and  C_6
REMARK    5  A    between atoms: C_12  and  C_13
REMARK    6  A    between atoms: N_16  and  C_17
REMARK                            x       y       z     vdW  Elec       q    Type
REMARK                         _______ _______ _______ _____ _____    ______ ____
ROOT
ATOM      1  C   UNL     1      -5.563  13.232  21.735  0.00  0.00    +0.000 A 
ATOM      2  C   UNL     1      -6.675  14.037  21.918  0.00  0.00    +0.000 A 
ATOM      3  N   UNL     1      -7.390  14.214  20.769  0.00  0.00    +0.000 NA
ATOM      4  C   UNL     1      -6.732  13.540  19.856  0.00  0.00    +0.000 A 
ATOM      5  C   UNL     1      -7.025  13.335  18.484  0.00  0.00    +0.000 A 
ATOM      6  C   UNL     1      -6.184  12.614  17.720  0.00  0.00    +0.000 A 
ATOM      7  C   UNL     1      -4.949  12.025  18.251  0.00  0.00    +0.000 A 
ATOM      8  C   UNL     1      -4.700  12.209  19.568  0.00  0.00    +0.000 A 
ATOM      9  N   UNL     1      -5.581  12.944  20.371  0.00  0.00    +0.000 N 
ENDROOT
BRANCH   7  10
ATOM     10  C   UNL     1      -4.078  11.281  17.388  0.00  0.00    +0.000 A 
ATOM     11  C   UNL     1      -2.915  10.545  17.715  0.00  0.00    +0.000 A 
ATOM     12  N   UNL     1      -2.346   9.983  16.643  0.00  0.00    +0.000 NA
ATOM     13  N   UNL     1      -3.146  10.359  15.630  0.00  0.00    +0.000 N 
ATOM     14  C   UNL     1      -2.866   9.924  14.283  0.00  0.00    +0.000 C 
ATOM     15  C   UNL     1      -4.195  11.141  16.024  0.00  0.00    +0.000 A 
ENDBRANCH   7  10
BRANCH   1  17
ATOM     16  N   UNL     1      -3.276  12.848  22.303  0.00  0.00    +0.000 N 
ATOM     17  C   UNL     1      -4.594  12.759  22.702  0.00  0.00    +0.000 C 
ATOM     18  O   UNL     1      -4.895  12.323  23.809  0.00  0.00    +0.000 OA
ATOM     19  H   UNL     1      -3.053  13.246  21.405  0.00  0.00    +0.000 HD
BRANCH  16  21
ATOM     20  C   UNL     1      -1.352  13.752  23.551  0.00  0.00    +0.000 C 
ATOM     21  C   UNL     1      -2.157  12.507  23.170  0.00  0.00    +0.000 C 
BRANCH  21  22
ATOM     22  C   UNL     1      -1.277  11.466  22.494  0.00  0.00    +0.000 A 
ATOM     23  C   UNL     1      -0.767  10.393  23.243  0.00  0.00    +0.000 A 
ATOM     24  C   UNL     1       0.014   9.406  22.636  0.00  0.00    +0.000 A 
ATOM     25  C   UNL     1       0.292   9.483  21.274  0.00  0.00    +0.000 A 
ATOM     26 CL   UNL     1       1.227   8.251  20.519  0.00  0.00    +0.000 Cl
ATOM     27  C   UNL     1      -0.191  10.547  20.516  0.00  0.00    +0.000 A 
ATOM     28  C   UNL     1      -0.968  11.536  21.124  0.00  0.00    +0.000 A 
ENDBRANCH  21  22
ENDBRANCH  16  21
ENDBRANCH   1  17
TORSDOF 4
ENDMDL
MODEL 8
REMARK VINA RESULT:      -7.3      1.424      1.765
REMARK  Name = 
REMARK  6 active torsions:
REMARK  status: ('A' for Active; 'I' for Inactive)
REMARK    1  A    between atoms: C_1  and  C_2
REMARK    2  A    between atoms: C_2  and  N_3
REMARK    3  A    between atoms: C_2  and  C_21
REMARK    4  A    between atoms: C_4  and  C_6
REMARK    5  A    between atoms: C_12  and  C_13
REMARK    6  A    between atoms: N_16  and  C_17
REMARK                            x       y       z     vdW  Elec       q    Type
REMARK                         _______ _______ _______ _____ _____    ______ ____
ROOT
ATOM      1  C   UNL     1       1.289   8.650  19.632  0.00  0.00    +0.000 A 
ATOM      2  C   UNL     1       0.781   8.299  20.873  0.00  0.00    +0.000 A 
ATOM      3  N   UNL     1       1.288   7.117  21.332  0.00  0.00    +0.000 NA
ATOM      4  C   UNL     1       2.102   6.710  20.387  0.00  0.00    +0.000 A 
ATOM      5  C   UNL     1       2.932   5.563  20.328  0.00  0.00    +0.000 A 
ATOM      6  C   UNL     1       3.679   5.331  19.232  0.00  0.00    +0.000 A 
ATOM      7  C   UNL     1       3.665   6.225  18.069  0.00  0.00    +0.000 A 
ATOM      8  C   UNL     1       2.886   7.329  18.154  0.00  0.00    +0.000 A 
ATOM      9  N   UNL     1       2.121   7.583  19.299  0.00  0.00    +0.000 N 
ENDROOT
BRANCH   7  10
ATOM     10  C   UNL     1       4.465   5.922  16.918  0.00  0.00    +0.000 A 
ATOM     11  C   UNL     1       5.075   6.806  15.998  0.00  0.00    +0.000 A 
ATOM     12  N   UNL     1       5.743   6.162  15.034  0.00  0.00    +0.000 NA
ATOM     13  N   UNL     1       5.563   4.865  15.340  0.00  0.00    +0.000 N 
ATOM     14  C   UNL     1       6.162   3.836  14.526  0.00  0.00    +0.000 C 
ATOM     15  C   UNL     1       4.801   4.668  16.458  0.00  0.00    +0.000 A 
ENDBRANCH   7  10
BRANCH   1  17
ATOM     16  N   UNL     1      -0.209  10.381  18.957  0.00  0.00    +0.000 N 
ATOM     17  C   UNL     1       1.054   9.840  18.841  0.00  0.00    +0.000 C 
ATOM     18  O   UNL     1       1.906  10.360  18.125  0.00  0.00    +0.000 OA
ATOM     19  H   UNL     1      -0.878   9.959  19.581  0.00  0.00    +0.000 HD
BRANCH  16  21
ATOM     20  C   UNL     1      -0.067  12.840  19.070  0.00  0.00    +0.000 C 
ATOM     21  C   UNL     1      -0.605  11.625  18.310  0.00  0.00    +0.000 C 
BRANCH  21  22
ATOM     22  C   UNL     1      -2.119  11.682  18.180  0.00  0.00    +0.000 A 
ATOM     23  C   UNL     1      -2.730  11.292  16.977  0.00  0.00    +0.000 A 
ATOM     24  C   UNL     1      -4.122  11.303  16.847  0.00  0.00    +0.000 A 
ATOM     25  C   UNL     1      -4.915  11.703  17.919  0.00  0.00    +0.000 A 
ATOM     26 CL   UNL     1      -6.629  11.686  17.769  0.00  0.00    +0.000 Cl
ATOM     27  C   UNL     1      -4.329  12.109  19.114  0.00  0.00    +0.000 A 
ATOM     28  C   UNL     1      -2.938  12.102  19.244  0.00  0.00    +0.000 A 
ENDBRANCH  21  22
ENDBRANCH  16  21
ENDBRANCH   1  17
TORSDOF 4
ENDMDL
MODEL 9
REMARK VINA RESULT:      -7.3      3.780      8.518
REMARK  Name = 
REMARK  6 active torsions:
REMARK  status: ('A' for Active; 'I' for Inactive)
REMARK    1  A    between atoms: C_1  and  C_2
REMARK    2  A    between atoms: C_2  and  N_3
REMARK    3  A    between atoms: C_2  and  C_21
REMARK    4  A    between atoms: C_4  and  C_6
REMARK    5  A    between atoms: C_12  and  C_13
REMARK    6  A    between atoms: N_16  and  C_17
REMARK                            x       y       z     vdW  Elec       q    Type
REMARK                         _______ _______ _______ _____ _____    ______ ____
ROOT
ATOM      1  C   UNL     1       1.475   8.385  20.670  0.00  0.00    +0.000 A 
ATOM      2  C   UNL     1       1.998   8.793  21.887  0.00  0.00    +0.000 A 
ATOM      3  N   UNL     1       1.391   9.917  22.368  0.00  0.00    +0.000 NA
ATOM      4  C   UNL     1       0.498  10.233  21.461  0.00  0.00    +0.000 A 
ATOM      5  C   UNL     1      -0.450  11.287  21.440  0.00  0.00    +0.000 A 
ATOM      6  C   UNL     1      -1.264  11.435  20.379  0.00  0.00    +0.000 A 
ATOM      7  C   UNL     1      -1.209  10.542  19.215  0.00  0.00    +0.000 A 
ATOM      8  C   UNL     1      -0.316   9.526  19.265  0.00  0.00    +0.000 A 
ATOM      9  N   UNL     1       0.522   9.358  20.375  0.00  0.00    +0.000 N 
ENDROOT
BRANCH   7  10
ATOM     10  C   UNL     1      -2.087  10.756  18.102  0.00  0.00    +0.000 A 
ATOM     11  C   UNL     1      -3.258  11.547  18.030  0.00  0.00    +0.000 A 
ATOM     12  N   UNL     1      -3.832  11.502  16.822  0.00  0.00    +0.000 NA
ATOM     13  N   UNL     1      -3.027  10.684  16.121  0.00  0.00    +0.000 N 
ATOM     14  C   UNL     1      -3.309  10.397  14.737  0.00  0.00    +0.000 C 
ATOM     15  C   UNL     1      -1.969  10.208  16.845  0.00  0.00    +0.000 A 
ENDBRANCH   7  10
BRANCH   1  17
ATOM     16  N   UNL     1       1.868   6.033  20.563  0.00  0.00    +0.000 N 
ATOM     17  C   UNL     1       1.797   7.223  19.868  0.00  0.00    +0.000 C 
ATOM     18  O   UNL     1       1.980   7.263  18.655  0.00  0.00    +0.000 OA
ATOM     19  H   UNL     1       1.676   6.021  21.551  0.00  0.00    +0.000 HD
BRANCH  16  21
ATOM     20  C   UNL     1       2.097   3.608  20.940  0.00  0.00    +0.000 C 
ATOM     21  C   UNL     1       2.090   4.747  19.918  0.00  0.00    +0.000 C 
BRANCH  21  22
ATOM     22  C   UNL     1       3.388   4.783  19.124  0.00  0.00    +0.000 A 
ATOM     23  C   UNL     1       3.391   4.394  17.775  0.00  0.00    +0.000 A 
ATOM     24  C   UNL     1       4.563   4.453  17.017  0.00  0.00    +0.000 A 
ATOM     25  C   UNL     1       5.744   4.902  17.602  0.00  0.00    +0.000 A 
ATOM     26 CL   UNL     1       7.181   5.004  16.661  0.00  0.00    +0.000 Cl
ATOM     27  C   UNL     1       5.767   5.277  18.942  0.00  0.00    +0.000 A 
ATOM     28  C   UNL     1       4.596   5.214  19.701  0.00  0.00    +0.000 A 
ENDBRANCH  21  22
ENDBRANCH  16  21
ENDBRANCH   1  17
TORSDOF 4
ENDMDL
