MODEL 1
REMARK VINA RESULT:      -9.8      0.000      0.000
REMARK  Name = 
REMARK  8 active torsions:
REMARK  status: ('A' for Active; 'I' for Inactive)
REMARK    1  A    between atoms: C_1  and  C_2
REMARK    2  A    between atoms: C_7  and  N_8
REMARK    3  A    between atoms: C_9  and  C_11
REMARK    4  A    between atoms: C_11  and  C_12
REMARK    5  A    between atoms: C_11  and  C_13
REMARK    6  A    between atoms: C_16  and  N_17
REMARK    7  A    between atoms: N_17  and  C_18
REMARK    8  A    between atoms: C_23  and  C_24
REMARK                            x       y       z     vdW  Elec       q    Type
REMARK                         _______ _______ _______ _____ _____    ______ ____
ROOT
ATOM      1  C   UNL     1       0.907   9.963  19.438  0.00  0.00    +0.000 A 
ATOM      2  C   UNL     1       1.265   8.809  20.175  0.00  0.00    +0.000 A 
ATOM      3  C   UNL     1       2.088   7.755  19.665  0.00  0.00    +0.000 A 
ATOM      4  C   UNL     1       2.576   7.799  18.369  0.00  0.00    +0.000 A 
ATOM      5  C   UNL     1       2.189   8.939  17.611  0.00  0.00    +0.000 A 
ATOM      6  C   UNL     1       1.372   9.992  18.121  0.00  0.00    +0.000 A 
ENDROOT
BRANCH   1   7
ATOM      7  C   UNL     1      -0.011  11.034  20.076  0.00  0.00    +0.000 C 
ATOM      8  C   UNL     1      -0.578  10.755  21.486  0.00  0.00    +0.000 C 
BRANCH   7  10
ATOM      9  N   UNL     1      -2.274  10.933  19.014  0.00  0.00    +0.000 N 
ATOM     10  C   UNL     1      -1.135  11.667  19.223  0.00  0.00    +0.000 C 
ATOM     11  O   UNL     1      -1.013  12.839  18.855  0.00  0.00    +0.000 OA
ATOM     12  H   UNL     1      -2.512  10.261  19.731  0.00  0.00    +0.000 HD
BRANCH   9  19
ATOM     13  C   UNL     1      -2.846  10.586  15.996  0.00  0.00    +0.000 C 
ATOM     14  C   UNL     1      -3.708  11.290  16.997  0.00  0.00    +0.000 A 
ATOM     15  C   UNL     1      -4.919  11.834  16.517  0.00  0.00    +0.000 A 
ATOM     16  C   UNL     1      -5.810  12.457  17.389  0.00  0.00    +0.000 A 
ATOM     17  C   UNL     1      -5.466  12.491  18.725  0.00  0.00    +0.000 A 
ATOM     18  N   UNL     1      -4.323  11.968  19.228  0.00  0.00    +0.000 NA
ATOM     19  C   UNL     1      -3.437  11.417  18.362  0.00  0.00    +0.000 A 
ENDBRANCH   9  19
ENDBRANCH   7  10
ENDBRANCH   1   7
BRANCH   4  20
ATOM     20  N   UNL     1       3.674   7.018  17.839  0.00  0.00    +0.000 N 
ATOM     21  H   UNL     1       4.229   7.011  18.715  0.00  0.00    +0.000 HD
BRANCH  20  22
ATOM     22  C   UNL     1       3.983   5.577  17.379  0.00  0.00    +0.000 A 
ATOM     23  C   UNL     1       5.293   5.326  17.778  0.00  0.00    +0.000 A 
ATOM     24  C   UNL     1       5.351   4.946  19.109  0.00  0.00    +0.000 A 
ATOM     25  N   UNL     1       4.229   4.640  19.821  0.00  0.00    +0.000 NA
ATOM     26  C   UNL     1       3.123   4.337  19.114  0.00  0.00    +0.000 A 
ATOM     27  C   UNL     1       2.199   3.455  19.631  0.00  0.00    +0.000 A 
ATOM     28  C   UNL     1       1.940   2.276  18.926  0.00  0.00    +0.000 A 
ATOM     29  C   UNL     1       2.491   2.116  17.666  0.00  0.00    +0.000 A 
ATOM     30  C   UNL     1       3.060   3.238  17.049  0.00  0.00    +0.000 A 
ATOM     31  C   UNL     1       3.194   4.479  17.757  0.00  0.00    +0.000 A 
BRANCH  27  32
ATOM     32  C   UNL     1       1.531   3.810  20.908  0.00  0.00    +0.000 C 
ATOM     33  F   UNL     1       0.695   2.848  21.392  0.00  0.00    +0.000 F 
ATOM     34  F   UNL     1       2.450   3.998  21.906  0.00  0.00    +0.000 F 
ATOM     35  F   UNL     1       0.814   4.960  20.848  0.00  0.00    +0.000 F 
ENDBRANCH  27  32
ENDBRANCH  20  22
ENDBRANCH   4  20
TORSDOF 6
ENDMDL
MODEL 2
REMARK VINA RESULT:      -9.7      0.594      1.415
REMARK  Name = 
REMARK  8 active torsions:
REMARK  status: ('A' for Active; 'I' for Inactive)
REMARK    1  A    between atoms: C_1  and  C_2
REMARK    2  A    between atoms: C_7  and  N_8
REMARK    3  A    between atoms: C_9  and  C_11
REMARK    4  A    between atoms: C_11  and  C_12
REMARK    5  A    between atoms: C_11  and  C_13
REMARK    6  A    between atoms: C_16  and  N_17
REMARK    7  A    between atoms: N_17  and  C_18
REMARK    8  A    between atoms: C_23  and  C_24
REMARK                            x       y       z     vdW  Elec       q    Type
REMARK                         _______ _______ _______ _____ _____    ______ ____
ROOT
ATOM      1  C   UNL     1       0.886  10.013  19.511  0.00  0.00    +0.000 A 
ATOM      2  C   UNL     1       1.272   8.852  20.221  0.00  0.00    +0.000 A 
ATOM      3  C   UNL     1       2.090   7.812  19.674  0.00  0.00    +0.000 A 
ATOM      4  C   UNL     1       2.543   7.879  18.367  0.00  0.00    +0.000 A 
ATOM      5  C   UNL     1       2.127   9.027  17.636  0.00  0.00    +0.000 A 
ATOM      6  C   UNL     1       1.315  10.065  18.183  0.00  0.00    +0.000 A 
ENDROOT
BRANCH   1   7
ATOM      7  C   UNL     1      -0.024  11.067  20.188  0.00  0.00    +0.000 C 
ATOM      8  C   UNL     1      -0.549  10.765  21.610  0.00  0.00    +0.000 C 
BRANCH   7  10
ATOM      9  N   UNL     1      -2.332  10.980  19.228  0.00  0.00    +0.000 N 
ATOM     10  C   UNL     1      -1.176  11.702  19.375  0.00  0.00    +0.000 C 
ATOM     11  O   UNL     1      -1.056  12.867  18.983  0.00  0.00    +0.000 OA
ATOM     12  H   UNL     1      -2.547  10.321  19.965  0.00  0.00    +0.000 HD
BRANCH   9  19
ATOM     13  C   UNL     1      -4.452  12.699  20.679  0.00  0.00    +0.000 C 
ATOM     14  C   UNL     1      -4.498  12.230  19.259  0.00  0.00    +0.000 A 
ATOM     15  C   UNL     1      -5.616  12.631  18.495  0.00  0.00    +0.000 A 
ATOM     16  C   UNL     1      -5.713  12.288  17.148  0.00  0.00    +0.000 A 
ATOM     17  C   UNL     1      -4.668  11.571  16.602  0.00  0.00    +0.000 A 
ATOM     18  N   UNL     1      -3.573  11.180  17.295  0.00  0.00    +0.000 NA
ATOM     19  C   UNL     1      -3.516  11.468  18.619  0.00  0.00    +0.000 A 
ENDBRANCH   9  19
ENDBRANCH   7  10
ENDBRANCH   1   7
BRANCH   4  20
ATOM     20  N   UNL     1       3.633   7.114  17.798  0.00  0.00    +0.000 N 
ATOM     21  H   UNL     1       4.228   7.134  18.646  0.00  0.00    +0.000 HD
BRANCH  20  22
ATOM     22  C   UNL     1       3.954   5.674  17.344  0.00  0.00    +0.000 A 
ATOM     23  C   UNL     1       5.267   5.437  17.741  0.00  0.00    +0.000 A 
ATOM     24  C   UNL     1       5.333   5.065  19.074  0.00  0.00    +0.000 A 
ATOM     25  N   UNL     1       4.216   4.753  19.791  0.00  0.00    +0.000 NA
ATOM     26  C   UNL     1       3.110   4.436  19.089  0.00  0.00    +0.000 A 
ATOM     27  C   UNL     1       2.196   3.549  19.614  0.00  0.00    +0.000 A 
ATOM     28  C   UNL     1       1.945   2.364  18.917  0.00  0.00    +0.000 A 
ATOM     29  C   UNL     1       2.494   2.201  17.656  0.00  0.00    +0.000 A 
ATOM     30  C   UNL     1       3.050   3.325  17.030  0.00  0.00    +0.000 A 
ATOM     31  C   UNL     1       3.175   4.571  17.731  0.00  0.00    +0.000 A 
BRANCH  27  32
ATOM     32  C   UNL     1       1.528   3.905  20.891  0.00  0.00    +0.000 C 
ATOM     33  F   UNL     1       0.735   5.011  20.822  0.00  0.00    +0.000 F 
ATOM     34  F   UNL     1       0.684   2.905  21.298  0.00  0.00    +0.000 F 
ATOM     35  F   UNL     1       2.388   4.102  21.921  0.00  0.00    +0.000 F 
ENDBRANCH  27  32
ENDBRANCH  20  22
ENDBRANCH   4  20
TORSDOF 6
ENDMDL
MODEL 3
REMARK VINA RESULT:      -9.4      2.701      3.683
REMARK  Name = 
REMARK  8 active torsions:
REMARK  status: ('A' for Active; 'I' for Inactive)
REMARK    1  A    between atoms: C_1  and  C_2
REMARK    2  A    between atoms: C_7  and  N_8
REMARK    3  A    between atoms: C_9  and  C_11
REMARK    4  A    between atoms: C_11  and  C_12
REMARK    5  A    between atoms: C_11  and  C_13
REMARK    6  A    between atoms: C_16  and  N_17
REMARK    7  A    between atoms: N_17  and  C_18
REMARK    8  A    between atoms: C_23  and  C_24
REMARK                            x       y       z     vdW  Elec       q    Type
REMARK                         _______ _______ _______ _____ _____    ______ ____
ROOT
ATOM      1  C   UNL     1       1.388  10.137  18.990  0.00  0.00    +0.000 A 
ATOM      2  C   UNL     1       1.135   9.287  20.092  0.00  0.00    +0.000 A 
ATOM      3  C   UNL     1       1.466   7.894  20.124  0.00  0.00    +0.000 A 
ATOM      4  C   UNL     1       2.051   7.278  19.029  0.00  0.00    +0.000 A 
ATOM      5  C   UNL     1       2.274   8.120  17.904  0.00  0.00    +0.000 A 
ATOM      6  C   UNL     1       1.948   9.510  17.874  0.00  0.00    +0.000 A 
ENDROOT
BRANCH   1   7
ATOM      7  C   UNL     1       0.967  11.626  19.048  0.00  0.00    +0.000 C 
ATOM      8  C   UNL     1       1.174  12.385  20.378  0.00  0.00    +0.000 C 
BRANCH   7  10
ATOM      9  N   UNL     1      -1.445  11.162  18.571  0.00  0.00    +0.000 N 
ATOM     10  C   UNL     1      -0.401  12.045  18.463  0.00  0.00    +0.000 C 
ATOM     11  O   UNL     1      -0.533  13.190  18.020  0.00  0.00    +0.000 OA
ATOM     12  H   UNL     1      -1.413  10.525  19.356  0.00  0.00    +0.000 HD
BRANCH   9  19
ATOM     13  C   UNL     1      -2.651  10.502  15.803  0.00  0.00    +0.000 C 
ATOM     14  C   UNL     1      -3.345  11.174  16.946  0.00  0.00    +0.000 A 
ATOM     15  C   UNL     1      -4.698  11.525  16.747  0.00  0.00    +0.000 A 
ATOM     16  C   UNL     1      -5.438  12.103  17.776  0.00  0.00    +0.000 A 
ATOM     17  C   UNL     1      -4.800  12.288  18.986  0.00  0.00    +0.000 A 
ATOM     18  N   UNL     1      -3.510  11.952  19.223  0.00  0.00    +0.000 NA
ATOM     19  C   UNL     1      -2.783  11.444  18.196  0.00  0.00    +0.000 A 
ENDBRANCH   9  19
ENDBRANCH   7  10
ENDBRANCH   1   7
BRANCH   4  20
ATOM     20  N   UNL     1       2.747   6.010  19.031  0.00  0.00    +0.000 N 
ATOM     21  H   UNL     1       2.938   5.994  18.012  0.00  0.00    +0.000 HD
BRANCH  20  22
ATOM     22  C   UNL     1       4.082   5.396  19.507  0.00  0.00    +0.000 A 
ATOM     23  C   UNL     1       3.812   4.054  19.756  0.00  0.00    +0.000 A 
ATOM     24  C   UNL     1       3.850   3.306  18.591  0.00  0.00    +0.000 A 
ATOM     25  N   UNL     1       4.327   3.818  17.420  0.00  0.00    +0.000 NA
ATOM     26  C   UNL     1       5.112   4.910  17.509  0.00  0.00    +0.000 A 
ATOM     27  C   UNL     1       6.101   5.120  16.574  0.00  0.00    +0.000 A 
ATOM     28  C   UNL     1       7.428   5.178  17.012  0.00  0.00    +0.000 A 
ATOM     29  C   UNL     1       7.682   5.187  18.373  0.00  0.00    +0.000 A 
ATOM     30  C   UNL     1       6.604   5.403  19.243  0.00  0.00    +0.000 A 
ATOM     31  C   UNL     1       5.260   5.472  18.746  0.00  0.00    +0.000 A 
BRANCH  27  32
ATOM     32  C   UNL     1       5.701   5.275  15.153  0.00  0.00    +0.000 C 
ATOM     33  F   UNL     1       4.974   6.399  14.892  0.00  0.00    +0.000 F 
ATOM     34  F   UNL     1       6.800   5.385  14.343  0.00  0.00    +0.000 F 
ATOM     35  F   UNL     1       4.990   4.226  14.668  0.00  0.00    +0.000 F 
ENDBRANCH  27  32
ENDBRANCH  20  22
ENDBRANCH   4  20
TORSDOF 6
ENDMDL
MODEL 4
REMARK VINA RESULT:      -9.3      2.726      4.201
REMARK  Name = 
REMARK  8 active torsions:
REMARK  status: ('A' for Active; 'I' for Inactive)
REMARK    1  A    between atoms: C_1  and  C_2
REMARK    2  A    between atoms: C_7  and  N_8
REMARK    3  A    between atoms: C_9  and  C_11
REMARK    4  A    between atoms: C_11  and  C_12
REMARK    5  A    between atoms: C_11  and  C_13
REMARK    6  A    between atoms: C_16  and  N_17
REMARK    7  A    between atoms: N_17  and  C_18
REMARK    8  A    between atoms: C_23  and  C_24
REMARK                            x       y       z     vdW  Elec       q    Type
REMARK                         _______ _______ _______ _____ _____    ______ ____
ROOT
ATOM      1  C   UNL     1       0.760  10.002  19.514  0.00  0.00    +0.000 A 
ATOM      2  C   UNL     1       1.110   8.903  20.334  0.00  0.00    +0.000 A 
ATOM      3  C   UNL     1       1.919   7.804  19.900  0.00  0.00    +0.000 A 
ATOM      4  C   UNL     1       2.398   7.745  18.601  0.00  0.00    +0.000 A 
ATOM      5  C   UNL     1       2.017   8.829  17.761  0.00  0.00    +0.000 A 
ATOM      6  C   UNL     1       1.215   9.926  18.196  0.00  0.00    +0.000 A 
ENDROOT
BRANCH   1   7
ATOM      7  C   UNL     1      -0.143  11.128  20.075  0.00  0.00    +0.000 C 
ATOM      8  C   UNL     1      -1.568  11.272  19.493  0.00  0.00    +0.000 C 
BRANCH   7  10
ATOM      9  N   UNL     1       1.754  12.651  20.657  0.00  0.00    +0.000 N 
ATOM     10  C   UNL     1       0.446  12.546  20.257  0.00  0.00    +0.000 C 
ATOM     11  O   UNL     1      -0.240  13.521  19.938  0.00  0.00    +0.000 OA
ATOM     12  H   UNL     1       2.364  11.888  20.398  0.00  0.00    +0.000 HD
BRANCH   9  19
ATOM     13  C   UNL     1       3.154  14.034  18.273  0.00  0.00    +0.000 C 
ATOM     14  C   UNL     1       3.129  14.504  19.693  0.00  0.00    +0.000 A 
ATOM     15  C   UNL     1       3.798  15.717  19.971  0.00  0.00    +0.000 A 
ATOM     16  C   UNL     1       3.779  16.258  21.254  0.00  0.00    +0.000 A 
ATOM     17  C   UNL     1       3.064  15.576  22.217  0.00  0.00    +0.000 A 
ATOM     18  N   UNL     1       2.397  14.419  21.989  0.00  0.00    +0.000 NA
ATOM     19  C   UNL     1       2.472  13.871  20.751  0.00  0.00    +0.000 A 
ENDBRANCH   9  19
ENDBRANCH   7  10
ENDBRANCH   1   7
BRANCH   4  20
ATOM     20  N   UNL     1       3.484   6.914  18.125  0.00  0.00    +0.000 N 
ATOM     21  H   UNL     1       3.858   6.684  19.064  0.00  0.00    +0.000 HD
BRANCH  20  22
ATOM     22  C   UNL     1       3.715   5.540  17.460  0.00  0.00    +0.000 A 
ATOM     23  C   UNL     1       5.083   5.303  17.550  0.00  0.00    +0.000 A 
ATOM     24  C   UNL     1       5.428   4.794  18.791  0.00  0.00    +0.000 A 
ATOM     25  N   UNL     1       4.487   4.375  19.685  0.00  0.00    +0.000 NA
ATOM     26  C   UNL     1       3.262   4.100  19.195  0.00  0.00    +0.000 A 
ATOM     27  C   UNL     1       2.484   3.135  19.797  0.00  0.00    +0.000 A 
ATOM     28  C   UNL     1       2.104   2.022  19.040  0.00  0.00    +0.000 A 
ATOM     29  C   UNL     1       2.379   2.011  17.684  0.00  0.00    +0.000 A 
ATOM     30  C   UNL     1       2.784   3.211  17.084  0.00  0.00    +0.000 A 
ATOM     31  C   UNL     1       3.042   4.380  17.876  0.00  0.00    +0.000 A 
BRANCH  27  32
ATOM     32  C   UNL     1       2.094   3.334  21.215  0.00  0.00    +0.000 C 
ATOM     33  F   UNL     1       0.832   2.914  21.515  0.00  0.00    +0.000 F 
ATOM     34  F   UNL     1       2.902   2.610  22.052  0.00  0.00    +0.000 F 
ATOM     35  F   UNL     1       2.191   4.620  21.633  0.00  0.00    +0.000 F 
ENDBRANCH  27  32
ENDBRANCH  20  22
ENDBRANCH   4  20
TORSDOF 6
ENDMDL
MODEL 5
REMARK VINA RESULT:      -9.3      2.527      3.556
REMARK  Name = 
REMARK  8 active torsions:
REMARK  status: ('A' for Active; 'I' for Inactive)
REMARK    1  A    between atoms: C_1  and  C_2
REMARK    2  A    between atoms: C_7  and  N_8
REMARK    3  A    between atoms: C_9  and  C_11
REMARK    4  A    between atoms: C_11  and  C_12
REMARK    5  A    between atoms: C_11  and  C_13
REMARK    6  A    between atoms: C_16  and  N_17
REMARK    7  A    between atoms: N_17  and  C_18
REMARK    8  A    between atoms: C_23  and  C_24
REMARK                            x       y       z     vdW  Elec       q    Type
REMARK                         _______ _______ _______ _____ _____    ______ ____
ROOT
ATOM      1  C   UNL     1       0.895   9.905  19.388  0.00  0.00    +0.000 A 
ATOM      2  C   UNL     1       1.248   8.786  20.179  0.00  0.00    +0.000 A 
ATOM      3  C   UNL     1       2.064   7.703  19.720  0.00  0.00    +0.000 A 
ATOM      4  C   UNL     1       2.549   7.681  18.422  0.00  0.00    +0.000 A 
ATOM      5  C   UNL     1       2.166   8.785  17.610  0.00  0.00    +0.000 A 
ATOM      6  C   UNL     1       1.356   9.867  18.070  0.00  0.00    +0.000 A 
ENDROOT
BRANCH   1   7
ATOM      7  C   UNL     1      -0.016  11.011  19.975  0.00  0.00    +0.000 C 
ATOM      8  C   UNL     1      -1.470  11.101  19.459  0.00  0.00    +0.000 C 
BRANCH   7  10
ATOM      9  N   UNL     1       0.506  13.255  18.999  0.00  0.00    +0.000 N 
ATOM     10  C   UNL     1       0.536  12.449  20.109  0.00  0.00    +0.000 C 
ATOM     11  O   UNL     1       0.880  12.853  21.224  0.00  0.00    +0.000 OA
ATOM     12  H   UNL     1      -0.221  13.061  18.324  0.00  0.00    +0.000 HD
BRANCH   9  19
ATOM     13  C   UNL     1       3.362  14.312  18.464  0.00  0.00    +0.000 C 
ATOM     14  C   UNL     1       2.146  15.129  18.771  0.00  0.00    +0.000 A 
ATOM     15  C   UNL     1       2.316  16.530  18.799  0.00  0.00    +0.000 A 
ATOM     16  C   UNL     1       1.228  17.371  19.021  0.00  0.00    +0.000 A 
ATOM     17  C   UNL     1      -0.007  16.777  19.183  0.00  0.00    +0.000 A 
ATOM     18  N   UNL     1      -0.215  15.439  19.148  0.00  0.00    +0.000 NA
ATOM     19  C   UNL     1       0.860  14.628  18.991  0.00  0.00    +0.000 A 
ENDBRANCH   9  19
ENDBRANCH   7  10
ENDBRANCH   1   7
BRANCH   4  20
ATOM     20  N   UNL     1       3.640   6.869  17.929  0.00  0.00    +0.000 N 
ATOM     21  H   UNL     1       4.119   6.772  18.843  0.00  0.00    +0.000 HD
BRANCH  20  22
ATOM     22  C   UNL     1       3.905   5.444  17.396  0.00  0.00    +0.000 A 
ATOM     23  C   UNL     1       5.238   5.173  17.690  0.00  0.00    +0.000 A 
ATOM     24  C   UNL     1       5.391   4.745  18.998  0.00  0.00    +0.000 A 
ATOM     25  N   UNL     1       4.322   4.419  19.780  0.00  0.00    +0.000 NA
ATOM     26  C   UNL     1       3.164   4.147  19.146  0.00  0.00    +0.000 A 
ATOM     27  C   UNL     1       2.275   3.252  19.697  0.00  0.00    +0.000 A 
ATOM     28  C   UNL     1       1.956   2.100  18.972  0.00  0.00    +0.000 A 
ATOM     29  C   UNL     1       2.412   1.982  17.670  0.00  0.00    +0.000 A 
ATOM     30  C   UNL     1       2.943   3.123  17.053  0.00  0.00    +0.000 A 
ATOM     31  C   UNL     1       3.137   4.337  17.793  0.00  0.00    +0.000 A 
BRANCH  27  32
ATOM     32  C   UNL     1       1.704   3.564  21.032  0.00  0.00    +0.000 C 
ATOM     33  F   UNL     1       2.588   3.449  22.063  0.00  0.00    +0.000 F 
ATOM     34  F   UNL     1       1.279   4.865  21.090  0.00  0.00    +0.000 F 
ATOM     35  F   UNL     1       0.624   2.809  21.354  0.00  0.00    +0.000 F 
ENDBRANCH  27  32
ENDBRANCH  20  22
ENDBRANCH   4  20
TORSDOF 6
ENDMDL
MODEL 6
REMARK VINA RESULT:      -9.2      2.642      4.077
REMARK  Name = 
REMARK  8 active torsions:
REMARK  status: ('A' for Active; 'I' for Inactive)
REMARK    1  A    between atoms: C_1  and  C_2
REMARK    2  A    between atoms: C_7  and  N_8
REMARK    3  A    between atoms: C_9  and  C_11
REMARK    4  A    between atoms: C_11  and  C_12
REMARK    5  A    between atoms: C_11  and  C_13
REMARK    6  A    between atoms: C_16  and  N_17
REMARK    7  A    between atoms: N_17  and  C_18
REMARK    8  A    between atoms: C_23  and  C_24
REMARK                            x       y       z     vdW  Elec       q    Type
REMARK                         _______ _______ _______ _____ _____    ______ ____
ROOT
ATOM      1  C   UNL     1       0.662   9.804  19.583  0.00  0.00    +0.000 A 
ATOM      2  C   UNL     1       1.177   8.720  20.332  0.00  0.00    +0.000 A 
ATOM      3  C   UNL     1       2.041   7.712  19.796  0.00  0.00    +0.000 A 
ATOM      4  C   UNL     1       2.412   7.732  18.461  0.00  0.00    +0.000 A 
ATOM      5  C   UNL     1       1.867   8.799  17.693  0.00  0.00    +0.000 A 
ATOM      6  C   UNL     1       1.010   9.807  18.230  0.00  0.00    +0.000 A 
ENDROOT
BRANCH   1   7
ATOM      7  C   UNL     1      -0.287  10.827  20.253  0.00  0.00    +0.000 C 
ATOM      8  C   UNL     1      -1.476  11.364  19.425  0.00  0.00    +0.000 C 
BRANCH   7  10
ATOM      9  N   UNL     1       1.151  12.871  20.380  0.00  0.00    +0.000 N 
ATOM     10  C   UNL     1       0.318  12.009  21.046  0.00  0.00    +0.000 C 
ATOM     11  O   UNL     1      -0.050  12.195  22.210  0.00  0.00    +0.000 OA
ATOM     12  H   UNL     1       0.993  12.967  19.385  0.00  0.00    +0.000 HD
BRANCH   9  19
ATOM     13  C   UNL     1      -0.292  15.605  20.335  0.00  0.00    +0.000 C 
ATOM     14  C   UNL     1       1.061  15.314  20.904  0.00  0.00    +0.000 A 
ATOM     15  C   UNL     1       1.742  16.397  21.503  0.00  0.00    +0.000 A 
ATOM     16  C   UNL     1       2.981  16.206  22.109  0.00  0.00    +0.000 A 
ATOM     17  C   UNL     1       3.489  14.923  22.117  0.00  0.00    +0.000 A 
ATOM     18  N   UNL     1       2.863  13.856  21.569  0.00  0.00    +0.000 NA
ATOM     19  C   UNL     1       1.685  14.064  20.930  0.00  0.00    +0.000 A 
ENDBRANCH   9  19
ENDBRANCH   7  10
ENDBRANCH   1   7
BRANCH   4  20
ATOM     20  N   UNL     1       3.523   7.018  17.870  0.00  0.00    +0.000 N 
ATOM     21  H   UNL     1       4.143   7.085  18.698  0.00  0.00    +0.000 HD
BRANCH  20  22
ATOM     22  C   UNL     1       3.909   5.588  17.431  0.00  0.00    +0.000 A 
ATOM     23  C   UNL     1       5.216   5.398  17.870  0.00  0.00    +0.000 A 
ATOM     24  C   UNL     1       5.252   5.030  19.205  0.00  0.00    +0.000 A 
ATOM     25  N   UNL     1       4.124   4.682  19.888  0.00  0.00    +0.000 NA
ATOM     26  C   UNL     1       3.053   4.325  19.152  0.00  0.00    +0.000 A 
ATOM     27  C   UNL     1       2.154   3.408  19.650  0.00  0.00    +0.000 A 
ATOM     28  C   UNL     1       1.967   2.213  18.948  0.00  0.00    +0.000 A 
ATOM     29  C   UNL     1       2.560   2.068  17.706  0.00  0.00    +0.000 A 
ATOM     30  C   UNL     1       3.097   3.209  17.095  0.00  0.00    +0.000 A 
ATOM     31  C   UNL     1       3.157   4.460  17.796  0.00  0.00    +0.000 A 
BRANCH  27  32
ATOM     32  C   UNL     1       1.434   3.742  20.904  0.00  0.00    +0.000 C 
ATOM     33  F   UNL     1       0.827   2.680  21.505  0.00  0.00    +0.000 F 
ATOM     34  F   UNL     1       2.299   4.222  21.852  0.00  0.00    +0.000 F 
ATOM     35  F   UNL     1       0.487   4.702  20.751  0.00  0.00    +0.000 F 
ENDBRANCH  27  32
ENDBRANCH  20  22
ENDBRANCH   4  20
TORSDOF 6
ENDMDL
MODEL 7
REMARK VINA RESULT:      -9.1      6.848     10.239
REMARK  Name = 
REMARK  8 active torsions:
REMARK  status: ('A' for Active; 'I' for Inactive)
REMARK    1  A    between atoms: C_1  and  C_2
REMARK    2  A    between atoms: C_7  and  N_8
REMARK    3  A    between atoms: C_9  and  C_11
REMARK    4  A    between atoms: C_11  and  C_12
REMARK    5  A    between atoms: C_11  and  C_13
REMARK    6  A    between atoms: C_16  and  N_17
REMARK    7  A    between atoms: N_17  and  C_18
REMARK    8  A    between atoms: C_23  and  C_24
REMARK                            x       y       z     vdW  Elec       q    Type
REMARK                         _______ _______ _______ _____ _____    ______ ____
ROOT
ATOM      1  C   UNL     1       7.153   6.168  17.873  0.00  0.00    +0.000 A 
ATOM      2  C   UNL     1       6.681   7.266  17.117  0.00  0.00    +0.000 A 
ATOM      3  C   UNL     1       7.177   8.603  17.246  0.00  0.00    +0.000 A 
ATOM      4  C   UNL     1       8.165   8.907  18.169  0.00  0.00    +0.000 A 
ATOM      5  C   UNL     1       8.618   7.813  18.959  0.00  0.00    +0.000 A 
ATOM      6  C   UNL     1       8.126   6.480  18.826  0.00  0.00    +0.000 A 
ENDROOT
BRANCH   1   7
ATOM      7  C   UNL     1       6.530   4.765  17.673  0.00  0.00    +0.000 C 
ATOM      8  C   UNL     1       6.216   4.310  16.230  0.00  0.00    +0.000 C 
BRANCH   7  10
ATOM      9  N   UNL     1       4.093   4.731  18.238  0.00  0.00    +0.000 N 
ATOM     10  C   UNL     1       5.357   4.325  18.580  0.00  0.00    +0.000 C 
ATOM     11  O   UNL     1       5.584   3.544  19.509  0.00  0.00    +0.000 OA
ATOM     12  H   UNL     1       3.926   4.898  17.255  0.00  0.00    +0.000 HD
BRANCH   9  19
ATOM     13  C   UNL     1       2.555   2.136  17.564  0.00  0.00    +0.000 C 
ATOM     14  C   UNL     1       2.184   3.156  18.593  0.00  0.00    +0.000 A 
ATOM     15  C   UNL     1       1.021   2.896  19.351  0.00  0.00    +0.000 A 
ATOM     16  C   UNL     1       0.631   3.763  20.370  0.00  0.00    +0.000 A 
ATOM     17  C   UNL     1       1.439   4.854  20.614  0.00  0.00    +0.000 A 
ATOM     18  N   UNL     1       2.569   5.131  19.922  0.00  0.00    +0.000 NA
ATOM     19  C   UNL     1       2.907   4.313  18.894  0.00  0.00    +0.000 A 
ENDBRANCH   9  19
ENDBRANCH   7  10
ENDBRANCH   1   7
BRANCH   4  20
ATOM     20  N   UNL     1       8.996  10.092  18.175  0.00  0.00    +0.000 N 
ATOM     21  H   UNL     1       8.220  10.764  18.028  0.00  0.00    +0.000 HD
BRANCH  20  22
ATOM     22  C   UNL     1       9.832  10.942  19.156  0.00  0.00    +0.000 A 
ATOM     23  C   UNL     1      11.015  11.237  18.484  0.00  0.00    +0.000 A 
ATOM     24  C   UNL     1      10.857  12.319  17.634  0.00  0.00    +0.000 A 
ATOM     25  N   UNL     1       9.742  13.104  17.665  0.00  0.00    +0.000 NA
ATOM     26  C   UNL     1       8.990  13.049  18.782  0.00  0.00    +0.000 A 
ATOM     27  C   UNL     1       8.281  14.159  19.185  0.00  0.00    +0.000 A 
ATOM     28  C   UNL     1       8.575  14.717  20.433  0.00  0.00    +0.000 A 
ATOM     29  C   UNL     1       9.440  14.045  21.279  0.00  0.00    +0.000 A 
ATOM     30  C   UNL     1       9.775  12.721  20.962  0.00  0.00    +0.000 A 
ATOM     31  C   UNL     1       9.346  12.129  19.727  0.00  0.00    +0.000 A 
BRANCH  27  32
ATOM     32  C   UNL     1       7.244  14.698  18.271  0.00  0.00    +0.000 C 
ATOM     33  F   UNL     1       6.630  13.757  17.499  0.00  0.00    +0.000 F 
ATOM     34  F   UNL     1       6.223  15.279  18.976  0.00  0.00    +0.000 F 
ATOM     35  F   UNL     1       7.702  15.659  17.430  0.00  0.00    +0.000 F 
ENDBRANCH  27  32
ENDBRANCH  20  22
ENDBRANCH   4  20
TORSDOF 6
ENDMDL
MODEL 8
REMARK VINA RESULT:      -9.1      2.801      3.885
REMARK  Name = 
REMARK  8 active torsions:
REMARK  status: ('A' for Active; 'I' for Inactive)
REMARK    1  A    between atoms: C_1  and  C_2
REMARK    2  A    between atoms: C_7  and  N_8
REMARK    3  A    between atoms: C_9  and  C_11
REMARK    4  A    between atoms: C_11  and  C_12
REMARK    5  A    between atoms: C_11  and  C_13
REMARK    6  A    between atoms: C_16  and  N_17
REMARK    7  A    between atoms: N_17  and  C_18
REMARK    8  A    between atoms: C_23  and  C_24
REMARK                            x       y       z     vdW  Elec       q    Type
REMARK                         _______ _______ _______ _____ _____    ______ ____
ROOT
ATOM      1  C   UNL     1       1.212  10.126  19.267  0.00  0.00    +0.000 A 
ATOM      2  C   UNL     1       1.212   9.166  20.306  0.00  0.00    +0.000 A 
ATOM      3  C   UNL     1       1.681   7.821  20.156  0.00  0.00    +0.000 A 
ATOM      4  C   UNL     1       2.155   7.367  18.936  0.00  0.00    +0.000 A 
ATOM      5  C   UNL     1       2.122   8.317  17.877  0.00  0.00    +0.000 A 
ATOM      6  C   UNL     1       1.658   9.659  18.029  0.00  0.00    +0.000 A 
ENDROOT
BRANCH   1   7
ATOM      7  C   UNL     1       0.657  11.548  19.528  0.00  0.00    +0.000 C 
ATOM      8  C   UNL     1       0.619  12.054  20.987  0.00  0.00    +0.000 C 
BRANCH   7  10
ATOM      9  N   UNL     1      -1.758  11.186  18.984  0.00  0.00    +0.000 N 
ATOM     10  C   UNL     1      -0.653  11.985  18.833  0.00  0.00    +0.000 C 
ATOM     11  O   UNL     1      -0.688  13.079  18.263  0.00  0.00    +0.000 OA
ATOM     12  H   UNL     1      -1.803  10.640  19.834  0.00  0.00    +0.000 HD
BRANCH   9  19
ATOM     13  C   UNL     1      -3.897  12.658  20.662  0.00  0.00    +0.000 C 
ATOM     14  C   UNL     1      -4.047  12.155  19.260  0.00  0.00    +0.000 A 
ATOM     15  C   UNL     1      -5.287  12.396  18.630  0.00  0.00    +0.000 A 
ATOM     16  C   UNL     1      -5.495  12.013  17.307  0.00  0.00    +0.000 A 
ATOM     17  C   UNL     1      -4.438  11.421  16.647  0.00  0.00    +0.000 A 
ATOM     18  N   UNL     1      -3.229  11.186  17.209  0.00  0.00    +0.000 NA
ATOM     19  C   UNL     1      -3.057  11.509  18.515  0.00  0.00    +0.000 A 
ENDBRANCH   9  19
ENDBRANCH   7  10
ENDBRANCH   1   7
BRANCH   4  20
ATOM     20  N   UNL     1       2.967   6.189  18.717  0.00  0.00    +0.000 N 
ATOM     21  H   UNL     1       3.406   6.527  17.841  0.00  0.00    +0.000 HD
BRANCH  20  22
ATOM     22  C   UNL     1       4.201   5.478  19.314  0.00  0.00    +0.000 A 
ATOM     23  C   UNL     1       3.779   4.190  19.628  0.00  0.00    +0.000 A 
ATOM     24  C   UNL     1       3.804   3.365  18.516  0.00  0.00    +0.000 A 
ATOM     25  N   UNL     1       4.397   3.745  17.349  0.00  0.00    +0.000 NA
ATOM     26  C   UNL     1       5.286   4.756  17.420  0.00  0.00    +0.000 A 
ATOM     27  C   UNL     1       6.344   4.801  16.538  0.00  0.00    +0.000 A 
ATOM     28  C   UNL     1       7.642   4.754  17.055  0.00  0.00    +0.000 A 
ATOM     29  C   UNL     1       7.818   4.831  18.426  0.00  0.00    +0.000 A 
ATOM     30  C   UNL     1       6.721   5.213  19.211  0.00  0.00    +0.000 A 
ATOM     31  C   UNL     1       5.421   5.383  18.626  0.00  0.00    +0.000 A 
BRANCH  27  32
ATOM     32  C   UNL     1       6.043   4.899  15.088  0.00  0.00    +0.000 C 
ATOM     33  F   UNL     1       7.144   5.007  14.291  0.00  0.00    +0.000 F 
ATOM     34  F   UNL     1       5.409   3.769  14.642  0.00  0.00    +0.000 F 
ATOM     35  F   UNL     1       5.223   5.931  14.768  0.00  0.00    +0.000 F 
ENDBRANCH  27  32
ENDBRANCH  20  22
ENDBRANCH   4  20
TORSDOF 6
ENDMDL
MODEL 9
REMARK VINA RESULT:      -9.1      2.815      4.037
REMARK  Name = 
REMARK  8 active torsions:
REMARK  status: ('A' for Active; 'I' for Inactive)
REMARK    1  A    between atoms: C_1  and  C_2
REMARK    2  A    between atoms: C_7  and  N_8
REMARK    3  A    between atoms: C_9  and  C_11
REMARK    4  A    between atoms: C_11  and  C_12
REMARK    5  A    between atoms: C_11  and  C_13
REMARK    6  A    between atoms: C_16  and  N_17
REMARK    7  A    between atoms: N_17  and  C_18
REMARK    8  A    between atoms: C_23  and  C_24
REMARK                            x       y       z     vdW  Elec       q    Type
REMARK                         _______ _______ _______ _____ _____    ______ ____
ROOT
ATOM      1  C   UNL     1       1.056  10.113  19.349  0.00  0.00    +0.000 A 
ATOM      2  C   UNL     1       1.189   8.963  20.162  0.00  0.00    +0.000 A 
ATOM      3  C   UNL     1       1.923   7.793  19.784  0.00  0.00    +0.000 A 
ATOM      4  C   UNL     1       2.544   7.713  18.548  0.00  0.00    +0.000 A 
ATOM      5  C   UNL     1       2.381   8.852  17.711  0.00  0.00    +0.000 A 
ATOM      6  C   UNL     1       1.653  10.020  18.090  0.00  0.00    +0.000 A 
ENDROOT
BRANCH   1   7
ATOM      7  C   UNL     1       0.217  11.317  19.843  0.00  0.00    +0.000 C 
ATOM      8  C   UNL     1      -1.307  11.119  20.007  0.00  0.00    +0.000 C 
BRANCH   7  10
ATOM      9  N   UNL     1       1.607  13.375  19.549  0.00  0.00    +0.000 N 
ATOM     10  C   UNL     1       0.455  12.710  19.216  0.00  0.00    +0.000 C 
ATOM     11  O   UNL     1      -0.337  13.123  18.365  0.00  0.00    +0.000 OA
ATOM     12  H   UNL     1       2.400  12.800  19.802  0.00  0.00    +0.000 HD
BRANCH   9  19
ATOM     13  C   UNL     1       0.489  16.148  20.336  0.00  0.00    +0.000 C 
ATOM     14  C   UNL     1       1.524  15.861  19.294  0.00  0.00    +0.000 A 
ATOM     15  C   UNL     1       2.061  16.975  18.612  0.00  0.00    +0.000 A 
ATOM     16  C   UNL     1       3.070  16.808  17.666  0.00  0.00    +0.000 A 
ATOM     17  C   UNL     1       3.527  15.523  17.452  0.00  0.00    +0.000 A 
ATOM     18  N   UNL     1       3.050  14.431  18.094  0.00  0.00    +0.000 NA
ATOM     19  C   UNL     1       2.028  14.599  18.969  0.00  0.00    +0.000 A 
ENDBRANCH   9  19
ENDBRANCH   7  10
ENDBRANCH   1   7
BRANCH   4  20
ATOM     20  N   UNL     1       3.584   6.781  18.170  0.00  0.00    +0.000 N 
ATOM     21  H   UNL     1       3.822   6.492  19.137  0.00  0.00    +0.000 HD
BRANCH  20  22
ATOM     22  C   UNL     1       3.746   5.405  17.490  0.00  0.00    +0.000 A 
ATOM     23  C   UNL     1       5.103   5.104  17.564  0.00  0.00    +0.000 A 
ATOM     24  C   UNL     1       5.435   4.568  18.797  0.00  0.00    +0.000 A 
ATOM     25  N   UNL     1       4.485   4.183  19.696  0.00  0.00    +0.000 NA
ATOM     26  C   UNL     1       3.244   3.969  19.215  0.00  0.00    +0.000 A 
ATOM     27  C   UNL     1       2.428   3.035  19.815  0.00  0.00    +0.000 A 
ATOM     28  C   UNL     1       1.990   1.949  19.051  0.00  0.00    +0.000 A 
ATOM     29  C   UNL     1       2.252   1.938  17.692  0.00  0.00    +0.000 A 
ATOM     30  C   UNL     1       2.707   3.125  17.100  0.00  0.00    +0.000 A 
ATOM     31  C   UNL     1       3.025   4.272  17.901  0.00  0.00    +0.000 A 
BRANCH  27  32
ATOM     32  C   UNL     1       2.060   3.237  21.238  0.00  0.00    +0.000 C 
ATOM     33  F   UNL     1       2.006   4.542  21.626  0.00  0.00    +0.000 F 
ATOM     34  F   UNL     1       0.804   2.753  21.493  0.00  0.00    +0.000 F 
ATOM     35  F   UNL     1       2.883   2.602  22.110  0.00  0.00    +0.000 F 
ENDBRANCH  27  32
ENDBRANCH  20  22
ENDBRANCH   4  20
TORSDOF 6
ENDMDL
