MODEL 1
REMARK VINA RESULT:      -7.4      0.000      0.000
REMARK  Name = 
REMARK  10 active torsions:
REMARK  status: ('A' for Active; 'I' for Inactive)
REMARK    1  A    between atoms: C_1  and  O_2
REMARK    2  A    between atoms: O_2  and  C_3
REMARK    3  A    between atoms: C_5  and  C_6
REMARK    4  A    between atoms: C_8  and  O_9
REMARK    5  A    between atoms: C_17  and  C_18
REMARK    6  A    between atoms: N_20  and  C_21
REMARK    7  A    between atoms: C_25  and  C_26
REMARK    8  A    between atoms: C_29  and  O_30
REMARK    9  A    between atoms: O_30  and  C_31
REMARK   10  A    between atoms: C_32  and  O_33
REMARK                            x       y       z     vdW  Elec       q    Type
REMARK                         _______ _______ _______ _____ _____    ______ ____
ROOT
ATOM      1  C   UNL     1      -0.297  11.946  18.753  0.00  0.00    +0.000 C 
ATOM      2  C   UNL     1       0.061  13.096  19.682  0.00  0.00    +0.000 C 
ATOM      3  C   UNL     1       1.320  13.498  19.939  0.00  0.00    +0.000 C 
ATOM      4  C   UNL     1       1.719  14.505  20.966  0.00  0.00    +0.000 C 
ATOM      5  C   UNL     1       0.621  15.326  21.612  0.00  0.00    +0.000 C 
ATOM      6  C   UNL     1      -0.809  14.876  21.401  0.00  0.00    +0.000 C 
ATOM      7  C   UNL     1      -1.085  13.763  20.402  0.00  0.00    +0.000 C 
ATOM      8  N   UNL     1      -2.347  13.478  20.251  0.00  0.00    +0.000 NA
ATOM      9  C   UNL     1      -2.655  12.498  19.365  0.00  0.00    +0.000 A 
ATOM     10  C   UNL     1      -1.767  11.758  18.622  0.00  0.00    +0.000 A 
ATOM     11  C   UNL     1      -2.553  10.873  17.854  0.00  0.00    +0.000 A 
ATOM     12  C   UNL     1      -2.118   9.859  16.858  0.00  0.00    +0.000 C 
ATOM     13  N   UNL     1      -3.852  11.011  18.128  0.00  0.00    +0.000 NA
ATOM     14  N   UNL     1      -3.931  12.016  19.057  0.00  0.00    +0.000 N 
ENDROOT
BRANCH  14  15
ATOM     15  C   UNL     1      -5.210  12.419  19.551  0.00  0.00    +0.000 A 
ATOM     16  C   UNL     1      -6.217  12.879  18.694  0.00  0.00    +0.000 A 
ATOM     17  C   UNL     1      -7.463  13.245  19.202  0.00  0.00    +0.000 A 
ATOM     18  C   UNL     1      -7.718  13.173  20.570  0.00  0.00    +0.000 A 
ATOM     19  C   UNL     1      -6.722  12.737  21.448  0.00  0.00    +0.000 A 
ATOM     20  C   UNL     1      -6.973  12.694  22.927  0.00  0.00    +0.000 C 
ATOM     21  C   UNL     1      -5.478  12.347  20.932  0.00  0.00    +0.000 A 
ENDBRANCH  14  15
BRANCH   1  24
ATOM     22  C   UNL     1       1.729   8.706  19.148  0.00  0.00    +0.000 A 
ATOM     23  C   UNL     1       1.145   9.846  18.591  0.00  0.00    +0.000 A 
ATOM     24  C   UNL     1       0.191  10.604  19.288  0.00  0.00    +0.000 A 
ATOM     25  C   UNL     1      -0.250  10.120  20.527  0.00  0.00    +0.000 A 
ATOM     26  C   UNL     1       0.308   8.971  21.108  0.00  0.00    +0.000 A 
ATOM     27  C   UNL     1       1.325   8.283  20.424  0.00  0.00    +0.000 A 
BRANCH  22  29
ATOM     28  C   UNL     1       2.621   6.762  18.058  0.00  0.00    +0.000 C 
ATOM     29  O   UNL     1       2.657   8.155  18.307  0.00  0.00    +0.000 OA
ENDBRANCH  22  29
BRANCH  26  30
ATOM     30  O   UNL     1      -0.248   8.706  22.331  0.00  0.00    +0.000 OA
ATOM     31  C   UNL     1      -0.371   9.741  23.291  0.00  0.00    +0.000 C 
ENDBRANCH  26  30
BRANCH  27  32
ATOM     32  O   UNL     1       1.941   7.207  20.999  0.00  0.00    +0.000 OA
ATOM     33  H   UNL     1       2.405   6.754  20.276  0.00  0.00    +0.000 HD
ENDBRANCH  27  32
ENDBRANCH   1  24
BRANCH   3  34
ATOM     34  O   UNL     1       2.429  12.967  19.298  0.00  0.00    +0.000 OA
ATOM     35  H   UNL     1       2.655  13.474  18.502  0.00  0.00    +0.000 HD
ENDBRANCH   3  34
TORSDOF 6
ENDMDL
MODEL 2
REMARK VINA RESULT:      -7.4      3.243      6.827
REMARK  Name = 
REMARK  10 active torsions:
REMARK  status: ('A' for Active; 'I' for Inactive)
REMARK    1  A    between atoms: C_1  and  O_2
REMARK    2  A    between atoms: O_2  and  C_3
REMARK    3  A    between atoms: C_5  and  C_6
REMARK    4  A    between atoms: C_8  and  O_9
REMARK    5  A    between atoms: C_17  and  C_18
REMARK    6  A    between atoms: N_20  and  C_21
REMARK    7  A    between atoms: C_25  and  C_26
REMARK    8  A    between atoms: C_29  and  O_30
REMARK    9  A    between atoms: O_30  and  C_31
REMARK   10  A    between atoms: C_32  and  O_33
REMARK                            x       y       z     vdW  Elec       q    Type
REMARK                         _______ _______ _______ _____ _____    ______ ____
ROOT
ATOM      1  C   UNL     1      -0.082  12.812  21.425  0.00  0.00    +0.000 C 
ATOM      2  C   UNL     1       0.646  13.671  20.402  0.00  0.00    +0.000 C 
ATOM      3  C   UNL     1       0.552  15.012  20.336  0.00  0.00    +0.000 C 
ATOM      4  C   UNL     1       1.114  15.872  19.252  0.00  0.00    +0.000 C 
ATOM      5  C   UNL     1       2.073  15.229  18.269  0.00  0.00    +0.000 C 
ATOM      6  C   UNL     1       2.166  13.718  18.266  0.00  0.00    +0.000 C 
ATOM      7  C   UNL     1       1.462  12.939  19.366  0.00  0.00    +0.000 C 
ATOM      8  N   UNL     1       1.640  11.650  19.309  0.00  0.00    +0.000 NA
ATOM      9  C   UNL     1       1.041  10.903  20.270  0.00  0.00    +0.000 A 
ATOM     10  C   UNL     1       0.247  11.367  21.291  0.00  0.00    +0.000 A 
ATOM     11  C   UNL     1      -0.138  10.226  22.027  0.00  0.00    +0.000 A 
ATOM     12  C   UNL     1      -0.980  10.142  23.249  0.00  0.00    +0.000 C 
ATOM     13  N   UNL     1       0.343   9.108  21.480  0.00  0.00    +0.000 NA
ATOM     14  N   UNL     1       1.079   9.511  20.396  0.00  0.00    +0.000 N 
ENDROOT
BRANCH  14  15
ATOM     15  C   UNL     1       1.746   8.533  19.596  0.00  0.00    +0.000 A 
ATOM     16  C   UNL     1       2.103   8.791  18.266  0.00  0.00    +0.000 A 
ATOM     17  C   UNL     1       2.774   7.826  17.516  0.00  0.00    +0.000 A 
ATOM     18  C   UNL     1       3.082   6.586  18.072  0.00  0.00    +0.000 A 
ATOM     19  C   UNL     1       2.717   6.297  19.390  0.00  0.00    +0.000 A 
ATOM     20  C   UNL     1       3.009   4.950  19.985  0.00  0.00    +0.000 C 
ATOM     21  C   UNL     1       2.064   7.278  20.150  0.00  0.00    +0.000 A 
ENDBRANCH  14  15
BRANCH   1  24
ATOM     22  C   UNL     1      -3.570  12.385  19.871  0.00  0.00    +0.000 A 
ATOM     23  C   UNL     1      -2.186  12.518  20.010  0.00  0.00    +0.000 A 
ATOM     24  C   UNL     1      -1.595  12.855  21.237  0.00  0.00    +0.000 A 
ATOM     25  C   UNL     1      -2.444  13.168  22.307  0.00  0.00    +0.000 A 
ATOM     26  C   UNL     1      -3.837  13.056  22.197  0.00  0.00    +0.000 A 
ATOM     27  C   UNL     1      -4.396  12.631  20.979  0.00  0.00    +0.000 A 
BRANCH  22  29
ATOM     28  C   UNL     1      -2.913  11.508  17.736  0.00  0.00    +0.000 C 
ATOM     29  O   UNL     1      -3.914  12.012  18.601  0.00  0.00    +0.000 OA
ENDBRANCH  22  29
BRANCH  26  30
ATOM     30  O   UNL     1      -4.462  13.376  23.373  0.00  0.00    +0.000 OA
ATOM     31  C   UNL     1      -4.104  12.706  24.569  0.00  0.00    +0.000 C 
ENDBRANCH  26  30
BRANCH  27  32
ATOM     32  O   UNL     1      -5.744  12.437  20.865  0.00  0.00    +0.000 OA
ATOM     33  H   UNL     1      -6.121  13.314  20.690  0.00  0.00    +0.000 HD
ENDBRANCH  27  32
ENDBRANCH   1  24
BRANCH   3  34
ATOM     34  O   UNL     1      -0.144  15.769  21.267  0.00  0.00    +0.000 OA
ATOM     35  H   UNL     1      -1.035  15.988  20.951  0.00  0.00    +0.000 HD
ENDBRANCH   3  34
TORSDOF 6
ENDMDL
MODEL 3
REMARK VINA RESULT:      -7.3      1.570      2.799
REMARK  Name = 
REMARK  10 active torsions:
REMARK  status: ('A' for Active; 'I' for Inactive)
REMARK    1  A    between atoms: C_1  and  O_2
REMARK    2  A    between atoms: O_2  and  C_3
REMARK    3  A    between atoms: C_5  and  C_6
REMARK    4  A    between atoms: C_8  and  O_9
REMARK    5  A    between atoms: C_17  and  C_18
REMARK    6  A    between atoms: N_20  and  C_21
REMARK    7  A    between atoms: C_25  and  C_26
REMARK    8  A    between atoms: C_29  and  O_30
REMARK    9  A    between atoms: O_30  and  C_31
REMARK   10  A    between atoms: C_32  and  O_33
REMARK                            x       y       z     vdW  Elec       q    Type
REMARK                         _______ _______ _______ _____ _____    ______ ____
ROOT
ATOM      1  C   UNL     1       0.231  12.262  18.541  0.00  0.00    +0.000 C 
ATOM      2  C   UNL     1       1.013  13.497  18.961  0.00  0.00    +0.000 C 
ATOM      3  C   UNL     1       2.296  13.731  18.626  0.00  0.00    +0.000 C 
ATOM      4  C   UNL     1       3.145  14.840  19.154  0.00  0.00    +0.000 C 
ATOM      5  C   UNL     1       2.459  15.939  19.941  0.00  0.00    +0.000 C 
ATOM      6  C   UNL     1       1.035  15.694  20.392  0.00  0.00    +0.000 C 
ATOM      7  C   UNL     1       0.302  14.469  19.869  0.00  0.00    +0.000 C 
ATOM      8  N   UNL     1      -0.933  14.369  20.272  0.00  0.00    +0.000 NA
ATOM      9  C   UNL     1      -1.640  13.299  19.830  0.00  0.00    +0.000 A 
ATOM     10  C   UNL     1      -1.179  12.294  19.014  0.00  0.00    +0.000 A 
ATOM     11  C   UNL     1      -2.269  11.416  18.833  0.00  0.00    +0.000 A 
ATOM     12  C   UNL     1      -2.343  10.171  18.025  0.00  0.00    +0.000 C 
ATOM     13  N   UNL     1      -3.336  11.814  19.528  0.00  0.00    +0.000 NA
ATOM     14  N   UNL     1      -2.964  12.980  20.145  0.00  0.00    +0.000 N 
ENDROOT
BRANCH  14  15
ATOM     15  C   UNL     1      -3.907  13.674  20.965  0.00  0.00    +0.000 A 
ATOM     16  C   UNL     1      -4.194  15.030  20.768  0.00  0.00    +0.000 A 
ATOM     17  C   UNL     1      -5.135  15.676  21.569  0.00  0.00    +0.000 A 
ATOM     18  C   UNL     1      -5.790  14.986  22.588  0.00  0.00    +0.000 A 
ATOM     19  C   UNL     1      -5.504  13.637  22.818  0.00  0.00    +0.000 A 
ATOM     20  C   UNL     1      -6.174  12.896  23.938  0.00  0.00    +0.000 C 
ATOM     21  C   UNL     1      -4.575  12.984  21.995  0.00  0.00    +0.000 A 
ENDBRANCH  14  15
BRANCH   1  24
ATOM     22  C   UNL     1       1.153   9.579  21.131  0.00  0.00    +0.000 A 
ATOM     23  C   UNL     1       0.807  10.803  20.555  0.00  0.00    +0.000 A 
ATOM     24  C   UNL     1       0.792  10.988  19.164  0.00  0.00    +0.000 A 
ATOM     25  C   UNL     1       1.247   9.935  18.360  0.00  0.00    +0.000 A 
ATOM     26  C   UNL     1       1.614   8.697  18.908  0.00  0.00    +0.000 A 
ATOM     27  C   UNL     1       1.534   8.514  20.300  0.00  0.00    +0.000 A 
BRANCH  22  29
ATOM     28  C   UNL     1      -0.223   9.586  23.098  0.00  0.00    +0.000 C 
ATOM     29  O   UNL     1       1.058   9.621  22.495  0.00  0.00    +0.000 OA
ENDBRANCH  22  29
BRANCH  26  30
ATOM     30  O   UNL     1       1.990   7.808  17.937  0.00  0.00    +0.000 OA
ATOM     31  C   UNL     1       3.360   7.504  17.749  0.00  0.00    +0.000 C 
ENDBRANCH  26  30
BRANCH  27  32
ATOM     32  O   UNL     1       1.810   7.297  20.855  0.00  0.00    +0.000 OA
ATOM     33  H   UNL     1       1.251   6.659  20.381  0.00  0.00    +0.000 HD
ENDBRANCH  27  32
ENDBRANCH   1  24
BRANCH   3  34
ATOM     34  O   UNL     1       3.016  12.912  17.768  0.00  0.00    +0.000 OA
ATOM     35  H   UNL     1       2.608  12.874  16.889  0.00  0.00    +0.000 HD
ENDBRANCH   3  34
TORSDOF 6
ENDMDL
MODEL 4
REMARK VINA RESULT:      -7.3      3.234      7.248
REMARK  Name = 
REMARK  10 active torsions:
REMARK  status: ('A' for Active; 'I' for Inactive)
REMARK    1  A    between atoms: C_1  and  O_2
REMARK    2  A    between atoms: O_2  and  C_3
REMARK    3  A    between atoms: C_5  and  C_6
REMARK    4  A    between atoms: C_8  and  O_9
REMARK    5  A    between atoms: C_17  and  C_18
REMARK    6  A    between atoms: N_20  and  C_21
REMARK    7  A    between atoms: C_25  and  C_26
REMARK    8  A    between atoms: C_29  and  O_30
REMARK    9  A    between atoms: O_30  and  C_31
REMARK   10  A    between atoms: C_32  and  O_33
REMARK                            x       y       z     vdW  Elec       q    Type
REMARK                         _______ _______ _______ _____ _____    ______ ____
ROOT
ATOM      1  C   UNL     1      -0.084  12.437  21.365  0.00  0.00    +0.000 C 
ATOM      2  C   UNL     1       0.605  13.313  20.330  0.00  0.00    +0.000 C 
ATOM      3  C   UNL     1       0.467  14.650  20.258  0.00  0.00    +0.000 C 
ATOM      4  C   UNL     1       0.989  15.521  19.163  0.00  0.00    +0.000 C 
ATOM      5  C   UNL     1       1.957  14.904  18.173  0.00  0.00    +0.000 C 
ATOM      6  C   UNL     1       2.100  13.397  18.177  0.00  0.00    +0.000 C 
ATOM      7  C   UNL     1       1.433  12.602  19.289  0.00  0.00    +0.000 C 
ATOM      8  N   UNL     1       1.652  11.319  19.237  0.00  0.00    +0.000 NA
ATOM      9  C   UNL     1       1.088  10.559  20.210  0.00  0.00    +0.000 A 
ATOM     10  C   UNL     1       0.291  11.003  21.236  0.00  0.00    +0.000 A 
ATOM     11  C   UNL     1      -0.049   9.855  21.983  0.00  0.00    +0.000 A 
ATOM     12  C   UNL     1      -0.875   9.750  23.214  0.00  0.00    +0.000 C 
ATOM     13  N   UNL     1       0.462   8.750  21.437  0.00  0.00    +0.000 NA
ATOM     14  N   UNL     1       1.173   9.170  20.343  0.00  0.00    +0.000 N 
ENDROOT
BRANCH  14  15
ATOM     15  C   UNL     1       1.862   8.209  19.541  0.00  0.00    +0.000 A 
ATOM     16  C   UNL     1       2.266   8.499  18.231  0.00  0.00    +0.000 A 
ATOM     17  C   UNL     1       2.958   7.550  17.480  0.00  0.00    +0.000 A 
ATOM     18  C   UNL     1       3.242   6.295  18.014  0.00  0.00    +0.000 A 
ATOM     19  C   UNL     1       2.831   5.974  19.311  0.00  0.00    +0.000 A 
ATOM     20  C   UNL     1       3.096   4.611  19.881  0.00  0.00    +0.000 C 
ATOM     21  C   UNL     1       2.157   6.939  20.073  0.00  0.00    +0.000 A 
ENDBRANCH  14  15
BRANCH   1  24
ATOM     22  C   UNL     1      -3.827  12.966  22.053  0.00  0.00    +0.000 A 
ATOM     23  C   UNL     1      -2.453  12.800  22.244  0.00  0.00    +0.000 A 
ATOM     24  C   UNL     1      -1.599  12.431  21.194  0.00  0.00    +0.000 A 
ATOM     25  C   UNL     1      -2.181  12.120  19.957  0.00  0.00    +0.000 A 
ATOM     26  C   UNL     1      -3.558  12.265  19.736  0.00  0.00    +0.000 A 
ATOM     27  C   UNL     1      -4.376  12.722  20.785  0.00  0.00    +0.000 A 
BRANCH  22  29
ATOM     28  C   UNL     1      -4.131  12.717  24.421  0.00  0.00    +0.000 C 
ATOM     29  O   UNL     1      -4.449  13.366  23.203  0.00  0.00    +0.000 OA
ENDBRANCH  22  29
BRANCH  26  30
ATOM     30  O   UNL     1      -3.898  11.941  18.450  0.00  0.00    +0.000 OA
ATOM     31  C   UNL     1      -2.900  11.509  17.542  0.00  0.00    +0.000 C 
ENDBRANCH  26  30
BRANCH  27  32
ATOM     32  O   UNL     1      -5.707  12.947  20.577  0.00  0.00    +0.000 OA
ATOM     33  H   UNL     1      -6.146  12.096  20.739  0.00  0.00    +0.000 HD
ENDBRANCH  27  32
ENDBRANCH   1  24
BRANCH   3  34
ATOM     34  O   UNL     1      -0.244  15.390  21.192  0.00  0.00    +0.000 OA
ATOM     35  H   UNL     1      -0.727  14.815  21.806  0.00  0.00    +0.000 HD
ENDBRANCH   3  34
TORSDOF 6
ENDMDL
MODEL 5
REMARK VINA RESULT:      -7.3      1.087      1.206
REMARK  Name = 
REMARK  10 active torsions:
REMARK  status: ('A' for Active; 'I' for Inactive)
REMARK    1  A    between atoms: C_1  and  O_2
REMARK    2  A    between atoms: O_2  and  C_3
REMARK    3  A    between atoms: C_5  and  C_6
REMARK    4  A    between atoms: C_8  and  O_9
REMARK    5  A    between atoms: C_17  and  C_18
REMARK    6  A    between atoms: N_20  and  C_21
REMARK    7  A    between atoms: C_25  and  C_26
REMARK    8  A    between atoms: C_29  and  O_30
REMARK    9  A    between atoms: O_30  and  C_31
REMARK   10  A    between atoms: C_32  and  O_33
REMARK                            x       y       z     vdW  Elec       q    Type
REMARK                         _______ _______ _______ _____ _____    ______ ____
ROOT
ATOM      1  C   UNL     1       0.104  11.754  18.328  0.00  0.00    +0.000 C 
ATOM      2  C   UNL     1       0.802  12.923  19.007  0.00  0.00    +0.000 C 
ATOM      3  C   UNL     1       2.115  13.194  18.885  0.00  0.00    +0.000 C 
ATOM      4  C   UNL     1       2.867  14.224  19.662  0.00  0.00    +0.000 C 
ATOM      5  C   UNL     1       2.063  15.214  20.481  0.00  0.00    +0.000 C 
ATOM      6  C   UNL     1       0.594  14.918  20.696  0.00  0.00    +0.000 C 
ATOM      7  C   UNL     1      -0.042  13.772  19.925  0.00  0.00    +0.000 C 
ATOM      8  N   UNL     1      -1.319  13.624  20.137  0.00  0.00    +0.000 NA
ATOM      9  C   UNL     1      -1.942  12.622  19.469  0.00  0.00    +0.000 A 
ATOM     10  C   UNL     1      -1.358  11.729  18.603  0.00  0.00    +0.000 A 
ATOM     11  C   UNL     1      -2.400  10.885  18.162  0.00  0.00    +0.000 A 
ATOM     12  C   UNL     1      -2.343   9.754  17.199  0.00  0.00    +0.000 C 
ATOM     13  N   UNL     1      -3.558  11.193  18.748  0.00  0.00    +0.000 NA
ATOM     14  N   UNL     1      -3.292  12.269  19.554  0.00  0.00    +0.000 N 
ENDROOT
BRANCH  14  15
ATOM     15  C   UNL     1      -4.349  12.854  20.318  0.00  0.00    +0.000 A 
ATOM     16  C   UNL     1      -5.388  13.568  19.708  0.00  0.00    +0.000 A 
ATOM     17  C   UNL     1      -6.418  14.110  20.477  0.00  0.00    +0.000 A 
ATOM     18  C   UNL     1      -6.418  13.962  21.863  0.00  0.00    +0.000 A 
ATOM     19  C   UNL     1      -5.381  13.273  22.496  0.00  0.00    +0.000 A 
ATOM     20  C   UNL     1      -5.352  13.144  23.992  0.00  0.00    +0.000 C 
ATOM     21  C   UNL     1      -4.359  12.709  21.719  0.00  0.00    +0.000 A 
ENDBRANCH  14  15
BRANCH   1  24
ATOM     22  C   UNL     1       1.843   8.334  18.516  0.00  0.00    +0.000 A 
ATOM     23  C   UNL     1       1.237   9.489  18.015  0.00  0.00    +0.000 A 
ATOM     24  C   UNL     1       0.593  10.409  18.855  0.00  0.00    +0.000 A 
ATOM     25  C   UNL     1       0.473  10.083  20.213  0.00  0.00    +0.000 A 
ATOM     26  C   UNL     1       1.059   8.925  20.744  0.00  0.00    +0.000 A 
ATOM     27  C   UNL     1       1.774   8.066  19.891  0.00  0.00    +0.000 A 
BRANCH  22  29
ATOM     28  C   UNL     1       3.850   7.461  17.529  0.00  0.00    +0.000 C 
ATOM     29  O   UNL     1       2.442   7.610  17.522  0.00  0.00    +0.000 OA
ENDBRANCH  22  29
BRANCH  26  30
ATOM     30  O   UNL     1       0.845   8.827  22.094  0.00  0.00    +0.000 OA
ATOM     31  C   UNL     1      -0.175   9.595  22.706  0.00  0.00    +0.000 C 
ENDBRANCH  26  30
BRANCH  27  32
ATOM     32  O   UNL     1       2.421   6.972  20.394  0.00  0.00    +0.000 OA
ATOM     33  H   UNL     1       1.785   6.241  20.335  0.00  0.00    +0.000 HD
ENDBRANCH  27  32
ENDBRANCH   1  24
BRANCH   3  34
ATOM     34  O   UNL     1       2.958  12.491  18.037  0.00  0.00    +0.000 OA
ATOM     35  H   UNL     1       2.948  11.541  18.235  0.00  0.00    +0.000 HD
ENDBRANCH   3  34
TORSDOF 6
ENDMDL
MODEL 6
REMARK VINA RESULT:      -7.2      0.894      2.621
REMARK  Name = 
REMARK  10 active torsions:
REMARK  status: ('A' for Active; 'I' for Inactive)
REMARK    1  A    between atoms: C_1  and  O_2
REMARK    2  A    between atoms: O_2  and  C_3
REMARK    3  A    between atoms: C_5  and  C_6
REMARK    4  A    between atoms: C_8  and  O_9
REMARK    5  A    between atoms: C_17  and  C_18
REMARK    6  A    between atoms: N_20  and  C_21
REMARK    7  A    between atoms: C_25  and  C_26
REMARK    8  A    between atoms: C_29  and  O_30
REMARK    9  A    between atoms: O_30  and  C_31
REMARK   10  A    between atoms: C_32  and  O_33
REMARK                            x       y       z     vdW  Elec       q    Type
REMARK                         _______ _______ _______ _____ _____    ______ ____
ROOT
ATOM      1  C   UNL     1       0.230  12.112  18.625  0.00  0.00    +0.000 C 
ATOM      2  C   UNL     1       0.754  13.328  19.373  0.00  0.00    +0.000 C 
ATOM      3  C   UNL     1       2.038  13.731  19.358  0.00  0.00    +0.000 C 
ATOM      4  C   UNL     1       2.622  14.812  20.206  0.00  0.00    +0.000 C 
ATOM      5  C   UNL     1       1.663  15.698  20.976  0.00  0.00    +0.000 C 
ATOM      6  C   UNL     1       0.219  15.253  21.072  0.00  0.00    +0.000 C 
ATOM      7  C   UNL     1      -0.238  14.068  20.236  0.00  0.00    +0.000 C 
ATOM      8  N   UNL     1      -1.506  13.789  20.347  0.00  0.00    +0.000 NA
ATOM      9  C   UNL     1      -1.973  12.745  19.617  0.00  0.00    +0.000 A 
ATOM     10  C   UNL     1      -1.239  11.936  18.785  0.00  0.00    +0.000 A 
ATOM     11  C   UNL     1      -2.154  11.002  18.252  0.00  0.00    +0.000 A 
ATOM     12  C   UNL     1      -1.911   9.905  17.279  0.00  0.00    +0.000 C 
ATOM     13  N   UNL     1      -3.378  11.181  18.751  0.00  0.00    +0.000 NA
ATOM     14  N   UNL     1      -3.284  12.259  19.592  0.00  0.00    +0.000 N 
ENDROOT
BRANCH  14  15
ATOM     15  C   UNL     1      -4.448  12.719  20.280  0.00  0.00    +0.000 A 
ATOM     16  C   UNL     1      -4.511  12.749  21.679  0.00  0.00    +0.000 A 
ATOM     17  C   UNL     1      -5.653  13.224  22.324  0.00  0.00    +0.000 A 
ATOM     18  C   UNL     1      -6.752  13.659  21.586  0.00  0.00    +0.000 A 
ATOM     19  C   UNL     1      -6.722  13.618  20.190  0.00  0.00    +0.000 A 
ATOM     20  C   UNL     1      -7.916  14.046  19.387  0.00  0.00    +0.000 C 
ATOM     21  C   UNL     1      -5.564  13.163  19.544  0.00  0.00    +0.000 A 
ENDBRANCH  14  15
BRANCH   1  24
ATOM     22  C   UNL     1       1.108   9.237  21.017  0.00  0.00    +0.000 A 
ATOM     23  C   UNL     1       0.740  10.494  20.532  0.00  0.00    +0.000 A 
ATOM     24  C   UNL     1       0.811  10.810  19.167  0.00  0.00    +0.000 A 
ATOM     25  C   UNL     1       1.372   9.859  18.304  0.00  0.00    +0.000 A 
ATOM     26  C   UNL     1       1.762   8.592  18.762  0.00  0.00    +0.000 A 
ATOM     27  C   UNL     1       1.597   8.274  20.121  0.00  0.00    +0.000 A 
BRANCH  22  29
ATOM     28  C   UNL     1      -0.217   9.762  22.949  0.00  0.00    +0.000 C 
ATOM     29  O   UNL     1       0.918   9.145  22.369  0.00  0.00    +0.000 OA
ENDBRANCH  22  29
BRANCH  26  30
ATOM     30  O   UNL     1       2.248   7.817  17.742  0.00  0.00    +0.000 OA
ATOM     31  C   UNL     1       3.624   7.486  17.699  0.00  0.00    +0.000 C 
ENDBRANCH  26  30
BRANCH  27  32
ATOM     32  O   UNL     1       1.896   7.022  20.581  0.00  0.00    +0.000 OA
ATOM     33  H   UNL     1       2.290   6.553  19.828  0.00  0.00    +0.000 HD
ENDBRANCH  27  32
ENDBRANCH   1  24
BRANCH   3  34
ATOM     34  O   UNL     1       3.009  13.134  18.567  0.00  0.00    +0.000 OA
ATOM     35  H   UNL     1       2.616  12.671  17.811  0.00  0.00    +0.000 HD
ENDBRANCH   3  34
TORSDOF 6
ENDMDL
MODEL 7
REMARK VINA RESULT:      -7.1      1.168      1.656
REMARK  Name = 
REMARK  10 active torsions:
REMARK  status: ('A' for Active; 'I' for Inactive)
REMARK    1  A    between atoms: C_1  and  O_2
REMARK    2  A    between atoms: O_2  and  C_3
REMARK    3  A    between atoms: C_5  and  C_6
REMARK    4  A    between atoms: C_8  and  O_9
REMARK    5  A    between atoms: C_17  and  C_18
REMARK    6  A    between atoms: N_20  and  C_21
REMARK    7  A    between atoms: C_25  and  C_26
REMARK    8  A    between atoms: C_29  and  O_30
REMARK    9  A    between atoms: O_30  and  C_31
REMARK   10  A    between atoms: C_32  and  O_33
REMARK                            x       y       z     vdW  Elec       q    Type
REMARK                         _______ _______ _______ _____ _____    ______ ____
ROOT
ATOM      1  C   UNL     1       0.120  11.785  18.376  0.00  0.00    +0.000 C 
ATOM      2  C   UNL     1       0.860  12.947  19.020  0.00  0.00    +0.000 C 
ATOM      3  C   UNL     1       2.173  13.196  18.850  0.00  0.00    +0.000 C 
ATOM      4  C   UNL     1       2.968  14.219  19.592  0.00  0.00    +0.000 C 
ATOM      5  C   UNL     1       2.209  15.229  20.429  0.00  0.00    +0.000 C 
ATOM      6  C   UNL     1       0.744  14.959  20.698  0.00  0.00    +0.000 C 
ATOM      7  C   UNL     1       0.063  13.817  19.959  0.00  0.00    +0.000 C 
ATOM      8  N   UNL     1      -1.208  13.693  20.217  0.00  0.00    +0.000 NA
ATOM      9  C   UNL     1      -1.870  12.695  19.579  0.00  0.00    +0.000 A 
ATOM     10  C   UNL     1      -1.332  11.786  18.702  0.00  0.00    +0.000 A 
ATOM     11  C   UNL     1      -2.401  10.955  18.305  0.00  0.00    +0.000 A 
ATOM     12  C   UNL     1      -2.397   9.816  17.350  0.00  0.00    +0.000 C 
ATOM     13  N   UNL     1      -3.534  11.287  18.928  0.00  0.00    +0.000 NA
ATOM     14  N   UNL     1      -3.222  12.365  19.715  0.00  0.00    +0.000 N 
ENDROOT
BRANCH  14  15
ATOM     15  C   UNL     1      -4.242  12.974  20.510  0.00  0.00    +0.000 A 
ATOM     16  C   UNL     1      -4.230  12.893  21.908  0.00  0.00    +0.000 A 
ATOM     17  C   UNL     1      -5.226  13.517  22.659  0.00  0.00    +0.000 A 
ATOM     18  C   UNL     1      -6.256  14.213  22.029  0.00  0.00    +0.000 A 
ATOM     19  C   UNL     1      -6.301  14.289  20.634  0.00  0.00    +0.000 A 
ATOM     20  C   UNL     1      -7.428  15.002  19.945  0.00  0.00    +0.000 C 
ATOM     21  C   UNL     1      -5.285  13.682  19.882  0.00  0.00    +0.000 A 
ENDBRANCH  14  15
BRANCH   1  24
ATOM     22  C   UNL     1       1.830   8.348  18.541  0.00  0.00    +0.000 A 
ATOM     23  C   UNL     1       1.226   9.508  18.048  0.00  0.00    +0.000 A 
ATOM     24  C   UNL     1       0.605  10.436  18.897  0.00  0.00    +0.000 A 
ATOM     25  C   UNL     1       0.506  10.113  20.258  0.00  0.00    +0.000 A 
ATOM     26  C   UNL     1       1.090   8.951  20.781  0.00  0.00    +0.000 A 
ATOM     27  C   UNL     1       1.782   8.083  19.918  0.00  0.00    +0.000 A 
BRANCH  22  29
ATOM     28  C   UNL     1       3.812   7.472  17.510  0.00  0.00    +0.000 C 
ATOM     29  O   UNL     1       2.404   7.616  17.538  0.00  0.00    +0.000 OA
ENDBRANCH  22  29
BRANCH  26  30
ATOM     30  O   UNL     1       0.900   8.858  22.134  0.00  0.00    +0.000 OA
ATOM     31  C   UNL     1      -0.262   9.413  22.725  0.00  0.00    +0.000 C 
ENDBRANCH  26  30
BRANCH  27  32
ATOM     32  O   UNL     1       2.427   6.985  20.411  0.00  0.00    +0.000 OA
ATOM     33  H   UNL     1       2.825   7.269  21.251  0.00  0.00    +0.000 HD
ENDBRANCH  27  32
ENDBRANCH   1  24
BRANCH   3  34
ATOM     34  O   UNL     1       2.974  12.471  17.980  0.00  0.00    +0.000 OA
ATOM     35  H   UNL     1       2.650  12.531  17.067  0.00  0.00    +0.000 HD
ENDBRANCH   3  34
TORSDOF 6
ENDMDL
MODEL 8
REMARK VINA RESULT:      -7.1      1.920      2.396
REMARK  Name = 
REMARK  10 active torsions:
REMARK  status: ('A' for Active; 'I' for Inactive)
REMARK    1  A    between atoms: C_1  and  O_2
REMARK    2  A    between atoms: O_2  and  C_3
REMARK    3  A    between atoms: C_5  and  C_6
REMARK    4  A    between atoms: C_8  and  O_9
REMARK    5  A    between atoms: C_17  and  C_18
REMARK    6  A    between atoms: N_20  and  C_21
REMARK    7  A    between atoms: C_25  and  C_26
REMARK    8  A    between atoms: C_29  and  O_30
REMARK    9  A    between atoms: O_30  and  C_31
REMARK   10  A    between atoms: C_32  and  O_33
REMARK                            x       y       z     vdW  Elec       q    Type
REMARK                         _______ _______ _______ _____ _____    ______ ____
ROOT
ATOM      1  C   UNL     1       0.102  12.249  18.542  0.00  0.00    +0.000 C 
ATOM      2  C   UNL     1       1.110  13.348  18.842  0.00  0.00    +0.000 C 
ATOM      3  C   UNL     1       2.376  13.358  18.386  0.00  0.00    +0.000 C 
ATOM      4  C   UNL     1       3.440  14.324  18.792  0.00  0.00    +0.000 C 
ATOM      5  C   UNL     1       3.018  15.540  19.593  0.00  0.00    +0.000 C 
ATOM      6  C   UNL     1       1.622  15.546  20.177  0.00  0.00    +0.000 C 
ATOM      7  C   UNL     1       0.654  14.446  19.771  0.00  0.00    +0.000 C 
ATOM      8  N   UNL     1      -0.537  14.561  20.285  0.00  0.00    +0.000 NA
ATOM      9  C   UNL     1      -1.447  13.611  19.950  0.00  0.00    +0.000 A 
ATOM     10  C   UNL     1      -1.233  12.525  19.137  0.00  0.00    +0.000 A 
ATOM     11  C   UNL     1      -2.464  11.835  19.088  0.00  0.00    +0.000 A 
ATOM     12  C   UNL     1      -2.814  10.599  18.340  0.00  0.00    +0.000 C 
ATOM     13  N   UNL     1      -3.382  12.421  19.859  0.00  0.00    +0.000 NA
ATOM     14  N   UNL     1      -2.770  13.524  20.394  0.00  0.00    +0.000 N 
ENDROOT
BRANCH  14  15
ATOM     15  C   UNL     1      -3.506  14.384  21.266  0.00  0.00    +0.000 A 
ATOM     16  C   UNL     1      -4.604  15.126  20.812  0.00  0.00    +0.000 A 
ATOM     17  C   UNL     1      -5.317  15.940  21.691  0.00  0.00    +0.000 A 
ATOM     18  C   UNL     1      -4.938  16.040  23.029  0.00  0.00    +0.000 A 
ATOM     19  C   UNL     1      -3.833  15.326  23.500  0.00  0.00    +0.000 A 
ATOM     20  C   UNL     1      -3.391  15.459  24.929  0.00  0.00    +0.000 C 
ATOM     21  C   UNL     1      -3.132  14.490  22.620  0.00  0.00    +0.000 A 
ENDBRANCH  14  15
BRANCH   1  24
ATOM     22  C   UNL     1       1.494   8.690  18.934  0.00  0.00    +0.000 A 
ATOM     23  C   UNL     1       0.959   9.851  18.371  0.00  0.00    +0.000 A 
ATOM     24  C   UNL     1       0.505  10.915  19.163  0.00  0.00    +0.000 A 
ATOM     25  C   UNL     1       0.497  10.739  20.554  0.00  0.00    +0.000 A 
ATOM     26  C   UNL     1       1.015   9.580  21.150  0.00  0.00    +0.000 A 
ATOM     27  C   UNL     1       1.544   8.567  20.331  0.00  0.00    +0.000 A 
BRANCH  22  29
ATOM     28  C   UNL     1       3.288   7.708  17.678  0.00  0.00    +0.000 C 
ATOM     29  O   UNL     1       1.907   7.809  17.972  0.00  0.00    +0.000 OA
ENDBRANCH  22  29
BRANCH  26  30
ATOM     30  O   UNL     1       0.937   9.640  22.516  0.00  0.00    +0.000 OA
ATOM     31  C   UNL     1      -0.325   9.750  23.148  0.00  0.00    +0.000 C 
ENDBRANCH  26  30
BRANCH  27  32
ATOM     32  O   UNL     1       2.127   7.462  20.886  0.00  0.00    +0.000 OA
ATOM     33  H   UNL     1       3.037   7.448  20.547  0.00  0.00    +0.000 HD
ENDBRANCH  27  32
ENDBRANCH   1  24
BRANCH   3  34
ATOM     34  O   UNL     1       2.870  12.411  17.501  0.00  0.00    +0.000 OA
ATOM     35  H   UNL     1       2.583  11.516  17.743  0.00  0.00    +0.000 HD
ENDBRANCH   3  34
TORSDOF 6
ENDMDL
MODEL 9
REMARK VINA RESULT:      -7.0      0.409      2.265
REMARK  Name = 
REMARK  10 active torsions:
REMARK  status: ('A' for Active; 'I' for Inactive)
REMARK    1  A    between atoms: C_1  and  O_2
REMARK    2  A    between atoms: O_2  and  C_3
REMARK    3  A    between atoms: C_5  and  C_6
REMARK    4  A    between atoms: C_8  and  O_9
REMARK    5  A    between atoms: C_17  and  C_18
REMARK    6  A    between atoms: N_20  and  C_21
REMARK    7  A    between atoms: C_25  and  C_26
REMARK    8  A    between atoms: C_29  and  O_30
REMARK    9  A    between atoms: O_30  and  C_31
REMARK   10  A    between atoms: C_32  and  O_33
REMARK                            x       y       z     vdW  Elec       q    Type
REMARK                         _______ _______ _______ _____ _____    ______ ____
ROOT
ATOM      1  C   UNL     1       0.013  12.159  18.808  0.00  0.00    +0.000 C 
ATOM      2  C   UNL     1       0.341  13.388  19.641  0.00  0.00    +0.000 C 
ATOM      3  C   UNL     1       1.586  13.864  19.829  0.00  0.00    +0.000 C 
ATOM      4  C   UNL     1       1.967  14.960  20.769  0.00  0.00    +0.000 C 
ATOM      5  C   UNL     1       0.850  15.775  21.391  0.00  0.00    +0.000 C 
ATOM      6  C   UNL     1      -0.562  15.245  21.257  0.00  0.00    +0.000 C 
ATOM      7  C   UNL     1      -0.814  14.052  20.348  0.00  0.00    +0.000 C 
ATOM      8  N   UNL     1      -2.065  13.700  20.259  0.00  0.00    +0.000 NA
ATOM      9  C   UNL     1      -2.350  12.645  19.454  0.00  0.00    +0.000 A 
ATOM     10  C   UNL     1      -1.450  11.896  18.737  0.00  0.00    +0.000 A 
ATOM     11  C   UNL     1      -2.215  10.922  18.059  0.00  0.00    +0.000 A 
ATOM     12  C   UNL     1      -1.760   9.860  17.123  0.00  0.00    +0.000 C 
ATOM     13  N   UNL     1      -3.510  11.020  18.364  0.00  0.00    +0.000 NA
ATOM     14  N   UNL     1      -3.611  12.085  19.222  0.00  0.00    +0.000 N 
ENDROOT
BRANCH  14  15
ATOM     15  C   UNL     1      -4.892  12.463  19.727  0.00  0.00    +0.000 A 
ATOM     16  C   UNL     1      -5.957  12.774  18.872  0.00  0.00    +0.000 A 
ATOM     17  C   UNL     1      -7.203  13.119  19.393  0.00  0.00    +0.000 A 
ATOM     18  C   UNL     1      -7.403  13.175  20.771  0.00  0.00    +0.000 A 
ATOM     19  C   UNL     1      -6.350  12.889  21.645  0.00  0.00    +0.000 A 
ATOM     20  C   UNL     1      -6.544  12.987  23.131  0.00  0.00    +0.000 C 
ATOM     21  C   UNL     1      -5.104  12.520  21.118  0.00  0.00    +0.000 A 
ENDBRANCH  14  15
BRANCH   1  24
ATOM     22  C   UNL     1       0.595   9.227  21.221  0.00  0.00    +0.000 A 
ATOM     23  C   UNL     1       0.225  10.475  20.714  0.00  0.00    +0.000 A 
ATOM     24  C   UNL     1       0.580  10.882  19.419  0.00  0.00    +0.000 A 
ATOM     25  C   UNL     1       1.420  10.042  18.677  0.00  0.00    +0.000 A 
ATOM     26  C   UNL     1       1.820   8.788  19.162  0.00  0.00    +0.000 A 
ATOM     27  C   UNL     1       1.376   8.371  20.429  0.00  0.00    +0.000 A 
BRANCH  22  29
ATOM     28  C   UNL     1      -0.621  10.074  23.109  0.00  0.00    +0.000 C 
ATOM     29  O   UNL     1       0.106   9.033  22.483  0.00  0.00    +0.000 OA
ENDBRANCH  22  29
BRANCH  26  30
ATOM     30  O   UNL     1       2.606   8.126  18.257  0.00  0.00    +0.000 OA
ATOM     31  C   UNL     1       2.463   6.727  18.087  0.00  0.00    +0.000 C 
ENDBRANCH  26  30
BRANCH  27  32
ATOM     32  O   UNL     1       1.684   7.124  20.895  0.00  0.00    +0.000 OA
ATOM     33  H   UNL     1       2.068   6.649  20.140  0.00  0.00    +0.000 HD
ENDBRANCH  27  32
ENDBRANCH   1  24
BRANCH   3  34
ATOM     34  O   UNL     1       2.701  13.340  19.192  0.00  0.00    +0.000 OA
ATOM     35  H   UNL     1       3.361  14.027  19.007  0.00  0.00    +0.000 HD
ENDBRANCH   3  34
TORSDOF 6
ENDMDL
