MODEL 1
REMARK VINA RESULT:      -7.8      0.000      0.000
REMARK  Name = 
REMARK  14 active torsions:
REMARK  status: ('A' for Active; 'I' for Inactive)
REMARK    1  A    between atoms: C_1  and  O_2
REMARK    2  A    between atoms: O_2  and  C_3
REMARK    3  A    between atoms: C_3  and  C_5
REMARK    4  A    between atoms: C_5  and  C_6
REMARK    5  A    between atoms: C_6  and  C_7
REMARK    6  A    between atoms: C_7  and  O_9
REMARK    7  A    between atoms: O_9  and  C_10
REMARK    8  A    between atoms: C_10  and  C_11
REMARK    9  A    between atoms: C_17  and  C_18
REMARK   10  A    between atoms: N_21  and  C_22
REMARK   11  A    between atoms: C_22  and  C_23
REMARK   12  A    between atoms: C_23  and  C_24
REMARK   13  A    between atoms: C_24  and  C_25
REMARK   14  A    between atoms: C_25  and  O_26
REMARK                            x       y       z     vdW  Elec       q    Type
REMARK                         _______ _______ _______ _____ _____    ______ ____
ROOT
ATOM      1  C   UNL     1       7.086   5.985  16.620  0.00  0.00    +0.000 C 
ATOM      2  C   UNL     1       7.834   7.128  17.319  0.00  0.00    +0.000 C 
ATOM      3  C   UNL     1       7.226   4.781  17.582  0.00  0.00    +0.000 C 
ATOM      4  O   UNL     1       8.257   4.119  17.687  0.00  0.00    +0.000 OA
ATOM      5  C   UNL     1       6.116   4.472  18.523  0.00  0.00    +0.000 C 
ATOM      6  C   UNL     1       4.978   5.170  18.536  0.00  0.00    +0.000 C 
ATOM      7  C   UNL     1       3.960   4.891  19.535  0.00  0.00    +0.000 C 
ATOM      8  C   UNL     1       2.840   5.661  19.635  0.00  0.00    +0.000 C 
ATOM      9  N   UNL     1       2.689   6.801  18.782  0.00  0.00    +0.000 N 
ATOM     10  C   UNL     1       3.605   6.945  17.713  0.00  0.00    +0.000 C 
ATOM     11  C   UNL     1       4.703   6.194  17.554  0.00  0.00    +0.000 C 
ATOM     12  C   UNL     1       5.619   6.402  16.401  0.00  0.00    +0.000 C 
ATOM     13  O   UNL     1       5.193   6.883  15.355  0.00  0.00    +0.000 OA
ENDROOT
BRANCH   8  14
ATOM     14  C   UNL     1       1.862   5.333  20.699  0.00  0.00    +0.000 C 
ATOM     15  C   UNL     1       0.802   4.273  20.633  0.00  0.00    +0.000 C 
ATOM     16  C   UNL     1       2.063   3.978  21.379  0.00  0.00    +0.000 C 
ENDBRANCH   8  14
BRANCH   1  17
ATOM     17  O   UNL     1       7.664   5.607  15.356  0.00  0.00    +0.000 OA
BRANCH  17  18
ATOM     18  C   UNL     1       7.070   4.605  14.649  0.00  0.00    +0.000 C 
ATOM     19  O   UNL     1       6.534   3.604  15.123  0.00  0.00    +0.000 OA
BRANCH  18  20
ATOM     20  C   UNL     1       7.222   4.813  13.176  0.00  0.00    +0.000 C 
BRANCH  20  21
ATOM     21  C   UNL     1       6.019   4.228  12.444  0.00  0.00    +0.000 C 
BRANCH  21  22
ATOM     22  C   UNL     1       6.378   2.927  11.767  0.00  0.00    +0.000 C 
ATOM     23  O   UNL     1       7.525   2.545  11.566  0.00  0.00    +0.000 OA
BRANCH  22  25
ATOM     24  C   UNL     1       4.099   3.053  11.252  0.00  0.00    +0.000 C 
ATOM     25  O   UNL     1       5.252   2.233  11.453  0.00  0.00    +0.000 OA
ENDBRANCH  22  25
ENDBRANCH  21  22
ENDBRANCH  20  21
ENDBRANCH  18  20
ENDBRANCH  17  18
ENDBRANCH   1  17
BRANCH   9  26
ATOM     26  C   UNL     1       1.551   7.750  18.830  0.00  0.00    +0.000 C 
BRANCH  26  27
ATOM     27  C   UNL     1       1.677   9.002  17.963  0.00  0.00    +0.000 C 
BRANCH  27  28
ATOM     28  C   UNL     1       1.240  10.350  18.540  0.00  0.00    +0.000 C 
BRANCH  28  29
ATOM     29  C   UNL     1      -0.292  10.350  18.617  0.00  0.00    +0.000 C 
BRANCH  29  30
ATOM     30  O   UNL     1      -0.852  11.314  17.743  0.00  0.00    +0.000 OA
ATOM     31  H   UNL     1      -0.339  12.132  17.843  0.00  0.00    +0.000 HD
ENDBRANCH  29  30
ENDBRANCH  28  29
ENDBRANCH  27  28
ENDBRANCH  26  27
ENDBRANCH   9  26
TORSDOF 12
ENDMDL
MODEL 2
REMARK VINA RESULT:      -7.8      0.883      1.131
REMARK  Name = 
REMARK  14 active torsions:
REMARK  status: ('A' for Active; 'I' for Inactive)
REMARK    1  A    between atoms: C_1  and  O_2
REMARK    2  A    between atoms: O_2  and  C_3
REMARK    3  A    between atoms: C_3  and  C_5
REMARK    4  A    between atoms: C_5  and  C_6
REMARK    5  A    between atoms: C_6  and  C_7
REMARK    6  A    between atoms: C_7  and  O_9
REMARK    7  A    between atoms: O_9  and  C_10
REMARK    8  A    between atoms: C_10  and  C_11
REMARK    9  A    between atoms: C_17  and  C_18
REMARK   10  A    between atoms: N_21  and  C_22
REMARK   11  A    between atoms: C_22  and  C_23
REMARK   12  A    between atoms: C_23  and  C_24
REMARK   13  A    between atoms: C_24  and  C_25
REMARK   14  A    between atoms: C_25  and  O_26
REMARK                            x       y       z     vdW  Elec       q    Type
REMARK                         _______ _______ _______ _____ _____    ______ ____
ROOT
ATOM      1  C   UNL     1       7.025   5.955  16.525  0.00  0.00    +0.000 C 
ATOM      2  C   UNL     1       7.793   7.094  17.208  0.00  0.00    +0.000 C 
ATOM      3  C   UNL     1       7.183   4.749  17.482  0.00  0.00    +0.000 C 
ATOM      4  O   UNL     1       8.215   4.084  17.562  0.00  0.00    +0.000 OA
ATOM      5  C   UNL     1       6.095   4.443  18.449  0.00  0.00    +0.000 C 
ATOM      6  C   UNL     1       4.960   5.145  18.490  0.00  0.00    +0.000 C 
ATOM      7  C   UNL     1       3.966   4.868  19.513  0.00  0.00    +0.000 C 
ATOM      8  C   UNL     1       2.851   5.642  19.640  0.00  0.00    +0.000 C 
ATOM      9  N   UNL     1       2.683   6.784  18.792  0.00  0.00    +0.000 N 
ATOM     10  C   UNL     1       3.574   6.926  17.702  0.00  0.00    +0.000 C 
ATOM     11  C   UNL     1       4.665   6.171  17.516  0.00  0.00    +0.000 C 
ATOM     12  C   UNL     1       5.555   6.377  16.342  0.00  0.00    +0.000 C 
ATOM     13  O   UNL     1       5.106   6.861  15.307  0.00  0.00    +0.000 OA
ENDROOT
BRANCH   8  14
ATOM     14  C   UNL     1       1.897   5.316  20.727  0.00  0.00    +0.000 C 
ATOM     15  C   UNL     1       0.828   4.264  20.682  0.00  0.00    +0.000 C 
ATOM     16  C   UNL     1       2.104   3.956  21.394  0.00  0.00    +0.000 C 
ENDBRANCH   8  14
BRANCH   1  17
ATOM     17  O   UNL     1       7.571   5.577  15.247  0.00  0.00    +0.000 OA
BRANCH  17  18
ATOM     18  C   UNL     1       6.917   4.627  14.522  0.00  0.00    +0.000 C 
ATOM     19  O   UNL     1       6.418   3.594  14.965  0.00  0.00    +0.000 OA
BRANCH  18  20
ATOM     20  C   UNL     1       6.946   4.943  13.060  0.00  0.00    +0.000 C 
BRANCH  20  21
ATOM     21  C   UNL     1       7.042   3.652  12.254  0.00  0.00    +0.000 C 
BRANCH  21  22
ATOM     22  C   UNL     1       5.670   3.104  11.945  0.00  0.00    +0.000 C 
ATOM     23  O   UNL     1       4.647   3.778  11.910  0.00  0.00    +0.000 OA
BRANCH  22  25
ATOM     24  C   UNL     1       6.878   1.401  10.890  0.00  0.00    +0.000 C 
ATOM     25  O   UNL     1       5.743   1.773  11.675  0.00  0.00    +0.000 OA
ENDBRANCH  22  25
ENDBRANCH  21  22
ENDBRANCH  20  21
ENDBRANCH  18  20
ENDBRANCH  17  18
ENDBRANCH   1  17
BRANCH   9  26
ATOM     26  C   UNL     1       1.550   7.737  18.869  0.00  0.00    +0.000 C 
BRANCH  26  27
ATOM     27  C   UNL     1       1.699   9.029  18.068  0.00  0.00    +0.000 C 
BRANCH  27  28
ATOM     28  C   UNL     1       0.879  10.254  18.478  0.00  0.00    +0.000 C 
BRANCH  28  29
ATOM     29  C   UNL     1       0.737  10.229  20.006  0.00  0.00    +0.000 C 
BRANCH  29  30
ATOM     30  O   UNL     1       1.118  11.467  20.580  0.00  0.00    +0.000 OA
ATOM     31  H   UNL     1       0.383  12.089  20.449  0.00  0.00    +0.000 HD
ENDBRANCH  29  30
ENDBRANCH  28  29
ENDBRANCH  27  28
ENDBRANCH  26  27
ENDBRANCH   9  26
TORSDOF 12
ENDMDL
MODEL 3
REMARK VINA RESULT:      -7.5      1.672      2.502
REMARK  Name = 
REMARK  14 active torsions:
REMARK  status: ('A' for Active; 'I' for Inactive)
REMARK    1  A    between atoms: C_1  and  O_2
REMARK    2  A    between atoms: O_2  and  C_3
REMARK    3  A    between atoms: C_3  and  C_5
REMARK    4  A    between atoms: C_5  and  C_6
REMARK    5  A    between atoms: C_6  and  C_7
REMARK    6  A    between atoms: C_7  and  O_9
REMARK    7  A    between atoms: O_9  and  C_10
REMARK    8  A    between atoms: C_10  and  C_11
REMARK    9  A    between atoms: C_17  and  C_18
REMARK   10  A    between atoms: N_21  and  C_22
REMARK   11  A    between atoms: C_22  and  C_23
REMARK   12  A    between atoms: C_23  and  C_24
REMARK   13  A    between atoms: C_24  and  C_25
REMARK   14  A    between atoms: C_25  and  O_26
REMARK                            x       y       z     vdW  Elec       q    Type
REMARK                         _______ _______ _______ _____ _____    ______ ____
ROOT
ATOM      1  C   UNL     1       5.443   5.393  17.728  0.00  0.00    +0.000 C 
ATOM      2  C   UNL     1       6.646   6.201  18.235  0.00  0.00    +0.000 C 
ATOM      3  C   UNL     1       4.921   4.645  18.978  0.00  0.00    +0.000 C 
ATOM      4  O   UNL     1       5.469   3.647  19.443  0.00  0.00    +0.000 OA
ATOM      5  C   UNL     1       3.779   5.216  19.741  0.00  0.00    +0.000 C 
ATOM      6  C   UNL     1       3.154   6.332  19.358  0.00  0.00    +0.000 C 
ATOM      7  C   UNL     1       2.105   6.903  20.186  0.00  0.00    +0.000 C 
ATOM      8  C   UNL     1       1.529   8.097  19.870  0.00  0.00    +0.000 C 
ATOM      9  N   UNL     1       2.006   8.834  18.738  0.00  0.00    +0.000 N 
ATOM     10  C   UNL     1       2.901   8.178  17.860  0.00  0.00    +0.000 C 
ATOM     11  C   UNL     1       3.469   6.990  18.110  0.00  0.00    +0.000 C 
ATOM     12  C   UNL     1       4.400   6.360  17.137  0.00  0.00    +0.000 C 
ATOM     13  O   UNL     1       4.311   6.623  15.941  0.00  0.00    +0.000 OA
ENDROOT
BRANCH   8  14
ATOM     14  C   UNL     1       0.487   8.631  20.780  0.00  0.00    +0.000 C 
ATOM     15  C   UNL     1       0.367   8.354  22.249  0.00  0.00    +0.000 C 
ATOM     16  C   UNL     1       0.977   9.646  21.813  0.00  0.00    +0.000 C 
ENDBRANCH   8  14
BRANCH   1  17
ATOM     17  O   UNL     1       5.788   4.407  16.737  0.00  0.00    +0.000 OA
BRANCH  17  18
ATOM     18  C   UNL     1       7.052   4.420  16.227  0.00  0.00    +0.000 C 
ATOM     19  O   UNL     1       8.089   4.223  16.857  0.00  0.00    +0.000 OA
BRANCH  18  20
ATOM     20  C   UNL     1       7.050   4.800  14.780  0.00  0.00    +0.000 C 
BRANCH  20  21
ATOM     21  C   UNL     1       5.874   4.136  14.072  0.00  0.00    +0.000 C 
BRANCH  21  22
ATOM     22  C   UNL     1       6.250   3.725  12.668  0.00  0.00    +0.000 C 
ATOM     23  O   UNL     1       7.240   4.130  12.071  0.00  0.00    +0.000 OA
BRANCH  22  25
ATOM     24  C   UNL     1       5.951   1.771  11.418  0.00  0.00    +0.000 C 
ATOM     25  O   UNL     1       5.358   2.819  12.187  0.00  0.00    +0.000 OA
ENDBRANCH  22  25
ENDBRANCH  21  22
ENDBRANCH  20  21
ENDBRANCH  18  20
ENDBRANCH  17  18
ENDBRANCH   1  17
BRANCH   9  26
ATOM     26  C   UNL     1       1.507  10.167  18.324  0.00  0.00    +0.000 C 
BRANCH  26  27
ATOM     27  C   UNL     1       0.069  10.222  17.810  0.00  0.00    +0.000 C 
BRANCH  27  28
ATOM     28  C   UNL     1      -0.968  11.028  18.594  0.00  0.00    +0.000 C 
BRANCH  28  29
ATOM     29  C   UNL     1      -2.331  10.812  17.923  0.00  0.00    +0.000 C 
BRANCH  29  30
ATOM     30  O   UNL     1      -2.791  11.999  17.299  0.00  0.00    +0.000 OA
ATOM     31  H   UNL     1      -2.067  12.645  17.330  0.00  0.00    +0.000 HD
ENDBRANCH  29  30
ENDBRANCH  28  29
ENDBRANCH  27  28
ENDBRANCH  26  27
ENDBRANCH   9  26
TORSDOF 12
ENDMDL
MODEL 4
REMARK VINA RESULT:      -7.4      3.208      7.661
REMARK  Name = 
REMARK  14 active torsions:
REMARK  status: ('A' for Active; 'I' for Inactive)
REMARK    1  A    between atoms: C_1  and  O_2
REMARK    2  A    between atoms: O_2  and  C_3
REMARK    3  A    between atoms: C_3  and  C_5
REMARK    4  A    between atoms: C_5  and  C_6
REMARK    5  A    between atoms: C_6  and  C_7
REMARK    6  A    between atoms: C_7  and  O_9
REMARK    7  A    between atoms: O_9  and  C_10
REMARK    8  A    between atoms: C_10  and  C_11
REMARK    9  A    between atoms: C_17  and  C_18
REMARK   10  A    between atoms: N_21  and  C_22
REMARK   11  A    between atoms: C_22  and  C_23
REMARK   12  A    between atoms: C_23  and  C_24
REMARK   13  A    between atoms: C_24  and  C_25
REMARK   14  A    between atoms: C_25  and  O_26
REMARK                            x       y       z     vdW  Elec       q    Type
REMARK                         _______ _______ _______ _____ _____    ______ ____
ROOT
ATOM      1  C   UNL     1       3.043   2.222  19.073  0.00  0.00    +0.000 C 
ATOM      2  C   UNL     1       3.756   0.921  18.678  0.00  0.00    +0.000 C 
ATOM      3  C   UNL     1       3.869   2.775  20.258  0.00  0.00    +0.000 C 
ATOM      4  O   UNL     1       3.798   2.321  21.399  0.00  0.00    +0.000 OA
ATOM      5  C   UNL     1       4.896   3.820  20.000  0.00  0.00    +0.000 C 
ATOM      6  C   UNL     1       5.100   4.334  18.786  0.00  0.00    +0.000 C 
ATOM      7  C   UNL     1       6.177   5.284  18.565  0.00  0.00    +0.000 C 
ATOM      8  C   UNL     1       6.471   5.739  17.315  0.00  0.00    +0.000 C 
ATOM      9  N   UNL     1       5.748   5.228  16.189  0.00  0.00    +0.000 N 
ATOM     10  C   UNL     1       4.601   4.442  16.451  0.00  0.00    +0.000 C 
ATOM     11  C   UNL     1       4.252   3.996  17.665  0.00  0.00    +0.000 C 
ATOM     12  C   UNL     1       3.028   3.175  17.863  0.00  0.00    +0.000 C 
ATOM     13  O   UNL     1       2.085   3.279  17.085  0.00  0.00    +0.000 OA
ENDROOT
BRANCH   8  14
ATOM     14  C   UNL     1       7.604   6.684  17.165  0.00  0.00    +0.000 C 
ATOM     15  C   UNL     1       7.579   8.153  17.468  0.00  0.00    +0.000 C 
ATOM     16  C   UNL     1       8.181   7.227  18.473  0.00  0.00    +0.000 C 
ENDBRANCH   8  14
BRANCH   1  17
ATOM     17  O   UNL     1       1.693   2.021  19.533  0.00  0.00    +0.000 OA
BRANCH  17  18
ATOM     18  C   UNL     1       1.214   2.847  20.505  0.00  0.00    +0.000 C 
ATOM     19  O   UNL     1       0.967   2.531  21.668  0.00  0.00    +0.000 OA
BRANCH  18  20
ATOM     20  C   UNL     1       0.925   4.212  19.965  0.00  0.00    +0.000 C 
BRANCH  20  21
ATOM     21  C   UNL     1       1.572   5.268  20.856  0.00  0.00    +0.000 C 
BRANCH  21  22
ATOM     22  C   UNL     1       1.924   6.503  20.062  0.00  0.00    +0.000 C 
ATOM     23  O   UNL     1       2.364   6.489  18.919  0.00  0.00    +0.000 OA
BRANCH  22  25
ATOM     24  C   UNL     1       1.359   8.772  19.983  0.00  0.00    +0.000 C 
ATOM     25  O   UNL     1       1.645   7.622  20.782  0.00  0.00    +0.000 OA
ENDBRANCH  22  25
ENDBRANCH  21  22
ENDBRANCH  20  21
ENDBRANCH  18  20
ENDBRANCH  17  18
ENDBRANCH   1  17
BRANCH   9  26
ATOM     26  C   UNL     1       6.010   5.594  14.777  0.00  0.00    +0.000 C 
BRANCH  26  27
ATOM     27  C   UNL     1       7.111   4.808  14.067  0.00  0.00    +0.000 C 
BRANCH  27  28
ATOM     28  C   UNL     1       6.901   4.389  12.611  0.00  0.00    +0.000 C 
BRANCH  28  29
ATOM     29  C   UNL     1       5.734   3.393  12.575  0.00  0.00    +0.000 C 
BRANCH  29  30
ATOM     30  O   UNL     1       6.107   2.184  11.936  0.00  0.00    +0.000 OA
ATOM     31  H   UNL     1       5.520   2.064  11.173  0.00  0.00    +0.000 HD
ENDBRANCH  29  30
ENDBRANCH  28  29
ENDBRANCH  27  28
ENDBRANCH  26  27
ENDBRANCH   9  26
TORSDOF 12
ENDMDL
MODEL 5
REMARK VINA RESULT:      -7.2      1.526      1.694
REMARK  Name = 
REMARK  14 active torsions:
REMARK  status: ('A' for Active; 'I' for Inactive)
REMARK    1  A    between atoms: C_1  and  O_2
REMARK    2  A    between atoms: O_2  and  C_3
REMARK    3  A    between atoms: C_3  and  C_5
REMARK    4  A    between atoms: C_5  and  C_6
REMARK    5  A    between atoms: C_6  and  C_7
REMARK    6  A    between atoms: C_7  and  O_9
REMARK    7  A    between atoms: O_9  and  C_10
REMARK    8  A    between atoms: C_10  and  C_11
REMARK    9  A    between atoms: C_17  and  C_18
REMARK   10  A    between atoms: N_21  and  C_22
REMARK   11  A    between atoms: C_22  and  C_23
REMARK   12  A    between atoms: C_23  and  C_24
REMARK   13  A    between atoms: C_24  and  C_25
REMARK   14  A    between atoms: C_25  and  O_26
REMARK                            x       y       z     vdW  Elec       q    Type
REMARK                         _______ _______ _______ _____ _____    ______ ____
ROOT
ATOM      1  C   UNL     1       6.954   6.037  16.699  0.00  0.00    +0.000 C 
ATOM      2  C   UNL     1       7.716   7.128  17.463  0.00  0.00    +0.000 C 
ATOM      3  C   UNL     1       7.160   4.755  17.541  0.00  0.00    +0.000 C 
ATOM      4  O   UNL     1       8.206   4.108  17.538  0.00  0.00    +0.000 OA
ATOM      5  C   UNL     1       6.102   4.341  18.501  0.00  0.00    +0.000 C 
ATOM      6  C   UNL     1       4.955   5.011  18.630  0.00  0.00    +0.000 C 
ATOM      7  C   UNL     1       3.992   4.624  19.647  0.00  0.00    +0.000 C 
ATOM      8  C   UNL     1       2.865   5.359  19.868  0.00  0.00    +0.000 C 
ATOM      9  N   UNL     1       2.654   6.567  19.129  0.00  0.00    +0.000 N 
ATOM     10  C   UNL     1       3.515   6.824  18.036  0.00  0.00    +0.000 C 
ATOM     11  C   UNL     1       4.616   6.113  17.758  0.00  0.00    +0.000 C 
ATOM     12  C   UNL     1       5.472   6.442  16.587  0.00  0.00    +0.000 C 
ATOM     13  O   UNL     1       4.989   7.005  15.610  0.00  0.00    +0.000 OA
ENDROOT
BRANCH   8  14
ATOM     14  C   UNL     1       1.945   4.917  20.943  0.00  0.00    +0.000 C 
ATOM     15  C   UNL     1       1.078   3.693  20.920  0.00  0.00    +0.000 C 
ATOM     16  C   UNL     1       2.363   3.645  21.681  0.00  0.00    +0.000 C 
ENDBRANCH   8  14
BRANCH   1  17
ATOM     17  O   UNL     1       7.476   5.785  15.380  0.00  0.00    +0.000 OA
BRANCH  17  18
ATOM     18  C   UNL     1       6.907   4.794  14.640  0.00  0.00    +0.000 C 
ATOM     19  O   UNL     1       6.396   3.764  15.079  0.00  0.00    +0.000 OA
BRANCH  18  20
ATOM     20  C   UNL     1       7.051   5.057  13.175  0.00  0.00    +0.000 C 
BRANCH  20  21
ATOM     21  C   UNL     1       7.493   3.784  12.461  0.00  0.00    +0.000 C 
BRANCH  21  22
ATOM     22  C   UNL     1       6.314   3.077  11.836  0.00  0.00    +0.000 C 
ATOM     23  O   UNL     1       5.143   3.382  12.029  0.00  0.00    +0.000 OA
BRANCH  22  25
ATOM     24  C   UNL     1       6.141   0.817  11.259  0.00  0.00    +0.000 C 
ATOM     25  O   UNL     1       6.742   2.089  11.007  0.00  0.00    +0.000 OA
ENDBRANCH  22  25
ENDBRANCH  21  22
ENDBRANCH  20  21
ENDBRANCH  18  20
ENDBRANCH  17  18
ENDBRANCH   1  17
BRANCH   9  26
ATOM     26  C   UNL     1       1.505   7.484  19.315  0.00  0.00    +0.000 C 
BRANCH  26  27
ATOM     27  C   UNL     1       1.534   8.358  20.568  0.00  0.00    +0.000 C 
BRANCH  27  28
ATOM     28  C   UNL     1       0.235   9.009  21.048  0.00  0.00    +0.000 C 
BRANCH  28  29
ATOM     29  C   UNL     1       0.381   9.291  22.549  0.00  0.00    +0.000 C 
BRANCH  29  30
ATOM     30  O   UNL     1      -0.710  10.052  23.039  0.00  0.00    +0.000 OA
ATOM     31  H   UNL     1      -1.310  10.215  22.294  0.00  0.00    +0.000 HD
ENDBRANCH  29  30
ENDBRANCH  28  29
ENDBRANCH  27  28
ENDBRANCH  26  27
ENDBRANCH   9  26
TORSDOF 12
ENDMDL
MODEL 6
REMARK VINA RESULT:      -7.1      2.952      9.813
REMARK  Name = 
REMARK  14 active torsions:
REMARK  status: ('A' for Active; 'I' for Inactive)
REMARK    1  A    between atoms: C_1  and  O_2
REMARK    2  A    between atoms: O_2  and  C_3
REMARK    3  A    between atoms: C_3  and  C_5
REMARK    4  A    between atoms: C_5  and  C_6
REMARK    5  A    between atoms: C_6  and  C_7
REMARK    6  A    between atoms: C_7  and  O_9
REMARK    7  A    between atoms: O_9  and  C_10
REMARK    8  A    between atoms: C_10  and  C_11
REMARK    9  A    between atoms: C_17  and  C_18
REMARK   10  A    between atoms: N_21  and  C_22
REMARK   11  A    between atoms: C_22  and  C_23
REMARK   12  A    between atoms: C_23  and  C_24
REMARK   13  A    between atoms: C_24  and  C_25
REMARK   14  A    between atoms: C_25  and  O_26
REMARK                            x       y       z     vdW  Elec       q    Type
REMARK                         _______ _______ _______ _____ _____    ______ ____
ROOT
ATOM      1  C   UNL     1       0.406  10.397  19.566  0.00  0.00    +0.000 C 
ATOM      2  C   UNL     1      -0.915  10.099  18.844  0.00  0.00    +0.000 C 
ATOM      3  C   UNL     1       0.188   9.881  21.008  0.00  0.00    +0.000 C 
ATOM      4  O   UNL     1      -0.475  10.487  21.848  0.00  0.00    +0.000 OA
ATOM      5  C   UNL     1       0.689   8.529  21.377  0.00  0.00    +0.000 C 
ATOM      6  C   UNL     1       1.364   7.761  20.520  0.00  0.00    +0.000 C 
ATOM      7  C   UNL     1       1.752   6.412  20.896  0.00  0.00    +0.000 C 
ATOM      8  C   UNL     1       2.345   5.573  20.000  0.00  0.00    +0.000 C 
ATOM      9  N   UNL     1       2.537   6.005  18.648  0.00  0.00    +0.000 N 
ATOM     10  C   UNL     1       2.309   7.371  18.359  0.00  0.00    +0.000 C 
ATOM     11  C   UNL     1       1.758   8.242  19.215  0.00  0.00    +0.000 C 
ATOM     12  C   UNL     1       1.552   9.667  18.841  0.00  0.00    +0.000 C 
ATOM     13  O   UNL     1       2.272  10.192  17.997  0.00  0.00    +0.000 OA
ENDROOT
BRANCH   8  14
ATOM     14  C   UNL     1       2.684   4.201  20.448  0.00  0.00    +0.000 C 
ATOM     15  C   UNL     1       2.128   3.500  21.652  0.00  0.00    +0.000 C 
ATOM     16  C   UNL     1       1.562   3.172  20.309  0.00  0.00    +0.000 C 
ENDBRANCH   8  14
BRANCH   1  17
ATOM     17  O   UNL     1       0.715  11.802  19.644  0.00  0.00    +0.000 OA
BRANCH  17  18
ATOM     18  C   UNL     1      -0.202  12.691  19.170  0.00  0.00    +0.000 C 
ATOM     19  O   UNL     1      -0.474  12.889  17.987  0.00  0.00    +0.000 OA
BRANCH  18  20
ATOM     20  C   UNL     1      -0.803  13.495  20.279  0.00  0.00    +0.000 C 
BRANCH  20  21
ATOM     21  C   UNL     1      -2.258  13.086  20.484  0.00  0.00    +0.000 C 
BRANCH  21  22
ATOM     22  C   UNL     1      -2.727  13.433  21.876  0.00  0.00    +0.000 C 
ATOM     23  O   UNL     1      -2.736  14.566  22.342  0.00  0.00    +0.000 OA
BRANCH  22  25
ATOM     24  C   UNL     1      -3.836  12.582  23.752  0.00  0.00    +0.000 C 
ATOM     25  O   UNL     1      -3.169  12.318  22.516  0.00  0.00    +0.000 OA
ENDBRANCH  22  25
ENDBRANCH  21  22
ENDBRANCH  20  21
ENDBRANCH  18  20
ENDBRANCH  17  18
ENDBRANCH   1  17
BRANCH   9  26
ATOM     26  C   UNL     1       3.113   5.171  17.566  0.00  0.00    +0.000 C 
BRANCH  26  27
ATOM     27  C   UNL     1       4.475   5.608  17.029  0.00  0.00    +0.000 C 
BRANCH  27  28
ATOM     28  C   UNL     1       5.297   4.619  16.201  0.00  0.00    +0.000 C 
BRANCH  28  29
ATOM     29  C   UNL     1       6.677   4.494  16.860  0.00  0.00    +0.000 C 
BRANCH  29  30
ATOM     30  O   UNL     1       6.566   4.126  18.224  0.00  0.00    +0.000 OA
ATOM     31  H   UNL     1       6.530   4.945  18.745  0.00  0.00    +0.000 HD
ENDBRANCH  29  30
ENDBRANCH  28  29
ENDBRANCH  27  28
ENDBRANCH  26  27
ENDBRANCH   9  26
TORSDOF 12
ENDMDL
MODEL 7
REMARK VINA RESULT:      -7.1      3.453      9.842
REMARK  Name = 
REMARK  14 active torsions:
REMARK  status: ('A' for Active; 'I' for Inactive)
REMARK    1  A    between atoms: C_1  and  O_2
REMARK    2  A    between atoms: O_2  and  C_3
REMARK    3  A    between atoms: C_3  and  C_5
REMARK    4  A    between atoms: C_5  and  C_6
REMARK    5  A    between atoms: C_6  and  C_7
REMARK    6  A    between atoms: C_7  and  O_9
REMARK    7  A    between atoms: O_9  and  C_10
REMARK    8  A    between atoms: C_10  and  C_11
REMARK    9  A    between atoms: C_17  and  C_18
REMARK   10  A    between atoms: N_21  and  C_22
REMARK   11  A    between atoms: C_22  and  C_23
REMARK   12  A    between atoms: C_23  and  C_24
REMARK   13  A    between atoms: C_24  and  C_25
REMARK   14  A    between atoms: C_25  and  O_26
REMARK                            x       y       z     vdW  Elec       q    Type
REMARK                         _______ _______ _______ _____ _____    ______ ____
ROOT
ATOM      1  C   UNL     1       0.178  10.548  19.612  0.00  0.00    +0.000 C 
ATOM      2  C   UNL     1      -1.089  10.201  18.819  0.00  0.00    +0.000 C 
ATOM      3  C   UNL     1      -0.075   9.971  21.025  0.00  0.00    +0.000 C 
ATOM      4  O   UNL     1      -0.809  10.509  21.852  0.00  0.00    +0.000 OA
ATOM      5  C   UNL     1       0.487   8.638  21.374  0.00  0.00    +0.000 C 
ATOM      6  C   UNL     1       1.243   7.939  20.526  0.00  0.00    +0.000 C 
ATOM      7  C   UNL     1       1.691   6.602  20.877  0.00  0.00    +0.000 C 
ATOM      8  C   UNL     1       2.373   5.829  19.984  0.00  0.00    +0.000 C 
ATOM      9  N   UNL     1       2.600   6.318  18.656  0.00  0.00    +0.000 N 
ATOM     10  C   UNL     1       2.306   7.678  18.401  0.00  0.00    +0.000 C 
ATOM     11  C   UNL     1       1.667   8.486  19.257  0.00  0.00    +0.000 C 
ATOM     12  C   UNL     1       1.396   9.909  18.919  0.00  0.00    +0.000 C 
ATOM     13  O   UNL     1       2.123  10.503  18.127  0.00  0.00    +0.000 OA
ENDROOT
BRANCH   8  14
ATOM     14  C   UNL     1       2.770   4.464  20.404  0.00  0.00    +0.000 C 
ATOM     15  C   UNL     1       2.170   3.674  21.528  0.00  0.00    +0.000 C 
ATOM     16  C   UNL     1       1.737   3.370  20.131  0.00  0.00    +0.000 C 
ENDBRANCH   8  14
BRANCH   1  17
ATOM     17  O   UNL     1       0.402  11.965  19.749  0.00  0.00    +0.000 OA
BRANCH  17  18
ATOM     18  C   UNL     1      -0.541  12.817  19.257  0.00  0.00    +0.000 C 
ATOM     19  O   UNL     1      -0.717  13.094  18.072  0.00  0.00    +0.000 OA
BRANCH  18  20
ATOM     20  C   UNL     1      -1.311  13.472  20.359  0.00  0.00    +0.000 C 
BRANCH  20  21
ATOM     21  C   UNL     1      -2.764  13.008  20.321  0.00  0.00    +0.000 C 
BRANCH  21  22
ATOM     22  C   UNL     1      -3.322  12.864  21.717  0.00  0.00    +0.000 C 
ATOM     23  O   UNL     1      -4.412  12.369  21.978  0.00  0.00    +0.000 OA
BRANCH  22  25
ATOM     24  C   UNL     1      -3.015  14.083  23.689  0.00  0.00    +0.000 C 
ATOM     25  O   UNL     1      -2.427  13.322  22.632  0.00  0.00    +0.000 OA
ENDBRANCH  22  25
ENDBRANCH  21  22
ENDBRANCH  20  21
ENDBRANCH  18  20
ENDBRANCH  17  18
ENDBRANCH   1  17
BRANCH   9  26
ATOM     26  C   UNL     1       3.272   5.556  17.577  0.00  0.00    +0.000 C 
BRANCH  26  27
ATOM     27  C   UNL     1       4.800   5.579  17.584  0.00  0.00    +0.000 C 
BRANCH  27  28
ATOM     28  C   UNL     1       5.527   6.721  16.873  0.00  0.00    +0.000 C 
BRANCH  28  29
ATOM     29  C   UNL     1       7.010   6.642  17.259  0.00  0.00    +0.000 C 
BRANCH  29  30
ATOM     30  O   UNL     1       7.649   7.898  17.110  0.00  0.00    +0.000 OA
ATOM     31  H   UNL     1       7.017   8.499  16.682  0.00  0.00    +0.000 HD
ENDBRANCH  29  30
ENDBRANCH  28  29
ENDBRANCH  27  28
ENDBRANCH  26  27
ENDBRANCH   9  26
TORSDOF 12
ENDMDL
MODEL 8
REMARK VINA RESULT:      -7.0      2.984      9.933
REMARK  Name = 
REMARK  14 active torsions:
REMARK  status: ('A' for Active; 'I' for Inactive)
REMARK    1  A    between atoms: C_1  and  O_2
REMARK    2  A    between atoms: O_2  and  C_3
REMARK    3  A    between atoms: C_3  and  C_5
REMARK    4  A    between atoms: C_5  and  C_6
REMARK    5  A    between atoms: C_6  and  C_7
REMARK    6  A    between atoms: C_7  and  O_9
REMARK    7  A    between atoms: O_9  and  C_10
REMARK    8  A    between atoms: C_10  and  C_11
REMARK    9  A    between atoms: C_17  and  C_18
REMARK   10  A    between atoms: N_21  and  C_22
REMARK   11  A    between atoms: C_22  and  C_23
REMARK   12  A    between atoms: C_23  and  C_24
REMARK   13  A    between atoms: C_24  and  C_25
REMARK   14  A    between atoms: C_25  and  O_26
REMARK                            x       y       z     vdW  Elec       q    Type
REMARK                         _______ _______ _______ _____ _____    ______ ____
ROOT
ATOM      1  C   UNL     1       0.192  10.583  19.576  0.00  0.00    +0.000 C 
ATOM      2  C   UNL     1      -1.065  10.248  18.762  0.00  0.00    +0.000 C 
ATOM      3  C   UNL     1      -0.088  10.002  20.983  0.00  0.00    +0.000 C 
ATOM      4  O   UNL     1      -0.832  10.543  21.800  0.00  0.00    +0.000 OA
ATOM      5  C   UNL     1       0.458   8.664  21.336  0.00  0.00    +0.000 C 
ATOM      6  C   UNL     1       1.223   7.963  20.497  0.00  0.00    +0.000 C 
ATOM      7  C   UNL     1       1.655   6.620  20.850  0.00  0.00    +0.000 C 
ATOM      8  C   UNL     1       2.345   5.847  19.965  0.00  0.00    +0.000 C 
ATOM      9  N   UNL     1       2.598   6.338  18.643  0.00  0.00    +0.000 N 
ATOM     10  C   UNL     1       2.318   7.702  18.388  0.00  0.00    +0.000 C 
ATOM     11  C   UNL     1       1.671   8.512  19.237  0.00  0.00    +0.000 C 
ATOM     12  C   UNL     1       1.416   9.938  18.900  0.00  0.00    +0.000 C 
ATOM     13  O   UNL     1       2.160  10.529  18.123  0.00  0.00    +0.000 OA
ENDROOT
BRANCH   8  14
ATOM     14  C   UNL     1       2.726   4.477  20.386  0.00  0.00    +0.000 C 
ATOM     15  C   UNL     1       2.133   3.704  21.526  0.00  0.00    +0.000 C 
ATOM     16  C   UNL     1       1.669   3.400  20.140  0.00  0.00    +0.000 C 
ENDBRANCH   8  14
BRANCH   1  17
ATOM     17  O   UNL     1       0.423  11.997  19.723  0.00  0.00    +0.000 OA
BRANCH  17  18
ATOM     18  C   UNL     1      -0.442  12.858  19.117  0.00  0.00    +0.000 C 
ATOM     19  O   UNL     1      -0.396  13.225  17.945  0.00  0.00    +0.000 OA
BRANCH  18  20
ATOM     20  C   UNL     1      -1.441  13.399  20.090  0.00  0.00    +0.000 C 
BRANCH  20  21
ATOM     21  C   UNL     1      -0.758  14.370  21.048  0.00  0.00    +0.000 C 
BRANCH  21  22
ATOM     22  C   UNL     1      -1.082  14.032  22.483  0.00  0.00    +0.000 C 
ATOM     23  O   UNL     1      -0.349  13.388  23.225  0.00  0.00    +0.000 OA
BRANCH  22  25
ATOM     24  C   UNL     1      -2.766  14.130  24.104  0.00  0.00    +0.000 C 
ATOM     25  O   UNL     1      -2.276  14.576  22.838  0.00  0.00    +0.000 OA
ENDBRANCH  22  25
ENDBRANCH  21  22
ENDBRANCH  20  21
ENDBRANCH  18  20
ENDBRANCH  17  18
ENDBRANCH   1  17
BRANCH   9  26
ATOM     26  C   UNL     1       3.282   5.576  17.572  0.00  0.00    +0.000 C 
BRANCH  26  27
ATOM     27  C   UNL     1       4.722   5.983  17.267  0.00  0.00    +0.000 C 
BRANCH  27  28
ATOM     28  C   UNL     1       5.309   5.655  15.893  0.00  0.00    +0.000 C 
BRANCH  28  29
ATOM     29  C   UNL     1       6.025   4.303  16.002  0.00  0.00    +0.000 C 
BRANCH  29  30
ATOM     30  O   UNL     1       6.488   4.069  17.321  0.00  0.00    +0.000 OA
ATOM     31  H   UNL     1       5.721   4.123  17.914  0.00  0.00    +0.000 HD
ENDBRANCH  29  30
ENDBRANCH  28  29
ENDBRANCH  27  28
ENDBRANCH  26  27
ENDBRANCH   9  26
TORSDOF 12
ENDMDL
MODEL 9
REMARK VINA RESULT:      -7.0      2.905      9.510
REMARK  Name = 
REMARK  14 active torsions:
REMARK  status: ('A' for Active; 'I' for Inactive)
REMARK    1  A    between atoms: C_1  and  O_2
REMARK    2  A    between atoms: O_2  and  C_3
REMARK    3  A    between atoms: C_3  and  C_5
REMARK    4  A    between atoms: C_5  and  C_6
REMARK    5  A    between atoms: C_6  and  C_7
REMARK    6  A    between atoms: C_7  and  O_9
REMARK    7  A    between atoms: O_9  and  C_10
REMARK    8  A    between atoms: C_10  and  C_11
REMARK    9  A    between atoms: C_17  and  C_18
REMARK   10  A    between atoms: N_21  and  C_22
REMARK   11  A    between atoms: C_22  and  C_23
REMARK   12  A    between atoms: C_23  and  C_24
REMARK   13  A    between atoms: C_24  and  C_25
REMARK   14  A    between atoms: C_25  and  O_26
REMARK                            x       y       z     vdW  Elec       q    Type
REMARK                         _______ _______ _______ _____ _____    ______ ____
ROOT
ATOM      1  C   UNL     1       0.487  10.456  19.496  0.00  0.00    +0.000 C 
ATOM      2  C   UNL     1      -0.828  10.174  18.756  0.00  0.00    +0.000 C 
ATOM      3  C   UNL     1       0.242   9.942  20.935  0.00  0.00    +0.000 C 
ATOM      4  O   UNL     1      -0.425  10.556  21.765  0.00  0.00    +0.000 OA
ATOM      5  C   UNL     1       0.721   8.584  21.311  0.00  0.00    +0.000 C 
ATOM      6  C   UNL     1       1.399   7.808  20.463  0.00  0.00    +0.000 C 
ATOM      7  C   UNL     1       1.765   6.454  20.844  0.00  0.00    +0.000 C 
ATOM      8  C   UNL     1       2.361   5.608  19.956  0.00  0.00    +0.000 C 
ATOM      9  N   UNL     1       2.576   6.038  18.607  0.00  0.00    +0.000 N 
ATOM     10  C   UNL     1       2.369   7.407  18.315  0.00  0.00    +0.000 C 
ATOM     11  C   UNL     1       1.817   8.284  19.163  0.00  0.00    +0.000 C 
ATOM     12  C   UNL     1       1.634   9.711  18.787  0.00  0.00    +0.000 C 
ATOM     13  O   UNL     1       2.372  10.228  17.953  0.00  0.00    +0.000 OA
ENDROOT
BRANCH   8  14
ATOM     14  C   UNL     1       2.676   4.232  20.409  0.00  0.00    +0.000 C 
ATOM     15  C   UNL     1       2.095   3.538  21.604  0.00  0.00    +0.000 C 
ATOM     16  C   UNL     1       1.544   3.217  20.254  0.00  0.00    +0.000 C 
ENDBRANCH   8  14
BRANCH   1  17
ATOM     17  O   UNL     1       0.812  11.857  19.579  0.00  0.00    +0.000 OA
BRANCH  17  18
ATOM     18  C   UNL     1      -0.103  12.758  19.124  0.00  0.00    +0.000 C 
ATOM     19  O   UNL     1      -0.341  13.017  17.945  0.00  0.00    +0.000 OA
BRANCH  18  20
ATOM     20  C   UNL     1      -0.749  13.494  20.254  0.00  0.00    +0.000 C 
BRANCH  20  21
ATOM     21  C   UNL     1      -0.217  14.922  20.315  0.00  0.00    +0.000 C 
BRANCH  21  22
ATOM     22  C   UNL     1       1.004  15.007  21.200  0.00  0.00    +0.000 C 
ATOM     23  O   UNL     1       1.175  14.334  22.209  0.00  0.00    +0.000 OA
BRANCH  22  25
ATOM     24  C   UNL     1       1.490  16.481  19.449  0.00  0.00    +0.000 C 
ATOM     25  O   UNL     1       1.892  15.903  20.693  0.00  0.00    +0.000 OA
ENDBRANCH  22  25
ENDBRANCH  21  22
ENDBRANCH  20  21
ENDBRANCH  18  20
ENDBRANCH  17  18
ENDBRANCH   1  17
BRANCH   9  26
ATOM     26  C   UNL     1       3.157   5.198  17.533  0.00  0.00    +0.000 C 
BRANCH  26  27
ATOM     27  C   UNL     1       4.645   5.397  17.249  0.00  0.00    +0.000 C 
BRANCH  27  28
ATOM     28  C   UNL     1       5.246   4.786  15.982  0.00  0.00    +0.000 C 
BRANCH  28  29
ATOM     29  C   UNL     1       6.767   4.719  16.172  0.00  0.00    +0.000 C 
BRANCH  29  30
ATOM     30  O   UNL     1       7.433   5.649  15.335  0.00  0.00    +0.000 OA
ATOM     31  H   UNL     1       6.962   6.495  15.405  0.00  0.00    +0.000 HD
ENDBRANCH  29  30
ENDBRANCH  28  29
ENDBRANCH  27  28
ENDBRANCH  26  27
ENDBRANCH   9  26
TORSDOF 12
ENDMDL
