MODEL 1
REMARK VINA RESULT:      -7.2      0.000      0.000
REMARK  Name = 
REMARK  8 active torsions:
REMARK  status: ('A' for Active; 'I' for Inactive)
REMARK    1  A    between atoms: C_1  and  O_2
REMARK    2  A    between atoms: O_2  and  C_3
REMARK    3  A    between atoms: C_7  and  C_8
REMARK    4  A    between atoms: C_8  and  C_9
REMARK    5  A    between atoms: C_8  and  C_17
REMARK    6  A    between atoms: C_9  and  N_10
REMARK    7  A    between atoms: N_13  and  C_14
REMARK    8  A    between atoms: C_17  and  O_18
REMARK                            x       y       z     vdW  Elec       q    Type
REMARK                         _______ _______ _______ _____ _____    ______ ____
ROOT
ATOM      1  C   UNL     1       3.361   5.245  18.709  0.00  0.00    +0.000 C 
ENDROOT
BRANCH   1   6
ATOM      2  C   UNL     1       6.568   4.723  16.636  0.00  0.00    +0.000 A 
ATOM      3  C   UNL     1       7.566   4.882  17.613  0.00  0.00    +0.000 A 
ATOM      4  C   UNL     1       7.213   5.127  18.938  0.00  0.00    +0.000 A 
ATOM      5  C   UNL     1       5.872   5.238  19.309  0.00  0.00    +0.000 A 
ATOM      6  C   UNL     1       4.847   5.082  18.351  0.00  0.00    +0.000 A 
ATOM      7  C   UNL     1       5.219   4.810  17.019  0.00  0.00    +0.000 A 
BRANCH   2   9
ATOM      8  C   UNL     1       6.019   3.932  14.353  0.00  0.00    +0.000 C 
ATOM      9  O   UNL     1       6.831   4.502  15.318  0.00  0.00    +0.000 OA
ENDBRANCH   2   9
ENDBRANCH   1   6
BRANCH   1  10
ATOM     10  C   UNL     1       2.596   3.859  18.503  0.00  0.00    +0.000 C 
ATOM     11  C   UNL     1       3.402   2.641  19.077  0.00  0.00    +0.000 C 
ATOM     12  C   UNL     1       3.499   2.659  20.614  0.00  0.00    +0.000 C 
ATOM     13  C   UNL     1       2.098   2.645  21.233  0.00  0.00    +0.000 C 
ATOM     14  C   UNL     1       1.272   3.832  20.728  0.00  0.00    +0.000 C 
ATOM     15  C   UNL     1       1.193   3.804  19.190  0.00  0.00    +0.000 C 
BRANCH  10  16
ATOM     16  O   UNL     1       2.364   3.669  17.123  0.00  0.00    +0.000 OA
ATOM     17  H   UNL     1       3.184   3.902  16.618  0.00  0.00    +0.000 HD
ENDBRANCH  10  16
ENDBRANCH   1  10
BRANCH   1  18
ATOM     18  C   UNL     1       2.670   6.394  17.900  0.00  0.00    +0.000 C 
BRANCH  18  19
ATOM     19  N   UNL     1       2.225   7.600  18.635  0.00  0.00    +0.000 NA
ATOM     20  C   UNL     1       1.577   7.404  19.937  0.00  0.00    +0.000 C 
ATOM     21  C   UNL     1       1.658   8.719  20.728  0.00  0.00    +0.000 C 
ATOM     22  N   UNL     1       1.086   9.861  19.981  0.00  0.00    +0.000 NA
ATOM     23  C   UNL     1      -0.383   9.886  20.000  0.00  0.00    +0.000 C 
ATOM     24  C   UNL     1       1.643   9.963  18.615  0.00  0.00    +0.000 C 
ATOM     25  C   UNL     1       1.543   8.634  17.843  0.00  0.00    +0.000 C 
ENDBRANCH  18  19
ENDBRANCH   1  18
TORSDOF 6
ENDMDL
MODEL 2
REMARK VINA RESULT:      -7.2      2.627      6.207
REMARK  Name = 
REMARK  8 active torsions:
REMARK  status: ('A' for Active; 'I' for Inactive)
REMARK    1  A    between atoms: C_1  and  O_2
REMARK    2  A    between atoms: O_2  and  C_3
REMARK    3  A    between atoms: C_7  and  C_8
REMARK    4  A    between atoms: C_8  and  C_9
REMARK    5  A    between atoms: C_8  and  C_17
REMARK    6  A    between atoms: C_9  and  N_10
REMARK    7  A    between atoms: N_13  and  C_14
REMARK    8  A    between atoms: C_17  and  O_18
REMARK                            x       y       z     vdW  Elec       q    Type
REMARK                         _______ _______ _______ _____ _____    ______ ____
ROOT
ATOM      1  C   UNL     1       3.043   5.390  19.179  0.00  0.00    +0.000 C 
ENDROOT
BRANCH   1   6
ATOM      2  C   UNL     1       1.302   8.462  20.722  0.00  0.00    +0.000 A 
ATOM      3  C   UNL     1       1.193   9.315  19.610  0.00  0.00    +0.000 A 
ATOM      4  C   UNL     1       1.649   8.896  18.362  0.00  0.00    +0.000 A 
ATOM      5  C   UNL     1       2.236   7.640  18.204  0.00  0.00    +0.000 A 
ATOM      6  C   UNL     1       2.359   6.761  19.301  0.00  0.00    +0.000 A 
ATOM      7  C   UNL     1       1.871   7.189  20.553  0.00  0.00    +0.000 A 
BRANCH   2   9
ATOM      8  C   UNL     1      -0.301   9.362  22.383  0.00  0.00    +0.000 C 
ATOM      9  O   UNL     1       0.899   8.805  21.978  0.00  0.00    +0.000 OA
ENDBRANCH   2   9
ENDBRANCH   1   6
BRANCH   1  10
ATOM     10  C   UNL     1       2.453   4.387  20.272  0.00  0.00    +0.000 C 
ATOM     11  C   UNL     1       0.953   4.017  19.996  0.00  0.00    +0.000 C 
ATOM     12  C   UNL     1       0.773   3.158  18.730  0.00  0.00    +0.000 C 
ATOM     13  C   UNL     1       1.575   1.859  18.853  0.00  0.00    +0.000 C 
ATOM     14  C   UNL     1       3.057   2.160  19.097  0.00  0.00    +0.000 C 
ATOM     15  C   UNL     1       3.218   3.027  20.360  0.00  0.00    +0.000 C 
BRANCH  10  16
ATOM     16  O   UNL     1       2.569   4.984  21.546  0.00  0.00    +0.000 OA
ATOM     17  H   UNL     1       2.872   4.303  22.199  0.00  0.00    +0.000 HD
ENDBRANCH  10  16
ENDBRANCH   1  10
BRANCH   1  18
ATOM     18  C   UNL     1       4.603   5.484  19.286  0.00  0.00    +0.000 C 
BRANCH  18  19
ATOM     19  N   UNL     1       5.416   4.941  18.174  0.00  0.00    +0.000 NA
ATOM     20  C   UNL     1       6.736   5.537  17.941  0.00  0.00    +0.000 C 
ATOM     21  C   UNL     1       7.585   4.546  17.128  0.00  0.00    +0.000 C 
ATOM     22  N   UNL     1       6.921   4.139  15.869  0.00  0.00    +0.000 NA
ATOM     23  C   UNL     1       7.012   5.155  14.814  0.00  0.00    +0.000 C 
ATOM     24  C   UNL     1       5.537   3.673  16.100  0.00  0.00    +0.000 C 
ATOM     25  C   UNL     1       4.708   4.687  16.911  0.00  0.00    +0.000 C 
ENDBRANCH  18  19
ENDBRANCH   1  18
TORSDOF 6
ENDMDL
MODEL 3
REMARK VINA RESULT:      -7.1      2.560      6.099
REMARK  Name = 
REMARK  8 active torsions:
REMARK  status: ('A' for Active; 'I' for Inactive)
REMARK    1  A    between atoms: C_1  and  O_2
REMARK    2  A    between atoms: O_2  and  C_3
REMARK    3  A    between atoms: C_7  and  C_8
REMARK    4  A    between atoms: C_8  and  C_9
REMARK    5  A    between atoms: C_8  and  C_17
REMARK    6  A    between atoms: C_9  and  N_10
REMARK    7  A    between atoms: N_13  and  C_14
REMARK    8  A    between atoms: C_17  and  O_18
REMARK                            x       y       z     vdW  Elec       q    Type
REMARK                         _______ _______ _______ _____ _____    ______ ____
ROOT
ATOM      1  C   UNL     1       2.953   5.408  19.265  0.00  0.00    +0.000 C 
ENDROOT
BRANCH   1   6
ATOM      2  C   UNL     1       1.233   8.427  20.932  0.00  0.00    +0.000 A 
ATOM      3  C   UNL     1       1.111   9.318  19.851  0.00  0.00    +0.000 A 
ATOM      4  C   UNL     1       1.552   8.941  18.584  0.00  0.00    +0.000 A 
ATOM      5  C   UNL     1       2.137   7.691  18.377  0.00  0.00    +0.000 A 
ATOM      6  C   UNL     1       2.272   6.775  19.442  0.00  0.00    +0.000 A 
ATOM      7  C   UNL     1       1.798   7.160  20.713  0.00  0.00    +0.000 A 
BRANCH   2   9
ATOM      8  C   UNL     1      -0.132   9.611  22.627  0.00  0.00    +0.000 C 
ATOM      9  O   UNL     1       0.845   8.728  22.204  0.00  0.00    +0.000 OA
ENDBRANCH   2   9
ENDBRANCH   1   6
BRANCH   1  10
ATOM     10  C   UNL     1       2.393   4.377  20.348  0.00  0.00    +0.000 C 
ATOM     11  C   UNL     1       0.892   3.997  20.092  0.00  0.00    +0.000 C 
ATOM     12  C   UNL     1       0.696   3.163  18.812  0.00  0.00    +0.000 C 
ATOM     13  C   UNL     1       1.513   1.870  18.892  0.00  0.00    +0.000 C 
ATOM     14  C   UNL     1       2.997   2.181  19.115  0.00  0.00    +0.000 C 
ATOM     15  C   UNL     1       3.173   3.023  20.393  0.00  0.00    +0.000 C 
BRANCH  10  16
ATOM     16  O   UNL     1       2.527   4.948  21.632  0.00  0.00    +0.000 OA
ATOM     17  H   UNL     1       2.954   4.291  22.239  0.00  0.00    +0.000 HD
ENDBRANCH  10  16
ENDBRANCH   1  10
BRANCH   1  18
ATOM     18  C   UNL     1       4.515   5.501  19.332  0.00  0.00    +0.000 C 
BRANCH  18  19
ATOM     19  N   UNL     1       5.257   5.740  18.074  0.00  0.00    +0.000 NA
ATOM     20  C   UNL     1       4.577   5.429  16.811  0.00  0.00    +0.000 C 
ATOM     21  C   UNL     1       5.278   6.191  15.676  0.00  0.00    +0.000 C 
ATOM     22  N   UNL     1       6.729   5.905  15.618  0.00  0.00    +0.000 NA
ATOM     23  C   UNL     1       7.038   4.609  15.002  0.00  0.00    +0.000 C 
ATOM     24  C   UNL     1       7.380   6.084  16.934  0.00  0.00    +0.000 C 
ATOM     25  C   UNL     1       6.662   5.305  18.051  0.00  0.00    +0.000 C 
ENDBRANCH  18  19
ENDBRANCH   1  18
TORSDOF 6
ENDMDL
MODEL 4
REMARK VINA RESULT:      -7.1      0.890      1.359
REMARK  Name = 
REMARK  8 active torsions:
REMARK  status: ('A' for Active; 'I' for Inactive)
REMARK    1  A    between atoms: C_1  and  O_2
REMARK    2  A    between atoms: O_2  and  C_3
REMARK    3  A    between atoms: C_7  and  C_8
REMARK    4  A    between atoms: C_8  and  C_9
REMARK    5  A    between atoms: C_8  and  C_17
REMARK    6  A    between atoms: C_9  and  N_10
REMARK    7  A    between atoms: N_13  and  C_14
REMARK    8  A    between atoms: C_17  and  O_18
REMARK                            x       y       z     vdW  Elec       q    Type
REMARK                         _______ _______ _______ _____ _____    ______ ____
ROOT
ATOM      1  C   UNL     1       3.248   5.808  18.831  0.00  0.00    +0.000 C 
ENDROOT
BRANCH   1   6
ATOM      2  C   UNL     1       6.053   5.110  16.283  0.00  0.00    +0.000 A 
ATOM      3  C   UNL     1       7.173   4.976  17.123  0.00  0.00    +0.000 A 
ATOM      4  C   UNL     1       7.026   5.080  18.504  0.00  0.00    +0.000 A 
ATOM      5  C   UNL     1       5.776   5.338  19.069  0.00  0.00    +0.000 A 
ATOM      6  C   UNL     1       4.633   5.476  18.252  0.00  0.00    +0.000 A 
ATOM      7  C   UNL     1       4.793   5.344  16.858  0.00  0.00    +0.000 A 
BRANCH   2   9
ATOM      8  C   UNL     1       6.231   3.925  14.115  0.00  0.00    +0.000 C 
ATOM      9  O   UNL     1       6.118   5.042  14.924  0.00  0.00    +0.000 OA
ENDBRANCH   2   9
ENDBRANCH   1   6
BRANCH   1  10
ATOM     10  C   UNL     1       2.286   4.541  18.704  0.00  0.00    +0.000 C 
ATOM     11  C   UNL     1       3.081   3.188  18.669  0.00  0.00    +0.000 C 
ATOM     12  C   UNL     1       3.765   2.862  20.010  0.00  0.00    +0.000 C 
ATOM     13  C   UNL     1       2.723   2.780  21.130  0.00  0.00    +0.000 C 
ATOM     14  C   UNL     1       1.932   4.089  21.228  0.00  0.00    +0.000 C 
ATOM     15  C   UNL     1       1.263   4.403  19.878  0.00  0.00    +0.000 C 
BRANCH  10  16
ATOM     16  O   UNL     1       1.516   4.671  17.527  0.00  0.00    +0.000 OA
ATOM     17  H   UNL     1       1.785   3.969  16.881  0.00  0.00    +0.000 HD
ENDBRANCH  10  16
ENDBRANCH   1  10
BRANCH   1  18
ATOM     18  C   UNL     1       2.605   7.072  18.166  0.00  0.00    +0.000 C 
BRANCH  18  19
ATOM     19  N   UNL     1       1.711   7.919  18.988  0.00  0.00    +0.000 NA
ATOM     20  C   UNL     1       1.468   9.294  18.537  0.00  0.00    +0.000 C 
ATOM     21  C   UNL     1       0.180   9.807  19.199  0.00  0.00    +0.000 C 
ATOM     22  N   UNL     1       0.224   9.698  20.675  0.00  0.00    +0.000 NA
ATOM     23  C   UNL     1       1.026  10.753  21.308  0.00  0.00    +0.000 C 
ATOM     24  C   UNL     1       0.611   8.342  21.118  0.00  0.00    +0.000 C 
ATOM     25  C   UNL     1       1.907   7.855  20.444  0.00  0.00    +0.000 C 
ENDBRANCH  18  19
ENDBRANCH   1  18
TORSDOF 6
ENDMDL
MODEL 5
REMARK VINA RESULT:      -7.0      2.569      5.781
REMARK  Name = 
REMARK  8 active torsions:
REMARK  status: ('A' for Active; 'I' for Inactive)
REMARK    1  A    between atoms: C_1  and  O_2
REMARK    2  A    between atoms: O_2  and  C_3
REMARK    3  A    between atoms: C_7  and  C_8
REMARK    4  A    between atoms: C_8  and  C_9
REMARK    5  A    between atoms: C_8  and  C_17
REMARK    6  A    between atoms: C_9  and  N_10
REMARK    7  A    between atoms: N_13  and  C_14
REMARK    8  A    between atoms: C_17  and  O_18
REMARK                            x       y       z     vdW  Elec       q    Type
REMARK                         _______ _______ _______ _____ _____    ______ ____
ROOT
ATOM      1  C   UNL     1       2.992   5.452  19.319  0.00  0.00    +0.000 C 
ENDROOT
BRANCH   1   6
ATOM      2  C   UNL     1       1.605   9.031  18.980  0.00  0.00    +0.000 A 
ATOM      3  C   UNL     1       0.951   9.200  20.213  0.00  0.00    +0.000 A 
ATOM      4  C   UNL     1       0.978   8.182  21.163  0.00  0.00    +0.000 A 
ATOM      5  C   UNL     1       1.634   6.978  20.897  0.00  0.00    +0.000 A 
ATOM      6  C   UNL     1       2.301   6.779  19.669  0.00  0.00    +0.000 A 
ATOM      7  C   UNL     1       2.285   7.828  18.728  0.00  0.00    +0.000 A 
BRANCH   2   9
ATOM      8  C   UNL     1       2.201  11.220  17.984  0.00  0.00    +0.000 C 
ATOM      9  O   UNL     1       1.607   9.970  17.993  0.00  0.00    +0.000 OA
ENDBRANCH   2   9
ENDBRANCH   1   6
BRANCH   1  10
ATOM     10  C   UNL     1       2.480   4.297  20.296  0.00  0.00    +0.000 C 
ATOM     11  C   UNL     1       0.988   3.898  20.019  0.00  0.00    +0.000 C 
ATOM     12  C   UNL     1       0.800   3.194  18.661  0.00  0.00    +0.000 C 
ATOM     13  C   UNL     1       1.658   1.927  18.599  0.00  0.00    +0.000 C 
ATOM     14  C   UNL     1       3.134   2.261  18.837  0.00  0.00    +0.000 C 
ATOM     15  C   UNL     1       3.302   2.971  20.192  0.00  0.00    +0.000 C 
BRANCH  10  16
ATOM     16  O   UNL     1       2.615   4.738  21.631  0.00  0.00    +0.000 OA
ATOM     17  H   UNL     1       2.289   4.030  22.243  0.00  0.00    +0.000 HD
ENDBRANCH  10  16
ENDBRANCH   1  10
BRANCH   1  18
ATOM     18  C   UNL     1       4.554   5.561  19.349  0.00  0.00    +0.000 C 
BRANCH  18  19
ATOM     19  N   UNL     1       5.279   5.588  18.058  0.00  0.00    +0.000 NA
ATOM     20  C   UNL     1       4.481   5.616  16.827  0.00  0.00    +0.000 C 
ATOM     21  C   UNL     1       5.362   6.140  15.682  0.00  0.00    +0.000 C 
ATOM     22  N   UNL     1       6.607   5.354  15.527  0.00  0.00    +0.000 NA
ATOM     23  C   UNL     1       6.399   4.071  14.844  0.00  0.00    +0.000 C 
ATOM     24  C   UNL     1       7.333   5.210  16.807  0.00  0.00    +0.000 C 
ATOM     25  C   UNL     1       6.428   4.679  17.935  0.00  0.00    +0.000 C 
ENDBRANCH  18  19
ENDBRANCH   1  18
TORSDOF 6
ENDMDL
MODEL 6
REMARK VINA RESULT:      -6.9      2.649      5.817
REMARK  Name = 
REMARK  8 active torsions:
REMARK  status: ('A' for Active; 'I' for Inactive)
REMARK    1  A    between atoms: C_1  and  O_2
REMARK    2  A    between atoms: O_2  and  C_3
REMARK    3  A    between atoms: C_7  and  C_8
REMARK    4  A    between atoms: C_8  and  C_9
REMARK    5  A    between atoms: C_8  and  C_17
REMARK    6  A    between atoms: C_9  and  N_10
REMARK    7  A    between atoms: N_13  and  C_14
REMARK    8  A    between atoms: C_17  and  O_18
REMARK                            x       y       z     vdW  Elec       q    Type
REMARK                         _______ _______ _______ _____ _____    ______ ____
ROOT
ATOM      1  C   UNL     1       3.042   5.354  19.321  0.00  0.00    +0.000 C 
ENDROOT
BRANCH   1   6
ATOM      2  C   UNL     1       1.829   8.966  18.743  0.00  0.00    +0.000 A 
ATOM      3  C   UNL     1       1.095   9.211  19.916  0.00  0.00    +0.000 A 
ATOM      4  C   UNL     1       1.013   8.232  20.905  0.00  0.00    +0.000 A 
ATOM      5  C   UNL     1       1.636   6.995  20.735  0.00  0.00    +0.000 A 
ATOM      6  C   UNL     1       2.381   6.720  19.568  0.00  0.00    +0.000 A 
ATOM      7  C   UNL     1       2.477   7.729  18.588  0.00  0.00    +0.000 A 
BRANCH   2   9
ATOM      8  C   UNL     1       2.197  11.221  17.785  0.00  0.00    +0.000 C 
ATOM      9  O   UNL     1       1.941   9.863  17.723  0.00  0.00    +0.000 OA
ENDBRANCH   2   9
ENDBRANCH   1   6
BRANCH   1  10
ATOM     10  C   UNL     1       2.467   4.278  20.351  0.00  0.00    +0.000 C 
ATOM     11  C   UNL     1       0.961   3.934  20.078  0.00  0.00    +0.000 C 
ATOM     12  C   UNL     1       0.752   3.169  18.757  0.00  0.00    +0.000 C 
ATOM     13  C   UNL     1       1.549   1.862  18.771  0.00  0.00    +0.000 C 
ATOM     14  C   UNL     1       3.037   2.139  19.008  0.00  0.00    +0.000 C 
ATOM     15  C   UNL     1       3.227   2.912  20.326  0.00  0.00    +0.000 C 
BRANCH  10  16
ATOM     16  O   UNL     1       2.611   4.782  21.663  0.00  0.00    +0.000 OA
ATOM     17  H   UNL     1       3.033   4.091  22.233  0.00  0.00    +0.000 HD
ENDBRANCH  10  16
ENDBRANCH   1  10
BRANCH   1  18
ATOM     18  C   UNL     1       4.605   5.421  19.391  0.00  0.00    +0.000 C 
BRANCH  18  19
ATOM     19  N   UNL     1       5.381   4.909  18.238  0.00  0.00    +0.000 NA
ATOM     20  C   UNL     1       6.711   5.481  18.003  0.00  0.00    +0.000 C 
ATOM     21  C   UNL     1       7.516   4.506  17.129  0.00  0.00    +0.000 C 
ATOM     22  N   UNL     1       6.816   4.173  15.868  0.00  0.00    +0.000 NA
ATOM     23  C   UNL     1       6.911   5.234  14.857  0.00  0.00    +0.000 C 
ATOM     24  C   UNL     1       5.425   3.733  16.107  0.00  0.00    +0.000 C 
ATOM     25  C   UNL     1       4.640   4.730  16.981  0.00  0.00    +0.000 C 
ENDBRANCH  18  19
ENDBRANCH   1  18
TORSDOF 6
ENDMDL
MODEL 7
REMARK VINA RESULT:      -6.8      0.955      1.865
REMARK  Name = 
REMARK  8 active torsions:
REMARK  status: ('A' for Active; 'I' for Inactive)
REMARK    1  A    between atoms: C_1  and  O_2
REMARK    2  A    between atoms: O_2  and  C_3
REMARK    3  A    between atoms: C_7  and  C_8
REMARK    4  A    between atoms: C_8  and  C_9
REMARK    5  A    between atoms: C_8  and  C_17
REMARK    6  A    between atoms: C_9  and  N_10
REMARK    7  A    between atoms: N_13  and  C_14
REMARK    8  A    between atoms: C_17  and  O_18
REMARK                            x       y       z     vdW  Elec       q    Type
REMARK                         _______ _______ _______ _____ _____    ______ ____
ROOT
ATOM      1  C   UNL     1       3.183   5.248  18.514  0.00  0.00    +0.000 C 
ENDROOT
BRANCH   1   6
ATOM      2  C   UNL     1       6.976   4.852  17.961  0.00  0.00    +0.000 A 
ATOM      3  C   UNL     1       7.024   4.409  16.628  0.00  0.00    +0.000 A 
ATOM      4  C   UNL     1       5.846   4.265  15.898  0.00  0.00    +0.000 A 
ATOM      5  C   UNL     1       4.608   4.537  16.483  0.00  0.00    +0.000 A 
ATOM      6  C   UNL     1       4.528   4.984  17.819  0.00  0.00    +0.000 A 
ATOM      7  C   UNL     1       5.730   5.149  18.537  0.00  0.00    +0.000 A 
BRANCH   2   9
ATOM      8  C   UNL     1       8.175   5.538  20.018  0.00  0.00    +0.000 C 
ATOM      9  O   UNL     1       8.079   4.998  18.747  0.00  0.00    +0.000 OA
ENDBRANCH   2   9
ENDBRANCH   1   6
BRANCH   1  10
ATOM     10  C   UNL     1       2.316   3.908  18.548  0.00  0.00    +0.000 C 
ATOM     11  C   UNL     1       3.188   2.639  18.853  0.00  0.00    +0.000 C 
ATOM     12  C   UNL     1       3.745   2.627  20.289  0.00  0.00    +0.000 C 
ATOM     13  C   UNL     1       2.597   2.676  21.302  0.00  0.00    +0.000 C 
ATOM     14  C   UNL     1       1.724   3.914  21.069  0.00  0.00    +0.000 C 
ATOM     15  C   UNL     1       1.184   3.915  19.627  0.00  0.00    +0.000 C 
BRANCH  10  16
ATOM     16  O   UNL     1       1.669   3.753  17.303  0.00  0.00    +0.000 OA
ATOM     17  H   UNL     1       0.972   4.451  17.208  0.00  0.00    +0.000 HD
ENDBRANCH  10  16
ENDBRANCH   1  10
BRANCH   1  18
ATOM     18  C   UNL     1       2.382   6.419  17.851  0.00  0.00    +0.000 C 
BRANCH  18  19
ATOM     19  N   UNL     1       2.053   7.601  18.679  0.00  0.00    +0.000 NA
ATOM     20  C   UNL     1       1.486   7.364  20.012  0.00  0.00    +0.000 C 
ATOM     21  C   UNL     1       1.691   8.626  20.864  0.00  0.00    +0.000 C 
ATOM     22  N   UNL     1       1.130   9.836  20.221  0.00  0.00    +0.000 NA
ATOM     23  C   UNL     1      -0.330   9.932  20.345  0.00  0.00    +0.000 C 
ATOM     24  C   UNL     1       1.598   9.988  18.826  0.00  0.00    +0.000 C 
ATOM     25  C   UNL     1       1.375   8.711  17.994  0.00  0.00    +0.000 C 
ENDBRANCH  18  19
ENDBRANCH   1  18
TORSDOF 6
ENDMDL
MODEL 8
REMARK VINA RESULT:      -6.8      1.175      2.224
REMARK  Name = 
REMARK  8 active torsions:
REMARK  status: ('A' for Active; 'I' for Inactive)
REMARK    1  A    between atoms: C_1  and  O_2
REMARK    2  A    between atoms: O_2  and  C_3
REMARK    3  A    between atoms: C_7  and  C_8
REMARK    4  A    between atoms: C_8  and  C_9
REMARK    5  A    between atoms: C_8  and  C_17
REMARK    6  A    between atoms: C_9  and  N_10
REMARK    7  A    between atoms: N_13  and  C_14
REMARK    8  A    between atoms: C_17  and  O_18
REMARK                            x       y       z     vdW  Elec       q    Type
REMARK                         _______ _______ _______ _____ _____    ______ ____
ROOT
ATOM      1  C   UNL     1       3.138   5.596  18.531  0.00  0.00    +0.000 C 
ENDROOT
BRANCH   1   6
ATOM      2  C   UNL     1       6.878   4.842  17.988  0.00  0.00    +0.000 A 
ATOM      3  C   UNL     1       6.887   4.396  16.655  0.00  0.00    +0.000 A 
ATOM      4  C   UNL     1       5.703   4.365  15.921  0.00  0.00    +0.000 A 
ATOM      5  C   UNL     1       4.495   4.753  16.502  0.00  0.00    +0.000 A 
ATOM      6  C   UNL     1       4.454   5.206  17.839  0.00  0.00    +0.000 A 
ATOM      7  C   UNL     1       5.663   5.255  18.561  0.00  0.00    +0.000 A 
BRANCH   2   9
ATOM      8  C   UNL     1       8.211   5.623  19.924  0.00  0.00    +0.000 C 
ATOM      9  O   UNL     1       7.988   4.882  18.777  0.00  0.00    +0.000 OA
ENDBRANCH   2   9
ENDBRANCH   1   6
BRANCH   1  10
ATOM     10  C   UNL     1       2.148   4.344  18.563  0.00  0.00    +0.000 C 
ATOM     11  C   UNL     1       2.916   2.976  18.626  0.00  0.00    +0.000 C 
ATOM     12  C   UNL     1       3.650   2.763  19.963  0.00  0.00    +0.000 C 
ATOM     13  C   UNL     1       2.655   2.810  21.126  0.00  0.00    +0.000 C 
ATOM     14  C   UNL     1       1.893   4.139  21.132  0.00  0.00    +0.000 C 
ATOM     15  C   UNL     1       1.173   4.340  19.785  0.00  0.00    +0.000 C 
BRANCH  10  16
ATOM     16  O   UNL     1       1.332   4.379  17.412  0.00  0.00    +0.000 OA
ATOM     17  H   UNL     1       1.455   5.248  16.951  0.00  0.00    +0.000 HD
ENDBRANCH  10  16
ENDBRANCH   1  10
BRANCH   1  18
ATOM     18  C   UNL     1       2.452   6.837  17.865  0.00  0.00    +0.000 C 
BRANCH  18  19
ATOM     19  N   UNL     1       1.687   7.763  18.730  0.00  0.00    +0.000 NA
ATOM     20  C   UNL     1       1.467   9.129  18.241  0.00  0.00    +0.000 C 
ATOM     21  C   UNL     1       0.278   9.737  19.001  0.00  0.00    +0.000 C 
ATOM     22  N   UNL     1       0.463   9.687  20.469  0.00  0.00    +0.000 NA
ATOM     23  C   UNL     1       1.375  10.724  20.971  0.00  0.00    +0.000 C 
ATOM     24  C   UNL     1       0.826   8.331  20.935  0.00  0.00    +0.000 C 
ATOM     25  C   UNL     1       2.024   7.749  20.161  0.00  0.00    +0.000 C 
ENDBRANCH  18  19
ENDBRANCH   1  18
TORSDOF 6
ENDMDL
MODEL 9
REMARK VINA RESULT:      -6.7      2.549      6.087
REMARK  Name = 
REMARK  8 active torsions:
REMARK  status: ('A' for Active; 'I' for Inactive)
REMARK    1  A    between atoms: C_1  and  O_2
REMARK    2  A    between atoms: O_2  and  C_3
REMARK    3  A    between atoms: C_7  and  C_8
REMARK    4  A    between atoms: C_8  and  C_9
REMARK    5  A    between atoms: C_8  and  C_17
REMARK    6  A    between atoms: C_9  and  N_10
REMARK    7  A    between atoms: N_13  and  C_14
REMARK    8  A    between atoms: C_17  and  O_18
REMARK                            x       y       z     vdW  Elec       q    Type
REMARK                         _______ _______ _______ _____ _____    ______ ____
ROOT
ATOM      1  C   UNL     1       2.963   5.501  18.928  0.00  0.00    +0.000 C 
ENDROOT
BRANCH   1   6
ATOM      2  C   UNL     1       1.329   8.455  20.787  0.00  0.00    +0.000 A 
ATOM      3  C   UNL     1       1.121   9.370  19.740  0.00  0.00    +0.000 A 
ATOM      4  C   UNL     1       1.477   9.030  18.436  0.00  0.00    +0.000 A 
ATOM      5  C   UNL     1       2.060   7.794  18.157  0.00  0.00    +0.000 A 
ATOM      6  C   UNL     1       2.280   6.854  19.187  0.00  0.00    +0.000 A 
ATOM      7  C   UNL     1       1.892   7.201  20.497  0.00  0.00    +0.000 A 
BRANCH   2   9
ATOM      8  C   UNL     1       0.222   9.717  22.609  0.00  0.00    +0.000 C 
ATOM      9  O   UNL     1       1.027   8.719  22.090  0.00  0.00    +0.000 OA
ENDBRANCH   2   9
ENDBRANCH   1   6
BRANCH   1  10
ATOM     10  C   UNL     1       2.087   4.321  19.550  0.00  0.00    +0.000 C 
ATOM     11  C   UNL     1       1.376   3.459  18.448  0.00  0.00    +0.000 C 
ATOM     12  C   UNL     1       2.366   2.633  17.604  0.00  0.00    +0.000 C 
ATOM     13  C   UNL     1       3.172   1.693  18.505  0.00  0.00    +0.000 C 
ATOM     14  C   UNL     1       3.912   2.485  19.588  0.00  0.00    +0.000 C 
ATOM     15  C   UNL     1       2.910   3.311  20.415  0.00  0.00    +0.000 C 
BRANCH  10  16
ATOM     16  O   UNL     1       1.120   4.879  20.415  0.00  0.00    +0.000 OA
ATOM     17  H   UNL     1       0.852   4.201  21.085  0.00  0.00    +0.000 HD
ENDBRANCH  10  16
ENDBRANCH   1  10
BRANCH   1  18
ATOM     18  C   UNL     1       4.432   5.457  19.470  0.00  0.00    +0.000 C 
BRANCH  18  19
ATOM     19  N   UNL     1       5.542   5.580  18.497  0.00  0.00    +0.000 NA
ATOM     20  C   UNL     1       5.376   6.528  17.389  0.00  0.00    +0.000 C 
ATOM     21  C   UNL     1       6.763   6.871  16.825  0.00  0.00    +0.000 C 
ATOM     22  N   UNL     1       7.521   5.664  16.424  0.00  0.00    +0.000 NA
ATOM     23  C   UNL     1       7.082   5.108  15.137  0.00  0.00    +0.000 C 
ATOM     24  C   UNL     1       7.560   4.652  17.501  0.00  0.00    +0.000 C 
ATOM     25  C   UNL     1       6.156   4.323  18.044  0.00  0.00    +0.000 C 
ENDBRANCH  18  19
ENDBRANCH   1  18
TORSDOF 6
ENDMDL
