MODEL 1
REMARK VINA RESULT:      -8.9      0.000      0.000
REMARK  Name = 
REMARK  2 active torsions:
REMARK  status: ('A' for Active; 'I' for Inactive)
REMARK    1  A    between atoms: C_6  and  C_7
REMARK    2  A    between atoms: C_7  and  N_8
REMARK                            x       y       z     vdW  Elec       q    Type
REMARK                         _______ _______ _______ _____ _____    ______ ____
ROOT
ATOM      1  N   UNL     1       6.102   4.368  16.686  0.00  0.00    +0.000 NA
ATOM      2  C   UNL     1       4.679   4.490  16.367  0.00  0.00    +0.000 C 
ATOM      3  O   UNL     1       3.849   3.534  17.131  0.00  0.00    +0.000 OA
ATOM      4  C   UNL     1       4.153   3.530  18.526  0.00  0.00    +0.000 A 
ATOM      5  C   UNL     1       4.984   4.594  18.837  0.00  0.00    +0.000 A 
ATOM      6  C   UNL     1       4.306   5.725  19.301  0.00  0.00    +0.000 A 
ATOM      7  C   UNL     1       2.925   5.623  19.582  0.00  0.00    +0.000 A 
ATOM      8 CL   UNL     1       2.102   7.063  20.054  0.00  0.00    +0.000 Cl
ATOM      9  C   UNL     1       2.325   4.343  19.705  0.00  0.00    +0.000 A 
ATOM     10  C   UNL     1       1.191   4.073  20.484  0.00  0.00    +0.000 A 
ATOM     11  C   UNL     1       1.376   3.181  21.527  0.00  0.00    +0.000 A 
ATOM     12  C   UNL     1       2.517   2.407  21.493  0.00  0.00    +0.000 A 
ATOM     13  N   UNL     1       3.333   2.358  20.411  0.00  0.00    +0.000 NA
ATOM     14  C   UNL     1       3.170   3.281  19.441  0.00  0.00    +0.000 A 
ATOM     15  C   UNL     1       6.294   4.505  18.144  0.00  0.00    +0.000 C 
ENDROOT
BRANCH   1  16
ATOM     16  C   UNL     1       6.990   5.241  15.933  0.00  0.00    +0.000 C 
BRANCH  16  22
ATOM     17 CL   UNL     1       5.377   2.239  11.925  0.00  0.00    +0.000 Cl
ATOM     18  C   UNL     1       6.306   3.552  12.548  0.00  0.00    +0.000 A 
ATOM     19  C   UNL     1       7.113   4.288  11.681  0.00  0.00    +0.000 A 
ATOM     20  C   UNL     1       7.878   5.334  12.182  0.00  0.00    +0.000 A 
ATOM     21  C   UNL     1       7.848   5.637  13.553  0.00  0.00    +0.000 A 
ATOM     22  C   UNL     1       7.029   4.918  14.440  0.00  0.00    +0.000 A 
ATOM     23  C   UNL     1       6.264   3.868  13.918  0.00  0.00    +0.000 A 
ENDBRANCH  16  22
ENDBRANCH   1  16
TORSDOF 2
ENDMDL
MODEL 2
REMARK VINA RESULT:      -7.9      1.102      1.486
REMARK  Name = 
REMARK  2 active torsions:
REMARK  status: ('A' for Active; 'I' for Inactive)
REMARK    1  A    between atoms: C_6  and  C_7
REMARK    2  A    between atoms: C_7  and  N_8
REMARK                            x       y       z     vdW  Elec       q    Type
REMARK                         _______ _______ _______ _____ _____    ______ ____
ROOT
ATOM      1  N   UNL     1       6.059   4.232  16.857  0.00  0.00    +0.000 NA
ATOM      2  C   UNL     1       4.638   4.332  16.518  0.00  0.00    +0.000 C 
ATOM      3  O   UNL     1       3.806   3.393  17.300  0.00  0.00    +0.000 OA
ATOM      4  C   UNL     1       4.093   3.433  18.698  0.00  0.00    +0.000 A 
ATOM      5  C   UNL     1       4.911   4.512  18.987  0.00  0.00    +0.000 A 
ATOM      6  C   UNL     1       4.219   5.651  19.408  0.00  0.00    +0.000 A 
ATOM      7  C   UNL     1       2.835   5.547  19.675  0.00  0.00    +0.000 A 
ATOM      8 CL   UNL     1       1.994   6.993  20.093  0.00  0.00    +0.000 Cl
ATOM      9  C   UNL     1       2.244   4.265  19.829  0.00  0.00    +0.000 A 
ATOM     10  C   UNL     1       1.102   4.009  20.602  0.00  0.00    +0.000 A 
ATOM     11  C   UNL     1       1.281   3.151  21.673  0.00  0.00    +0.000 A 
ATOM     12  C   UNL     1       2.429   2.386  21.677  0.00  0.00    +0.000 A 
ATOM     13  N   UNL     1       3.258   2.311  20.607  0.00  0.00    +0.000 NA
ATOM     14  C   UNL     1       3.100   3.203  19.607  0.00  0.00    +0.000 A 
ATOM     15  C   UNL     1       6.231   4.414  18.313  0.00  0.00    +0.000 C 
ENDROOT
BRANCH   1  16
ATOM     16  C   UNL     1       6.949   5.089  16.090  0.00  0.00    +0.000 C 
BRANCH  16  22
ATOM     17 CL   UNL     1       8.320   6.445  11.195  0.00  0.00    +0.000 Cl
ATOM     18  C   UNL     1       7.554   5.368  12.304  0.00  0.00    +0.000 A 
ATOM     19  C   UNL     1       6.901   4.237  11.814  0.00  0.00    +0.000 A 
ATOM     20  C   UNL     1       6.267   3.377  12.702  0.00  0.00    +0.000 A 
ATOM     21  C   UNL     1       6.271   3.655  14.080  0.00  0.00    +0.000 A 
ATOM     22  C   UNL     1       6.938   4.781  14.593  0.00  0.00    +0.000 A 
ATOM     23  C   UNL     1       7.573   5.635  13.684  0.00  0.00    +0.000 A 
ENDBRANCH  16  22
ENDBRANCH   1  16
TORSDOF 2
ENDMDL
MODEL 3
REMARK VINA RESULT:      -7.8      4.548      7.377
REMARK  Name = 
REMARK  2 active torsions:
REMARK  status: ('A' for Active; 'I' for Inactive)
REMARK    1  A    between atoms: C_6  and  C_7
REMARK    2  A    between atoms: C_7  and  N_8
REMARK                            x       y       z     vdW  Elec       q    Type
REMARK                         _______ _______ _______ _____ _____    ______ ____
ROOT
ATOM      1  N   UNL     1       1.622   8.336  18.713  0.00  0.00    +0.000 NA
ATOM      2  C   UNL     1       2.088   7.751  19.972  0.00  0.00    +0.000 C 
ATOM      3  O   UNL     1       1.808   6.302  20.055  0.00  0.00    +0.000 OA
ATOM      4  C   UNL     1       2.206   5.593  18.881  0.00  0.00    +0.000 A 
ATOM      5  C   UNL     1       2.968   6.413  18.065  0.00  0.00    +0.000 A 
ATOM      6  C   UNL     1       4.346   6.270  18.246  0.00  0.00    +0.000 A 
ATOM      7  C   UNL     1       4.820   5.220  19.065  0.00  0.00    +0.000 A 
ATOM      8 CL   UNL     1       6.518   5.137  19.349  0.00  0.00    +0.000 Cl
ATOM      9  C   UNL     1       3.949   4.155  19.415  0.00  0.00    +0.000 A 
ATOM     10  C   UNL     1       4.374   2.852  19.713  0.00  0.00    +0.000 A 
ATOM     11  C   UNL     1       3.911   1.861  18.864  0.00  0.00    +0.000 A 
ATOM     12  C   UNL     1       2.845   2.182  18.050  0.00  0.00    +0.000 A 
ATOM     13  N   UNL     1       2.139   3.331  18.192  0.00  0.00    +0.000 NA
ATOM     14  C   UNL     1       2.647   4.304  18.976  0.00  0.00    +0.000 A 
ATOM     15  C   UNL     1       2.203   7.590  17.579  0.00  0.00    +0.000 C 
ENDROOT
BRANCH   1  16
ATOM     16  C   UNL     1       1.815   9.771  18.580  0.00  0.00    +0.000 C 
BRANCH  16  22
ATOM     17 CL   UNL     1      -3.302   9.896  17.361  0.00  0.00    +0.000 Cl
ATOM     18  C   UNL     1      -1.876  10.655  17.965  0.00  0.00    +0.000 A 
ATOM     19  C   UNL     1      -1.931  11.992  18.359  0.00  0.00    +0.000 A 
ATOM     20  C   UNL     1      -0.780  12.613  18.828  0.00  0.00    +0.000 A 
ATOM     21  C   UNL     1       0.430  11.903  18.891  0.00  0.00    +0.000 A 
ATOM     22  C   UNL     1       0.501  10.551  18.514  0.00  0.00    +0.000 A 
ATOM     23  C   UNL     1      -0.668   9.941  18.045  0.00  0.00    +0.000 A 
ENDBRANCH  16  22
ENDBRANCH   1  16
TORSDOF 2
ENDMDL
MODEL 4
REMARK VINA RESULT:      -7.7      1.742      2.134
REMARK  Name = 
REMARK  2 active torsions:
REMARK  status: ('A' for Active; 'I' for Inactive)
REMARK    1  A    between atoms: C_6  and  C_7
REMARK    2  A    between atoms: C_7  and  N_8
REMARK                            x       y       z     vdW  Elec       q    Type
REMARK                         _______ _______ _______ _____ _____    ______ ____
ROOT
ATOM      1  N   UNL     1       5.849   5.063  16.522  0.00  0.00    +0.000 NA
ATOM      2  C   UNL     1       5.842   5.513  17.915  0.00  0.00    +0.000 C 
ATOM      3  O   UNL     1       4.472   5.688  18.442  0.00  0.00    +0.000 OA
ATOM      4  C   UNL     1       3.627   4.569  18.168  0.00  0.00    +0.000 A 
ATOM      5  C   UNL     1       4.379   3.510  17.687  0.00  0.00    +0.000 A 
ATOM      6  C   UNL     1       4.759   2.592  18.670  0.00  0.00    +0.000 A 
ATOM      7  C   UNL     1       4.208   2.716  19.965  0.00  0.00    +0.000 A 
ATOM      8 CL   UNL     1       4.778   1.630  21.177  0.00  0.00    +0.000 Cl
ATOM      9  C   UNL     1       3.066   3.533  20.168  0.00  0.00    +0.000 A 
ATOM     10  C   UNL     1       2.121   3.333  21.186  0.00  0.00    +0.000 A 
ATOM     11  C   UNL     1       0.833   3.055  20.763  0.00  0.00    +0.000 A 
ATOM     12  C   UNL     1       0.533   3.333  19.446  0.00  0.00    +0.000 A 
ATOM     13  N   UNL     1       1.373   4.024  18.637  0.00  0.00    +0.000 NA
ATOM     14  C   UNL     1       2.642   4.223  19.048  0.00  0.00    +0.000 A 
ATOM     15  C   UNL     1       5.043   3.832  16.398  0.00  0.00    +0.000 C 
ENDROOT
BRANCH   1  16
ATOM     16  C   UNL     1       7.164   4.919  15.917  0.00  0.00    +0.000 C 
BRANCH  16  22
ATOM     17 CL   UNL     1       5.310   2.338  11.723  0.00  0.00    +0.000 Cl
ATOM     18  C   UNL     1       6.276   3.585  12.422  0.00  0.00    +0.000 A 
ATOM     19  C   UNL     1       7.029   4.411  11.588  0.00  0.00    +0.000 A 
ATOM     20  C   UNL     1       7.823   5.405  12.148  0.00  0.00    +0.000 A 
ATOM     21  C   UNL     1       7.877   5.564  13.543  0.00  0.00    +0.000 A 
ATOM     22  C   UNL     1       7.112   4.752  14.398  0.00  0.00    +0.000 A 
ATOM     23  C   UNL     1       6.317   3.757  13.817  0.00  0.00    +0.000 A 
ENDBRANCH  16  22
ENDBRANCH   1  16
TORSDOF 2
ENDMDL
MODEL 5
REMARK VINA RESULT:      -7.6      4.634      7.634
REMARK  Name = 
REMARK  2 active torsions:
REMARK  status: ('A' for Active; 'I' for Inactive)
REMARK    1  A    between atoms: C_6  and  C_7
REMARK    2  A    between atoms: C_7  and  N_8
REMARK                            x       y       z     vdW  Elec       q    Type
REMARK                         _______ _______ _______ _____ _____    ______ ____
ROOT
ATOM      1  N   UNL     1       1.697   8.370  18.696  0.00  0.00    +0.000 NA
ATOM      2  C   UNL     1       2.117   7.734  19.946  0.00  0.00    +0.000 C 
ATOM      3  O   UNL     1       1.792   6.292  19.980  0.00  0.00    +0.000 OA
ATOM      4  C   UNL     1       2.196   5.607  18.793  0.00  0.00    +0.000 A 
ATOM      5  C   UNL     1       2.999   6.427  18.019  0.00  0.00    +0.000 A 
ATOM      6  C   UNL     1       4.369   6.237  18.226  0.00  0.00    +0.000 A 
ATOM      7  C   UNL     1       4.792   5.150  19.023  0.00  0.00    +0.000 A 
ATOM      8 CL   UNL     1       6.481   5.007  19.341  0.00  0.00    +0.000 Cl
ATOM      9  C   UNL     1       3.882   4.102  19.322  0.00  0.00    +0.000 A 
ATOM     10  C   UNL     1       4.262   2.778  19.589  0.00  0.00    +0.000 A 
ATOM     11  C   UNL     1       3.789   1.827  18.701  0.00  0.00    +0.000 A 
ATOM     12  C   UNL     1       2.752   2.204  17.874  0.00  0.00    +0.000 A 
ATOM     13  N   UNL     1       2.078   3.369  18.035  0.00  0.00    +0.000 NA
ATOM     14  C   UNL     1       2.596   4.303  18.859  0.00  0.00    +0.000 A 
ATOM     15  C   UNL     1       2.281   7.640  17.553  0.00  0.00    +0.000 C 
ENDROOT
BRANCH   1  16
ATOM     16  C   UNL     1       1.935   9.802  18.610  0.00  0.00    +0.000 C 
BRANCH  16  22
ATOM     17 CL   UNL     1      -0.502  14.435  19.140  0.00  0.00    +0.000 Cl
ATOM     18  C   UNL     1      -0.526  12.752  18.763  0.00  0.00    +0.000 A 
ATOM     19  C   UNL     1      -1.736  12.148  18.422  0.00  0.00    +0.000 A 
ATOM     20  C   UNL     1      -1.763  10.788  18.137  0.00  0.00    +0.000 A 
ATOM     21  C   UNL     1      -0.584  10.028  18.207  0.00  0.00    +0.000 A 
ATOM     22  C   UNL     1       0.647  10.622  18.532  0.00  0.00    +0.000 A 
ATOM     23  C   UNL     1       0.656  11.993  18.815  0.00  0.00    +0.000 A 
ENDBRANCH  16  22
ENDBRANCH   1  16
TORSDOF 2
ENDMDL
MODEL 6
REMARK VINA RESULT:      -7.5      5.279      7.189
REMARK  Name = 
REMARK  2 active torsions:
REMARK  status: ('A' for Active; 'I' for Inactive)
REMARK    1  A    between atoms: C_6  and  C_7
REMARK    2  A    between atoms: C_7  and  N_8
REMARK                            x       y       z     vdW  Elec       q    Type
REMARK                         _______ _______ _______ _____ _____    ______ ____
ROOT
ATOM      1  N   UNL     1       2.462   7.364  19.245  0.00  0.00    +0.000 NA
ATOM      2  C   UNL     1       1.400   7.787  20.159  0.00  0.00    +0.000 C 
ATOM      3  O   UNL     1       1.451   9.236  20.445  0.00  0.00    +0.000 OA
ATOM      4  C   UNL     1       1.577  10.029  19.265  0.00  0.00    +0.000 A 
ATOM      5  C   UNL     1       1.381   9.245  18.140  0.00  0.00    +0.000 A 
ATOM      6  C   UNL     1       0.072   9.275  17.650  0.00  0.00    +0.000 A 
ATOM      7  C   UNL     1      -0.840  10.203  18.200  0.00  0.00    +0.000 A 
ATOM      8 CL   UNL     1      -2.470  10.141  17.644  0.00  0.00    +0.000 Cl
ATOM      9  C   UNL     1      -0.355  11.285  18.982  0.00  0.00    +0.000 A 
ATOM     10  C   UNL     1      -1.007  12.520  19.113  0.00  0.00    +0.000 A 
ATOM     11  C   UNL     1      -0.309  13.619  18.643  0.00  0.00    +0.000 A 
ATOM     12  C   UNL     1       1.041  13.455  18.420  0.00  0.00    +0.000 A 
ATOM     13  N   UNL     1       1.716  12.349  18.817  0.00  0.00    +0.000 NA
ATOM     14  C   UNL     1       1.008  11.269  19.209  0.00  0.00    +0.000 A 
ATOM     15  C   UNL     1       2.405   8.178  18.014  0.00  0.00    +0.000 C 
ENDROOT
BRANCH   1  16
ATOM     16  C   UNL     1       2.510   5.939  18.956  0.00  0.00    +0.000 C 
BRANCH  16  22
ATOM     17 CL   UNL     1       7.735   5.670  19.515  0.00  0.00    +0.000 Cl
ATOM     18  C   UNL     1       6.293   5.329  18.633  0.00  0.00    +0.000 A 
ATOM     19  C   UNL     1       6.383   4.662  17.411  0.00  0.00    +0.000 A 
ATOM     20  C   UNL     1       5.225   4.402  16.688  0.00  0.00    +0.000 A 
ATOM     21  C   UNL     1       3.977   4.821  17.179  0.00  0.00    +0.000 A 
ATOM     22  C   UNL     1       3.865   5.480  18.415  0.00  0.00    +0.000 A 
ATOM     23  C   UNL     1       5.041   5.732  19.131  0.00  0.00    +0.000 A 
ENDBRANCH  16  22
ENDBRANCH   1  16
TORSDOF 2
ENDMDL
MODEL 7
REMARK VINA RESULT:      -7.5      4.469      7.995
REMARK  Name = 
REMARK  2 active torsions:
REMARK  status: ('A' for Active; 'I' for Inactive)
REMARK    1  A    between atoms: C_6  and  C_7
REMARK    2  A    between atoms: C_7  and  N_8
REMARK                            x       y       z     vdW  Elec       q    Type
REMARK                         _______ _______ _______ _____ _____    ______ ____
ROOT
ATOM      1  N   UNL     1       1.514   8.325  19.043  0.00  0.00    +0.000 NA
ATOM      2  C   UNL     1       2.035   7.641  20.227  0.00  0.00    +0.000 C 
ATOM      3  O   UNL     1       1.739   6.193  20.214  0.00  0.00    +0.000 OA
ATOM      4  C   UNL     1       2.067   5.573  18.971  0.00  0.00    +0.000 A 
ATOM      5  C   UNL     1       2.797   6.444  18.181  0.00  0.00    +0.000 A 
ATOM      6  C   UNL     1       4.181   6.274  18.279  0.00  0.00    +0.000 A 
ATOM      7  C   UNL     1       4.681   5.159  18.989  0.00  0.00    +0.000 A 
ATOM      8 CL   UNL     1       6.390   5.037  19.177  0.00  0.00    +0.000 Cl
ATOM      9  C   UNL     1       3.814   4.080  19.303  0.00  0.00    +0.000 A 
ATOM     10  C   UNL     1       4.235   2.753  19.478  0.00  0.00    +0.000 A 
ATOM     11  C   UNL     1       3.715   1.835  18.581  0.00  0.00    +0.000 A 
ATOM     12  C   UNL     1       2.613   2.228  17.850  0.00  0.00    +0.000 A 
ATOM     13  N   UNL     1       1.933   3.370  18.116  0.00  0.00    +0.000 NA
ATOM     14  C   UNL     1       2.494   4.276  18.944  0.00  0.00    +0.000 A 
ATOM     15  C   UNL     1       2.026   7.663  17.827  0.00  0.00    +0.000 C 
ENDROOT
BRANCH   1  16
ATOM     16  C   UNL     1       1.720   9.765  19.009  0.00  0.00    +0.000 C 
BRANCH  16  22
ATOM     17 CL   UNL     1      -1.240  11.348  23.061  0.00  0.00    +0.000 Cl
ATOM     18  C   UNL     1      -0.884  11.318  21.373  0.00  0.00    +0.000 A 
ATOM     19  C   UNL     1      -1.722  11.995  20.488  0.00  0.00    +0.000 A 
ATOM     20  C   UNL     1      -1.450  11.958  19.126  0.00  0.00    +0.000 A 
ATOM     21  C   UNL     1      -0.348  11.231  18.646  0.00  0.00    +0.000 A 
ATOM     22  C   UNL     1       0.518  10.557  19.524  0.00  0.00    +0.000 A 
ATOM     23  C   UNL     1       0.230  10.606  20.893  0.00  0.00    +0.000 A 
ENDBRANCH  16  22
ENDBRANCH   1  16
TORSDOF 2
ENDMDL
MODEL 8
REMARK VINA RESULT:      -7.5      5.229      6.985
REMARK  Name = 
REMARK  2 active torsions:
REMARK  status: ('A' for Active; 'I' for Inactive)
REMARK    1  A    between atoms: C_6  and  C_7
REMARK    2  A    between atoms: C_7  and  N_8
REMARK                            x       y       z     vdW  Elec       q    Type
REMARK                         _______ _______ _______ _____ _____    ______ ____
ROOT
ATOM      1  N   UNL     1       2.515   7.430  19.035  0.00  0.00    +0.000 NA
ATOM      2  C   UNL     1       1.486   7.786  20.013  0.00  0.00    +0.000 C 
ATOM      3  O   UNL     1       1.518   9.222  20.364  0.00  0.00    +0.000 OA
ATOM      4  C   UNL     1       1.574  10.070  19.216  0.00  0.00    +0.000 A 
ATOM      5  C   UNL     1       1.344   9.333  18.067  0.00  0.00    +0.000 A 
ATOM      6  C   UNL     1       0.014   9.353  17.637  0.00  0.00    +0.000 A 
ATOM      7  C   UNL     1      -0.892  10.234  18.269  0.00  0.00    +0.000 A 
ATOM      8 CL   UNL     1      -2.544  10.158  17.783  0.00  0.00    +0.000 Cl
ATOM      9  C   UNL     1      -0.397  11.290  19.077  0.00  0.00    +0.000 A 
ATOM     10  C   UNL     1      -1.069  12.503  19.293  0.00  0.00    +0.000 A 
ATOM     11  C   UNL     1      -0.417  13.638  18.844  0.00  0.00    +0.000 A 
ATOM     12  C   UNL     1       0.926  13.517  18.554  0.00  0.00    +0.000 A 
ATOM     13  N   UNL     1       1.642  12.410  18.870  0.00  0.00    +0.000 NA
ATOM     14  C   UNL     1       0.975  11.297  19.242  0.00  0.00    +0.000 A 
ATOM     15  C   UNL     1       2.385   8.297  17.846  0.00  0.00    +0.000 C 
ENDROOT
BRANCH   1  16
ATOM     16  C   UNL     1       2.581   6.021  18.679  0.00  0.00    +0.000 C 
BRANCH  16  22
ATOM     17 CL   UNL     1       5.908   4.069  15.100  0.00  0.00    +0.000 Cl
ATOM     18  C   UNL     1       5.573   4.655  16.688  0.00  0.00    +0.000 A 
ATOM     19  C   UNL     1       6.593   4.668  17.638  0.00  0.00    +0.000 A 
ATOM     20  C   UNL     1       6.323   5.121  18.924  0.00  0.00    +0.000 A 
ATOM     21  C   UNL     1       5.029   5.547  19.265  0.00  0.00    +0.000 A 
ATOM     22  C   UNL     1       3.992   5.557  18.316  0.00  0.00    +0.000 A 
ATOM     23  C   UNL     1       4.282   5.099  17.026  0.00  0.00    +0.000 A 
ENDBRANCH  16  22
ENDBRANCH   1  16
TORSDOF 2
ENDMDL
MODEL 9
REMARK VINA RESULT:      -7.4      4.772      6.662
REMARK  Name = 
REMARK  2 active torsions:
REMARK  status: ('A' for Active; 'I' for Inactive)
REMARK    1  A    between atoms: C_6  and  C_7
REMARK    2  A    between atoms: C_7  and  N_8
REMARK                            x       y       z     vdW  Elec       q    Type
REMARK                         _______ _______ _______ _____ _____    ______ ____
ROOT
ATOM      1  N   UNL     1       7.459   8.043  18.053  0.00  0.00    +0.000 NA
ATOM      2  C   UNL     1       7.789   6.637  18.290  0.00  0.00    +0.000 C 
ATOM      3  O   UNL     1       6.656   5.883  18.867  0.00  0.00    +0.000 OA
ATOM      4  C   UNL     1       5.432   6.102  18.165  0.00  0.00    +0.000 A 
ATOM      5  C   UNL     1       5.675   6.778  16.981  0.00  0.00    +0.000 A 
ATOM      6  C   UNL     1       5.808   5.943  15.868  0.00  0.00    +0.000 A 
ATOM      7  C   UNL     1       5.506   4.569  16.008  0.00  0.00    +0.000 A 
ATOM      8 CL   UNL     1       5.780   3.552  14.643  0.00  0.00    +0.000 Cl
ATOM      9  C   UNL     1       4.779   4.122  17.142  0.00  0.00    +0.000 A 
ATOM     10  C   UNL     1       3.961   2.983  17.157  0.00  0.00    +0.000 A 
ATOM     11  C   UNL     1       2.619   3.211  17.410  0.00  0.00    +0.000 A 
ATOM     12  C   UNL     1       2.282   4.437  17.945  0.00  0.00    +0.000 A 
ATOM     13  N   UNL     1       3.212   5.316  18.394  0.00  0.00    +0.000 NA
ATOM     14  C   UNL     1       4.506   5.102  18.077  0.00  0.00    +0.000 A 
ATOM     15  C   UNL     1       6.247   8.129  17.213  0.00  0.00    +0.000 C 
ENDROOT
BRANCH   1  16
ATOM     16  C   UNL     1       8.542   8.863  17.534  0.00  0.00    +0.000 C 
BRANCH  16  22
ATOM     17 CL   UNL     1       9.002  14.088  17.950  0.00  0.00    +0.000 Cl
ATOM     18  C   UNL     1       9.060  12.508  18.641  0.00  0.00    +0.000 A 
ATOM     19  C   UNL     1       9.409  12.365  19.983  0.00  0.00    +0.000 A 
ATOM     20  C   UNL     1       9.476  11.093  20.539  0.00  0.00    +0.000 A 
ATOM     21  C   UNL     1       9.207   9.962  19.750  0.00  0.00    +0.000 A 
ATOM     22  C   UNL     1       8.837  10.088  18.400  0.00  0.00    +0.000 A 
ATOM     23  C   UNL     1       8.774  11.377  17.857  0.00  0.00    +0.000 A 
ENDBRANCH  16  22
ENDBRANCH   1  16
TORSDOF 2
ENDMDL
