MODEL 1
REMARK VINA RESULT:      -6.7      0.000      0.000
REMARK  Name = 
REMARK  4 active torsions:
REMARK  status: ('A' for Active; 'I' for Inactive)
REMARK    1  A    between atoms: C_1  and  C_2
REMARK    2  A    between atoms: C_2  and  C_3
REMARK    3  A    between atoms: C_6  and  C_7
REMARK    4  A    between atoms: N_13  and  C_14
REMARK                            x       y       z     vdW  Elec       q    Type
REMARK                         _______ _______ _______ _____ _____    ______ ____
ROOT
ATOM      1  C   UNL     1       5.463   6.041  15.191  0.00  0.00    +0.000 C 
ATOM      2  O   UNL     1       5.030   7.128  14.797  0.00  0.00    +0.000 OA
ATOM      3  N   UNL     1       5.325   5.609  16.542  0.00  0.00    +0.000 N 
ATOM      4  C   UNL     1       5.775   4.294  16.989  0.00  0.00    +0.000 C 
ATOM      5  C   UNL     1       6.240   4.138  18.437  0.00  0.00    +0.000 C 
ATOM      6  C   UNL     1       5.300   4.444  19.599  0.00  0.00    +0.000 C 
ATOM      7  N   UNL     1       3.896   4.695  19.311  0.00  0.00    +0.000 NA
ATOM      8  C   UNL     1       3.751   5.976  18.616  0.00  0.00    +0.000 C 
ATOM      9  C   UNL     1       4.088   6.144  17.127  0.00  0.00    +0.000 C 
ENDROOT
BRANCH   1  13
ATOM     10  C   UNL     1       6.714   3.322  12.235  0.00  0.00    +0.000 A 
ATOM     11  N   UNL     1       7.620   4.237  12.641  0.00  0.00    +0.000 NA
ATOM     12  C   UNL     1       7.205   5.145  13.552  0.00  0.00    +0.000 A 
ATOM     13  C   UNL     1       5.950   5.144  14.121  0.00  0.00    +0.000 A 
ATOM     14  C   UNL     1       5.080   4.223  13.573  0.00  0.00    +0.000 A 
ATOM     15  N   UNL     1       5.433   3.296  12.649  0.00  0.00    +0.000 NA
BRANCH  10  17
ATOM     16  C   UNL     1       6.125   1.134  11.173  0.00  0.00    +0.000 C 
ATOM     17  C   UNL     1       7.169   2.234  11.300  0.00  0.00    +0.000 C 
ENDBRANCH  10  17
ENDBRANCH   1  13
BRANCH   7  18
ATOM     18  C   UNL     1       3.093   3.523  18.921  0.00  0.00    +0.000 C 
ATOM     19  C   UNL     1       3.299   2.343  19.905  0.00  0.00    +0.000 C 
ATOM     20  C   UNL     1       2.748   2.636  21.303  0.00  0.00    +0.000 C 
ATOM     21  C   UNL     1       1.279   3.049  21.286  0.00  0.00    +0.000 C 
ATOM     22  C   UNL     1       0.921   4.057  20.194  0.00  0.00    +0.000 C 
ATOM     23  C   UNL     1       1.566   3.740  18.844  0.00  0.00    +0.000 C 
ENDBRANCH   7  18
TORSDOF 3
ENDMDL
MODEL 2
REMARK VINA RESULT:      -6.6      0.263      1.011
REMARK  Name = 
REMARK  4 active torsions:
REMARK  status: ('A' for Active; 'I' for Inactive)
REMARK    1  A    between atoms: C_1  and  C_2
REMARK    2  A    between atoms: C_2  and  C_3
REMARK    3  A    between atoms: C_6  and  C_7
REMARK    4  A    between atoms: N_13  and  C_14
REMARK                            x       y       z     vdW  Elec       q    Type
REMARK                         _______ _______ _______ _____ _____    ______ ____
ROOT
ATOM      1  C   UNL     1       5.417   5.961  15.272  0.00  0.00    +0.000 C 
ATOM      2  O   UNL     1       5.032   7.054  14.847  0.00  0.00    +0.000 OA
ATOM      3  N   UNL     1       5.251   5.569  16.633  0.00  0.00    +0.000 N 
ATOM      4  C   UNL     1       5.643   4.250  17.117  0.00  0.00    +0.000 C 
ATOM      5  C   UNL     1       6.088   4.113  18.574  0.00  0.00    +0.000 C 
ATOM      6  C   UNL     1       5.151   4.485  19.718  0.00  0.00    +0.000 C 
ATOM      7  N   UNL     1       3.760   4.784  19.409  0.00  0.00    +0.000 NA
ATOM      8  C   UNL     1       3.672   6.051  18.681  0.00  0.00    +0.000 C 
ATOM      9  C   UNL     1       4.030   6.168  17.191  0.00  0.00    +0.000 C 
ENDROOT
BRANCH   1  13
ATOM     10  C   UNL     1       6.857   3.448  12.221  0.00  0.00    +0.000 A 
ATOM     11  N   UNL     1       5.604   3.210  12.664  0.00  0.00    +0.000 NA
ATOM     12  C   UNL     1       5.159   3.981  13.679  0.00  0.00    +0.000 A 
ATOM     13  C   UNL     1       5.879   5.017  14.231  0.00  0.00    +0.000 A 
ATOM     14  C   UNL     1       7.175   5.117  13.765  0.00  0.00    +0.000 A 
ATOM     15  N   UNL     1       7.683   4.366  12.759  0.00  0.00    +0.000 NA
BRANCH  10  17
ATOM     16  C   UNL     1       6.749   1.280  10.975  0.00  0.00    +0.000 C 
ATOM     17  C   UNL     1       7.350   2.678  11.025  0.00  0.00    +0.000 C 
ENDBRANCH  10  17
ENDBRANCH   1  13
BRANCH   7  18
ATOM     18  C   UNL     1       2.915   3.635  19.041  0.00  0.00    +0.000 C 
ATOM     19  C   UNL     1       3.181   2.418  19.964  0.00  0.00    +0.000 C 
ATOM     20  C   UNL     1       2.742   2.666  21.409  0.00  0.00    +0.000 C 
ATOM     21  C   UNL     1       1.281   3.094  21.520  0.00  0.00    +0.000 C 
ATOM     22  C   UNL     1       0.854   4.144  20.495  0.00  0.00    +0.000 C 
ATOM     23  C   UNL     1       1.390   3.870  19.089  0.00  0.00    +0.000 C 
ENDBRANCH   7  18
TORSDOF 3
ENDMDL
MODEL 3
REMARK VINA RESULT:      -6.3      3.558      5.655
REMARK  Name = 
REMARK  4 active torsions:
REMARK  status: ('A' for Active; 'I' for Inactive)
REMARK    1  A    between atoms: C_1  and  C_2
REMARK    2  A    between atoms: C_2  and  C_3
REMARK    3  A    between atoms: C_6  and  C_7
REMARK    4  A    between atoms: N_13  and  C_14
REMARK                            x       y       z     vdW  Elec       q    Type
REMARK                         _______ _______ _______ _____ _____    ______ ____
ROOT
ATOM      1  C   UNL     1       6.808   6.560  16.805  0.00  0.00    +0.000 C 
ATOM      2  O   UNL     1       7.502   5.943  15.992  0.00  0.00    +0.000 OA
ATOM      3  N   UNL     1       5.476   6.168  17.125  0.00  0.00    +0.000 N 
ATOM      4  C   UNL     1       4.683   6.857  18.139  0.00  0.00    +0.000 C 
ATOM      5  C   UNL     1       3.163   6.888  17.974  0.00  0.00    +0.000 C 
ATOM      6  C   UNL     1       2.354   5.597  17.919  0.00  0.00    +0.000 C 
ATOM      7  N   UNL     1       3.025   4.341  18.223  0.00  0.00    +0.000 NA
ATOM      8  C   UNL     1       3.971   4.011  17.155  0.00  0.00    +0.000 C 
ATOM      9  C   UNL     1       5.333   4.709  17.020  0.00  0.00    +0.000 C 
ENDROOT
BRANCH   1  13
ATOM     10  C   UNL     1       8.876   9.654  18.768  0.00  0.00    +0.000 A 
ATOM     11  N   UNL     1       9.030   8.409  19.266  0.00  0.00    +0.000 NA
ATOM     12  C   UNL     1       8.326   7.422  18.671  0.00  0.00    +0.000 A 
ATOM     13  C   UNL     1       7.526   7.607  17.565  0.00  0.00    +0.000 A 
ATOM     14  C   UNL     1       7.372   8.928  17.192  0.00  0.00    +0.000 A 
ATOM     15  N   UNL     1       8.041   9.962  17.757  0.00  0.00    +0.000 NA
BRANCH  10  17
ATOM     16  C   UNL     1      10.298  11.645  18.242  0.00  0.00    +0.000 C 
ATOM     17  C   UNL     1       9.721  10.761  19.339  0.00  0.00    +0.000 C 
ENDBRANCH  10  17
ENDBRANCH   1  13
BRANCH   7  18
ATOM     18  C   UNL     1       3.365   4.112  19.637  0.00  0.00    +0.000 C 
ATOM     19  C   UNL     1       2.369   4.831  20.583  0.00  0.00    +0.000 C 
ATOM     20  C   UNL     1       0.957   4.244  20.511  0.00  0.00    +0.000 C 
ATOM     21  C   UNL     1       0.927   2.740  20.770  0.00  0.00    +0.000 C 
ATOM     22  C   UNL     1       2.022   1.956  20.049  0.00  0.00    +0.000 C 
ATOM     23  C   UNL     1       3.389   2.639  20.100  0.00  0.00    +0.000 C 
ENDBRANCH   7  18
TORSDOF 3
ENDMDL
MODEL 4
REMARK VINA RESULT:      -6.2      3.549      5.718
REMARK  Name = 
REMARK  4 active torsions:
REMARK  status: ('A' for Active; 'I' for Inactive)
REMARK    1  A    between atoms: C_1  and  C_2
REMARK    2  A    between atoms: C_2  and  C_3
REMARK    3  A    between atoms: C_6  and  C_7
REMARK    4  A    between atoms: N_13  and  C_14
REMARK                            x       y       z     vdW  Elec       q    Type
REMARK                         _______ _______ _______ _____ _____    ______ ____
ROOT
ATOM      1  C   UNL     1       6.765   6.555  16.779  0.00  0.00    +0.000 C 
ATOM      2  O   UNL     1       7.445   5.857  16.021  0.00  0.00    +0.000 OA
ATOM      3  N   UNL     1       5.413   6.237  17.103  0.00  0.00    +0.000 N 
ATOM      4  C   UNL     1       4.635   7.024  18.054  0.00  0.00    +0.000 C 
ATOM      5  C   UNL     1       3.120   7.103  17.863  0.00  0.00    +0.000 C 
ATOM      6  C   UNL     1       2.260   5.843  17.881  0.00  0.00    +0.000 C 
ATOM      7  N   UNL     1       2.877   4.586  18.279  0.00  0.00    +0.000 NA
ATOM      8  C   UNL     1       3.823   4.148  17.252  0.00  0.00    +0.000 C 
ATOM      9  C   UNL     1       5.214   4.782  17.094  0.00  0.00    +0.000 C 
ENDROOT
BRANCH   1  13
ATOM     10  C   UNL     1       8.852   9.480  18.965  0.00  0.00    +0.000 A 
ATOM     11  N   UNL     1       8.202   9.898  17.859  0.00  0.00    +0.000 NA
ATOM     12  C   UNL     1       7.574   8.953  17.126  0.00  0.00    +0.000 A 
ATOM     13  C   UNL     1       7.513   7.622  17.478  0.00  0.00    +0.000 A 
ATOM     14  C   UNL     1       8.282   7.290  18.576  0.00  0.00    +0.000 A 
ATOM     15  N   UNL     1       8.943   8.191  19.343  0.00  0.00    +0.000 NA
BRANCH  10  17
ATOM     16  C   UNL     1      10.372  11.467  19.077  0.00  0.00    +0.000 C 
ATOM     17  C   UNL     1       9.476  10.517  19.861  0.00  0.00    +0.000 C 
ENDBRANCH  10  17
ENDBRANCH   1  13
BRANCH   7  18
ATOM     18  C   UNL     1       3.187   4.440  19.712  0.00  0.00    +0.000 C 
ATOM     19  C   UNL     1       2.016   4.936  20.599  0.00  0.00    +0.000 C 
ATOM     20  C   UNL     1       0.766   4.063  20.469  0.00  0.00    +0.000 C 
ATOM     21  C   UNL     1       1.042   2.588  20.748  0.00  0.00    +0.000 C 
ATOM     22  C   UNL     1       2.313   2.050  20.091  0.00  0.00    +0.000 C 
ATOM     23  C   UNL     1       3.500   3.008  20.197  0.00  0.00    +0.000 C 
ENDBRANCH   7  18
TORSDOF 3
ENDMDL
MODEL 5
REMARK VINA RESULT:      -6.1      5.453      8.063
REMARK  Name = 
REMARK  4 active torsions:
REMARK  status: ('A' for Active; 'I' for Inactive)
REMARK    1  A    between atoms: C_1  and  C_2
REMARK    2  A    between atoms: C_2  and  C_3
REMARK    3  A    between atoms: C_6  and  C_7
REMARK    4  A    between atoms: N_13  and  C_14
REMARK                            x       y       z     vdW  Elec       q    Type
REMARK                         _______ _______ _______ _____ _____    ______ ____
ROOT
ATOM      1  C   UNL     1       0.429   9.769  19.786  0.00  0.00    +0.000 C 
ATOM      2  O   UNL     1       0.288  10.100  20.967  0.00  0.00    +0.000 OA
ATOM      3  N   UNL     1       1.384   8.793  19.375  0.00  0.00    +0.000 N 
ATOM      4  C   UNL     1       1.500   8.353  17.988  0.00  0.00    +0.000 C 
ATOM      5  C   UNL     1       2.869   7.894  17.484  0.00  0.00    +0.000 C 
ATOM      6  C   UNL     1       3.592   6.720  18.137  0.00  0.00    +0.000 C 
ATOM      7  N   UNL     1       2.873   5.919  19.118  0.00  0.00    +0.000 NA
ATOM      8  C   UNL     1       2.654   6.701  20.336  0.00  0.00    +0.000 C 
ATOM      9  C   UNL     1       1.573   7.788  20.430  0.00  0.00    +0.000 C 
ENDROOT
BRANCH   1  13
ATOM     10  C   UNL     1      -2.508  11.092  17.081  0.00  0.00    +0.000 A 
ATOM     11  N   UNL     1      -1.520  11.962  17.377  0.00  0.00    +0.000 NA
ATOM     12  C   UNL     1      -0.604  11.560  18.285  0.00  0.00    +0.000 A 
ATOM     13  C   UNL     1      -0.593  10.309  18.864  0.00  0.00    +0.000 A 
ATOM     14  C   UNL     1      -1.694   9.534  18.557  0.00  0.00    +0.000 A 
ATOM     15  N   UNL     1      -2.650   9.887  17.665  0.00  0.00    +0.000 NA
BRANCH  10  17
ATOM     16  C   UNL     1      -3.450  10.471  14.846  0.00  0.00    +0.000 C 
ATOM     17  C   UNL     1      -3.487  11.465  16.000  0.00  0.00    +0.000 C 
ENDBRANCH  10  17
ENDBRANCH   1  13
BRANCH   7  18
ATOM     18  C   UNL     1       1.827   5.028  18.587  0.00  0.00    +0.000 C 
ATOM     19  C   UNL     1       2.390   4.079  17.498  0.00  0.00    +0.000 C 
ATOM     20  C   UNL     1       3.395   3.068  18.056  0.00  0.00    +0.000 C 
ATOM     21  C   UNL     1       2.831   2.252  19.216  0.00  0.00    +0.000 C 
ATOM     22  C   UNL     1       2.057   3.074  20.246  0.00  0.00    +0.000 C 
ATOM     23  C   UNL     1       1.128   4.113  19.616  0.00  0.00    +0.000 C 
ENDBRANCH   7  18
TORSDOF 3
ENDMDL
MODEL 6
REMARK VINA RESULT:      -6.0      5.072      8.080
REMARK  Name = 
REMARK  4 active torsions:
REMARK  status: ('A' for Active; 'I' for Inactive)
REMARK    1  A    between atoms: C_1  and  C_2
REMARK    2  A    between atoms: C_2  and  C_3
REMARK    3  A    between atoms: C_6  and  C_7
REMARK    4  A    between atoms: N_13  and  C_14
REMARK                            x       y       z     vdW  Elec       q    Type
REMARK                         _______ _______ _______ _____ _____    ______ ____
ROOT
ATOM      1  C   UNL     1       1.120   8.975  20.226  0.00  0.00    +0.000 C 
ATOM      2  O   UNL     1       1.053   9.048  21.457  0.00  0.00    +0.000 OA
ATOM      3  N   UNL     1       2.009   8.080  19.562  0.00  0.00    +0.000 N 
ATOM      4  C   UNL     1       2.036   7.946  18.109  0.00  0.00    +0.000 C 
ATOM      5  C   UNL     1       3.357   7.564  17.439  0.00  0.00    +0.000 C 
ATOM      6  C   UNL     1       4.060   6.255  17.783  0.00  0.00    +0.000 C 
ATOM      7  N   UNL     1       3.358   5.284  18.610  0.00  0.00    +0.000 NA
ATOM      8  C   UNL     1       3.235   5.791  19.978  0.00  0.00    +0.000 C 
ATOM      9  C   UNL     1       2.207   6.866  20.365  0.00  0.00    +0.000 C 
ENDROOT
BRANCH   1  13
ATOM     10  C   UNL     1      -1.977  11.121  18.356  0.00  0.00    +0.000 A 
ATOM     11  N   UNL     1      -1.233  10.318  17.567  0.00  0.00    +0.000 NA
ATOM     12  C   UNL     1      -0.205   9.668  18.155  0.00  0.00    +0.000 A 
ATOM     13  C   UNL     1       0.077   9.733  19.502  0.00  0.00    +0.000 A 
ATOM     14  C   UNL     1      -0.690  10.647  20.198  0.00  0.00    +0.000 A 
ATOM     15  N   UNL     1      -1.726  11.337  19.662  0.00  0.00    +0.000 NA
BRANCH  10  17
ATOM     16  C   UNL     1      -3.887  10.869  16.757  0.00  0.00    +0.000 C 
ATOM     17  C   UNL     1      -3.192  11.781  17.760  0.00  0.00    +0.000 C 
ENDBRANCH  10  17
ENDBRANCH   1  13
BRANCH   7  18
ATOM     18  C   UNL     1       2.249   4.562  17.964  0.00  0.00    +0.000 C 
ATOM     19  C   UNL     1       2.773   3.460  17.007  0.00  0.00    +0.000 C 
ATOM     20  C   UNL     1       3.484   2.324  17.746  0.00  0.00    +0.000 C 
ATOM     21  C   UNL     1       2.622   1.698  18.839  0.00  0.00    +0.000 C 
ATOM     22  C   UNL     1       1.878   2.709  19.710  0.00  0.00    +0.000 C 
ATOM     23  C   UNL     1       1.255   3.854  18.910  0.00  0.00    +0.000 C 
ENDBRANCH   7  18
TORSDOF 3
ENDMDL
MODEL 7
REMARK VINA RESULT:      -5.8      5.710      8.533
REMARK  Name = 
REMARK  4 active torsions:
REMARK  status: ('A' for Active; 'I' for Inactive)
REMARK    1  A    between atoms: C_1  and  C_2
REMARK    2  A    between atoms: C_2  and  C_3
REMARK    3  A    between atoms: C_6  and  C_7
REMARK    4  A    between atoms: N_13  and  C_14
REMARK                            x       y       z     vdW  Elec       q    Type
REMARK                         _______ _______ _______ _____ _____    ______ ____
ROOT
ATOM      1  C   UNL     1       0.263   9.838  19.776  0.00  0.00    +0.000 C 
ATOM      2  O   UNL     1       0.140  10.201  20.950  0.00  0.00    +0.000 OA
ATOM      3  N   UNL     1       1.250   8.893  19.368  0.00  0.00    +0.000 N 
ATOM      4  C   UNL     1       1.347   8.413  17.993  0.00  0.00    +0.000 C 
ATOM      5  C   UNL     1       2.721   8.002  17.463  0.00  0.00    +0.000 C 
ATOM      6  C   UNL     1       3.517   6.885  18.131  0.00  0.00    +0.000 C 
ATOM      7  N   UNL     1       2.866   6.085  19.158  0.00  0.00    +0.000 NA
ATOM      8  C   UNL     1       2.646   6.896  20.357  0.00  0.00    +0.000 C 
ATOM      9  C   UNL     1       1.517   7.934  20.449  0.00  0.00    +0.000 C 
ENDROOT
BRANCH   1  13
ATOM     10  C   UNL     1      -2.922  11.185  17.381  0.00  0.00    +0.000 A 
ATOM     11  N   UNL     1      -2.126  10.231  16.853  0.00  0.00    +0.000 NA
ATOM     12  C   UNL     1      -1.072   9.834  17.598  0.00  0.00    +0.000 A 
ATOM     13  C   UNL     1      -0.811  10.298  18.869  0.00  0.00    +0.000 A 
ATOM     14  C   UNL     1      -1.633  11.330  19.276  0.00  0.00    +0.000 A 
ATOM     15  N   UNL     1      -2.698  11.779  18.568  0.00  0.00    +0.000 NA
BRANCH  10  17
ATOM     16  C   UNL     1      -5.328  11.851  17.567  0.00  0.00    +0.000 C 
ATOM     17  C   UNL     1      -4.163  11.578  16.625  0.00  0.00    +0.000 C 
ENDBRANCH  10  17
ENDBRANCH   1  13
BRANCH   7  18
ATOM     18  C   UNL     1       1.849   5.129  18.689  0.00  0.00    +0.000 C 
ATOM     19  C   UNL     1       2.417   4.191  17.592  0.00  0.00    +0.000 C 
ATOM     20  C   UNL     1       3.498   3.247  18.123  0.00  0.00    +0.000 C 
ATOM     21  C   UNL     1       3.030   2.424  19.321  0.00  0.00    +0.000 C 
ATOM     22  C   UNL     1       2.256   3.223  20.369  0.00  0.00    +0.000 C 
ATOM     23  C   UNL     1       1.245   4.197  19.762  0.00  0.00    +0.000 C 
ENDBRANCH   7  18
TORSDOF 3
ENDMDL
MODEL 8
REMARK VINA RESULT:      -5.8      3.609      5.736
REMARK  Name = 
REMARK  4 active torsions:
REMARK  status: ('A' for Active; 'I' for Inactive)
REMARK    1  A    between atoms: C_1  and  C_2
REMARK    2  A    between atoms: C_2  and  C_3
REMARK    3  A    between atoms: C_6  and  C_7
REMARK    4  A    between atoms: N_13  and  C_14
REMARK                            x       y       z     vdW  Elec       q    Type
REMARK                         _______ _______ _______ _____ _____    ______ ____
ROOT
ATOM      1  C   UNL     1       7.612   5.696  18.784  0.00  0.00    +0.000 C 
ATOM      2  O   UNL     1       8.336   5.241  19.675  0.00  0.00    +0.000 OA
ATOM      3  N   UNL     1       6.490   4.981  18.273  0.00  0.00    +0.000 N 
ATOM      4  C   UNL     1       5.595   5.550  17.270  0.00  0.00    +0.000 C 
ATOM      5  C   UNL     1       4.896   4.600  16.297  0.00  0.00    +0.000 C 
ATOM      6  C   UNL     1       3.969   3.500  16.804  0.00  0.00    +0.000 C 
ATOM      7  N   UNL     1       3.604   3.493  18.214  0.00  0.00    +0.000 NA
ATOM      8  C   UNL     1       4.769   3.141  19.028  0.00  0.00    +0.000 C 
ATOM      9  C   UNL     1       5.896   4.143  19.324  0.00  0.00    +0.000 C 
ENDROOT
BRANCH   1  13
ATOM     10  C   UNL     1       8.372   9.760  18.008  0.00  0.00    +0.000 A 
ATOM     11  N   UNL     1       7.577   9.112  17.130  0.00  0.00    +0.000 NA
ATOM     12  C   UNL     1       7.375   7.794  17.347  0.00  0.00    +0.000 A 
ATOM     13  C   UNL     1       7.875   7.108  18.432  0.00  0.00    +0.000 A 
ATOM     14  C   UNL     1       8.741   7.843  19.217  0.00  0.00    +0.000 A 
ATOM     15  N   UNL     1       8.994   9.163  19.042  0.00  0.00    +0.000 NA
BRANCH  10  17
ATOM     16  C   UNL     1       9.568  11.797  18.835  0.00  0.00    +0.000 C 
ATOM     17  C   UNL     1       8.538  11.248  17.857  0.00  0.00    +0.000 C 
ENDBRANCH  10  17
ENDBRANCH   1  13
BRANCH   7  18
ATOM     18  C   UNL     1       2.661   4.539  18.646  0.00  0.00    +0.000 C 
ATOM     19  C   UNL     1       1.193   4.132  18.356  0.00  0.00    +0.000 C 
ATOM     20  C   UNL     1       0.732   2.941  19.200  0.00  0.00    +0.000 C 
ATOM     21  C   UNL     1       0.925   3.167  20.698  0.00  0.00    +0.000 C 
ATOM     22  C   UNL     1       2.273   3.780  21.073  0.00  0.00    +0.000 C 
ATOM     23  C   UNL     1       2.702   4.915  20.143  0.00  0.00    +0.000 C 
ENDBRANCH   7  18
TORSDOF 3
ENDMDL
MODEL 9
REMARK VINA RESULT:      -5.5     10.499     13.683
REMARK  Name = 
REMARK  4 active torsions:
REMARK  status: ('A' for Active; 'I' for Inactive)
REMARK    1  A    between atoms: C_1  and  C_2
REMARK    2  A    between atoms: C_2  and  C_3
REMARK    3  A    between atoms: C_6  and  C_7
REMARK    4  A    between atoms: N_13  and  C_14
REMARK                            x       y       z     vdW  Elec       q    Type
REMARK                         _______ _______ _______ _____ _____    ______ ____
ROOT
ATOM      1  C   UNL     1       8.224  14.595  24.391  0.00  0.00    +0.000 C 
ATOM      2  O   UNL     1       9.059  15.163  25.102  0.00  0.00    +0.000 OA
ATOM      3  N   UNL     1       8.313  14.586  22.968  0.00  0.00    +0.000 N 
ATOM      4  C   UNL     1       7.365  13.855  22.134  0.00  0.00    +0.000 C 
ATOM      5  C   UNL     1       7.066  14.391  20.733  0.00  0.00    +0.000 C 
ATOM      6  C   UNL     1       8.177  14.546  19.700  0.00  0.00    +0.000 C 
ATOM      7  N   UNL     1       9.489  13.992  20.000  0.00  0.00    +0.000 NA
ATOM      8  C   UNL     1      10.124  14.765  21.070  0.00  0.00    +0.000 C 
ATOM      9  C   UNL     1       9.720  14.612  22.544  0.00  0.00    +0.000 C 
ENDROOT
BRANCH   1  13
ATOM     10  C   UNL     1       5.544  12.044  26.392  0.00  0.00    +0.000 A 
ATOM     11  N   UNL     1       5.066  13.246  26.006  0.00  0.00    +0.000 NA
ATOM     12  C   UNL     1       5.938  14.088  25.411  0.00  0.00    +0.000 A 
ATOM     13  C   UNL     1       7.246  13.764  25.126  0.00  0.00    +0.000 A 
ATOM     14  C   UNL     1       7.654  12.549  25.640  0.00  0.00    +0.000 A 
ATOM     15  N   UNL     1       6.830  11.668  26.257  0.00  0.00    +0.000 NA
BRANCH  10  17
ATOM     16  C   UNL     1       5.291  10.017  27.839  0.00  0.00    +0.000 C 
ATOM     17  C   UNL     1       4.579  11.042  26.966  0.00  0.00    +0.000 C 
ENDBRANCH  10  17
ENDBRANCH   1  13
BRANCH   7  18
ATOM     18  C   UNL     1       9.601  12.524  19.954  0.00  0.00    +0.000 C 
ATOM     19  C   UNL     1       9.319  11.979  18.530  0.00  0.00    +0.000 C 
ATOM     20  C   UNL     1      10.388  12.396  17.516  0.00  0.00    +0.000 C 
ATOM     21  C   UNL     1      11.799  12.012  17.951  0.00  0.00    +0.000 C 
ATOM     22  C   UNL     1      12.108  12.308  19.418  0.00  0.00    +0.000 C 
ATOM     23  C   UNL     1      10.967  11.933  20.365  0.00  0.00    +0.000 C 
ENDBRANCH   7  18
TORSDOF 3
ENDMDL
