MODEL 1
REMARK VINA RESULT:      -8.4      0.000      0.000
REMARK  Name = 
REMARK  8 active torsions:
REMARK  status: ('A' for Active; 'I' for Inactive)
REMARK    1  A    between atoms: C_2  and  O_3
REMARK    2  A    between atoms: C_2  and  C_4
REMARK    3  A    between atoms: C_8  and  C_10
REMARK    4  A    between atoms: C_10  and  C_11
REMARK    5  A    between atoms: C_11  and  C_12
REMARK    6  A    between atoms: C_12  and  O_13
REMARK    7  A    between atoms: O_13  and  C_14
REMARK    8  A    between atoms: C_21  and  O_22
REMARK                            x       y       z     vdW  Elec       q    Type
REMARK                         _______ _______ _______ _____ _____    ______ ____
ROOT
ATOM      1  O   UNL     1       2.615   5.624  20.369  0.00  0.00    +0.000 OA
ENDROOT
BRANCH   1   2
ATOM      2  C   UNL     1       2.319   6.792  19.721  0.00  0.00    +0.000 A 
ATOM      3  C   UNL     1       2.644   7.112  18.400  0.00  0.00    +0.000 A 
ATOM      4  C   UNL     1       2.239   8.335  17.848  0.00  0.00    +0.000 A 
ATOM      5  C   UNL     1       1.495   9.239  18.608  0.00  0.00    +0.000 A 
ATOM      6  N   UNL     1       1.028  10.449  18.051  0.00  0.00    +0.000 N 
ATOM      7  C   UNL     1       0.204  11.243  18.792  0.00  0.00    +0.000 A 
ATOM      8  N   UNL     1      -0.444  12.322  18.452  0.00  0.00    +0.000 NA
ATOM      9  C   UNL     1      -1.095  12.650  19.618  0.00  0.00    +0.000 A 
ATOM     10  N   UNL     1      -0.936  11.927  20.678  0.00  0.00    +0.000 NA
ATOM     11  C   UNL     1      -0.104  10.956  20.212  0.00  0.00    +0.000 A 
ATOM     12  C   UNL     1       0.391   9.856  20.782  0.00  0.00    +0.000 A 
ATOM     13  C   UNL     1       1.195   8.930  19.960  0.00  0.00    +0.000 A 
ATOM     14  C   UNL     1       1.614   7.712  20.501  0.00  0.00    +0.000 A 
ATOM     15  H   UNL     1       1.188  10.659  17.078  0.00  0.00    +0.000 HD
BRANCH   9  16
ATOM     16  O   UNL     1      -1.874  13.725  19.527  0.00  0.00    +0.000 OA
ATOM     17  H   UNL     1      -1.634  14.180  18.707  0.00  0.00    +0.000 HD
ENDBRANCH   9  16
ENDBRANCH   1   2
BRANCH   1  18
ATOM     18  C   UNL     1       1.945   4.449  19.925  0.00  0.00    +0.000 C 
BRANCH  18  19
ATOM     19  C   UNL     1       2.542   3.247  20.656  0.00  0.00    +0.000 C 
BRANCH  19  20
ATOM     20  C   UNL     1       3.836   2.817  19.978  0.00  0.00    +0.000 C 
BRANCH  20  25
ATOM     21  C   UNL     1       7.026   4.861  16.625  0.00  0.00    +0.000 C 
ATOM     22  C   UNL     1       6.066   3.949  15.835  0.00  0.00    +0.000 C 
ATOM     23  C   UNL     1       4.636   3.931  16.395  0.00  0.00    +0.000 C 
ATOM     24  N   UNL     1       4.624   3.787  17.853  0.00  0.00    +0.000 N 
ATOM     25  C   UNL     1       3.797   2.842  18.457  0.00  0.00    +0.000 C 
ATOM     26  O   UNL     1       3.085   2.071  17.819  0.00  0.00    +0.000 OA
ATOM     27  C   UNL     1       5.463   4.737  18.575  0.00  0.00    +0.000 C 
ATOM     28  C   UNL     1       6.906   4.557  18.121  0.00  0.00    +0.000 C 
BRANCH  21  30
ATOM     29  O   UNL     1       5.784   6.771  15.761  0.00  0.00    +0.000 OA
ATOM     30  C   UNL     1       6.763   6.335  16.345  0.00  0.00    +0.000 C 
BRANCH  30  31
ATOM     31  O   UNL     1       7.734   7.154  16.811  0.00  0.00    +0.000 OA
ATOM     32  H   UNL     1       8.109   7.770  16.154  0.00  0.00    +0.000 HD
ENDBRANCH  30  31
ENDBRANCH  21  30
ENDBRANCH  20  25
ENDBRANCH  19  20
ENDBRANCH  18  19
ENDBRANCH   1  18
TORSDOF 8
ENDMDL
MODEL 2
REMARK VINA RESULT:      -8.3      6.543      8.567
REMARK  Name = 
REMARK  8 active torsions:
REMARK  status: ('A' for Active; 'I' for Inactive)
REMARK    1  A    between atoms: C_2  and  O_3
REMARK    2  A    between atoms: C_2  and  C_4
REMARK    3  A    between atoms: C_8  and  C_10
REMARK    4  A    between atoms: C_10  and  C_11
REMARK    5  A    between atoms: C_11  and  C_12
REMARK    6  A    between atoms: C_12  and  O_13
REMARK    7  A    between atoms: O_13  and  C_14
REMARK    8  A    between atoms: C_21  and  O_22
REMARK                            x       y       z     vdW  Elec       q    Type
REMARK                         _______ _______ _______ _____ _____    ______ ____
ROOT
ATOM      1  O   UNL     1       8.807   9.104  18.984  0.00  0.00    +0.000 OA
ENDROOT
BRANCH   1   2
ATOM      2  C   UNL     1       9.223  10.351  19.366  0.00  0.00    +0.000 A 
ATOM      3  C   UNL     1       9.463  10.779  20.673  0.00  0.00    +0.000 A 
ATOM      4  C   UNL     1       9.929  12.078  20.919  0.00  0.00    +0.000 A 
ATOM      5  C   UNL     1      10.170  12.952  19.856  0.00  0.00    +0.000 A 
ATOM      6  N   UNL     1      10.695  14.243  20.080  0.00  0.00    +0.000 N 
ATOM      7  C   UNL     1      11.029  15.015  19.006  0.00  0.00    +0.000 A 
ATOM      8  N   UNL     1      11.637  16.167  18.963  0.00  0.00    +0.000 NA
ATOM      9  C   UNL     1      11.684  16.421  17.613  0.00  0.00    +0.000 A 
ATOM     10  N   UNL     1      11.166  15.584  16.774  0.00  0.00    +0.000 NA
ATOM     11  C   UNL     1      10.726  14.608  17.615  0.00  0.00    +0.000 A 
ATOM     12  C   UNL     1      10.159  13.423  17.386  0.00  0.00    +0.000 A 
ATOM     13  C   UNL     1       9.893  12.529  18.530  0.00  0.00    +0.000 A 
ATOM     14  C   UNL     1       9.418  11.235  18.302  0.00  0.00    +0.000 A 
ATOM     15  H   UNL     1      10.947  14.539  21.010  0.00  0.00    +0.000 HD
BRANCH   9  16
ATOM     16  O   UNL     1      12.303  17.554  17.289  0.00  0.00    +0.000 OA
ATOM     17  H   UNL     1      11.616  18.215  17.125  0.00  0.00    +0.000 HD
ENDBRANCH   9  16
ENDBRANCH   1   2
BRANCH   1  18
ATOM     18  C   UNL     1       8.126   9.002  17.738  0.00  0.00    +0.000 C 
BRANCH  18  19
ATOM     19  C   UNL     1       7.696   7.549  17.540  0.00  0.00    +0.000 C 
BRANCH  19  20
ATOM     20  C   UNL     1       6.176   7.453  17.543  0.00  0.00    +0.000 C 
BRANCH  20  25
ATOM     21  C   UNL     1       3.336   3.446  18.761  0.00  0.00    +0.000 C 
ATOM     22  C   UNL     1       3.324   3.557  17.223  0.00  0.00    +0.000 C 
ATOM     23  C   UNL     1       4.652   4.052  16.632  0.00  0.00    +0.000 C 
ATOM     24  N   UNL     1       5.178   5.205  17.367  0.00  0.00    +0.000 N 
ATOM     25  C   UNL     1       5.607   6.338  16.678  0.00  0.00    +0.000 C 
ATOM     26  O   UNL     1       5.531   6.446  15.456  0.00  0.00    +0.000 OA
ATOM     27  C   UNL     1       5.275   5.027  18.811  0.00  0.00    +0.000 C 
ATOM     28  C   UNL     1       3.884   4.744  19.363  0.00  0.00    +0.000 C 
BRANCH  21  30
ATOM     29  O   UNL     1       4.818   2.212  20.249  0.00  0.00    +0.000 OA
ATOM     30  C   UNL     1       4.140   2.243  19.235  0.00  0.00    +0.000 C 
BRANCH  30  31
ATOM     31  O   UNL     1       4.039   1.170  18.416  0.00  0.00    +0.000 OA
ATOM     32  H   UNL     1       3.312   0.556  18.625  0.00  0.00    +0.000 HD
ENDBRANCH  30  31
ENDBRANCH  21  30
ENDBRANCH  20  25
ENDBRANCH  19  20
ENDBRANCH  18  19
ENDBRANCH   1  18
TORSDOF 8
ENDMDL
MODEL 3
REMARK VINA RESULT:      -8.2      6.456      9.943
REMARK  Name = 
REMARK  8 active torsions:
REMARK  status: ('A' for Active; 'I' for Inactive)
REMARK    1  A    between atoms: C_2  and  O_3
REMARK    2  A    between atoms: C_2  and  C_4
REMARK    3  A    between atoms: C_8  and  C_10
REMARK    4  A    between atoms: C_10  and  C_11
REMARK    5  A    between atoms: C_11  and  C_12
REMARK    6  A    between atoms: C_12  and  O_13
REMARK    7  A    between atoms: O_13  and  C_14
REMARK    8  A    between atoms: C_21  and  O_22
REMARK                            x       y       z     vdW  Elec       q    Type
REMARK                         _______ _______ _______ _____ _____    ______ ____
ROOT
ATOM      1  O   UNL     1       7.909   8.815  17.533  0.00  0.00    +0.000 OA
ENDROOT
BRANCH   1   2
ATOM      2  C   UNL     1       7.508   7.555  17.883  0.00  0.00    +0.000 A 
ATOM      3  C   UNL     1       8.154   6.700  18.779  0.00  0.00    +0.000 A 
ATOM      4  C   UNL     1       7.607   5.444  19.079  0.00  0.00    +0.000 A 
ATOM      5  C   UNL     1       6.404   5.043  18.495  0.00  0.00    +0.000 A 
ATOM      6  N   UNL     1       5.809   3.808  18.830  0.00  0.00    +0.000 N 
ATOM      7  C   UNL     1       4.575   3.512  18.329  0.00  0.00    +0.000 A 
ATOM      8  N   UNL     1       3.784   2.510  18.594  0.00  0.00    +0.000 NA
ATOM      9  C   UNL     1       2.703   2.772  17.787  0.00  0.00    +0.000 A 
ATOM     10  N   UNL     1       2.700   3.812  17.017  0.00  0.00    +0.000 NA
ATOM     11  C   UNL     1       3.900   4.373  17.331  0.00  0.00    +0.000 A 
ATOM     12  C   UNL     1       4.482   5.508  16.941  0.00  0.00    +0.000 A 
ATOM     13  C   UNL     1       5.766   5.897  17.558  0.00  0.00    +0.000 A 
ATOM     14  C   UNL     1       6.329   7.140  17.260  0.00  0.00    +0.000 A 
ATOM     15  H   UNL     1       6.222   3.214  19.533  0.00  0.00    +0.000 HD
BRANCH   9  16
ATOM     16  O   UNL     1       1.710   1.892  17.897  0.00  0.00    +0.000 OA
ATOM     17  H   UNL     1       2.075   1.025  17.668  0.00  0.00    +0.000 HD
ENDBRANCH   9  16
ENDBRANCH   1   2
BRANCH   1  18
ATOM     18  C   UNL     1       8.658   9.548  18.496  0.00  0.00    +0.000 C 
BRANCH  18  19
ATOM     19  C   UNL     1       8.864  10.968  17.970  0.00  0.00    +0.000 C 
BRANCH  19  20
ATOM     20  C   UNL     1      10.352  11.282  17.893  0.00  0.00    +0.000 C 
BRANCH  20  25
ATOM     21  C   UNL     1      10.036  16.260  18.739  0.00  0.00    +0.000 C 
ATOM     22  C   UNL     1      10.548  15.614  20.042  0.00  0.00    +0.000 C 
ATOM     23  C   UNL     1      11.475  14.411  19.808  0.00  0.00    +0.000 C 
ATOM     24  N   UNL     1      10.939  13.502  18.792  0.00  0.00    +0.000 N 
ATOM     25  C   UNL     1      10.884  12.131  19.038  0.00  0.00    +0.000 C 
ATOM     26  O   UNL     1      11.230  11.629  20.105  0.00  0.00    +0.000 OA
ATOM     27  C   UNL     1      10.563  14.133  17.533  0.00  0.00    +0.000 C 
ATOM     28  C   UNL     1       9.486  15.174  17.810  0.00  0.00    +0.000 C 
BRANCH  21  30
ATOM     29  O   UNL     1      12.216  17.325  18.524  0.00  0.00    +0.000 OA
ATOM     30  C   UNL     1      11.121  17.073  18.047  0.00  0.00    +0.000 C 
BRANCH  30  31
ATOM     31  O   UNL     1      10.766  17.510  16.817  0.00  0.00    +0.000 OA
ATOM     32  H   UNL     1       9.875  17.245  16.523  0.00  0.00    +0.000 HD
ENDBRANCH  30  31
ENDBRANCH  21  30
ENDBRANCH  20  25
ENDBRANCH  19  20
ENDBRANCH  18  19
ENDBRANCH   1  18
TORSDOF 8
ENDMDL
MODEL 4
REMARK VINA RESULT:      -8.1      6.368      9.827
REMARK  Name = 
REMARK  8 active torsions:
REMARK  status: ('A' for Active; 'I' for Inactive)
REMARK    1  A    between atoms: C_2  and  O_3
REMARK    2  A    between atoms: C_2  and  C_4
REMARK    3  A    between atoms: C_8  and  C_10
REMARK    4  A    between atoms: C_10  and  C_11
REMARK    5  A    between atoms: C_11  and  C_12
REMARK    6  A    between atoms: C_12  and  O_13
REMARK    7  A    between atoms: O_13  and  C_14
REMARK    8  A    between atoms: C_21  and  O_22
REMARK                            x       y       z     vdW  Elec       q    Type
REMARK                         _______ _______ _______ _____ _____    ______ ____
ROOT
ATOM      1  O   UNL     1       7.763   8.458  17.364  0.00  0.00    +0.000 OA
ENDROOT
BRANCH   1   2
ATOM      2  C   UNL     1       7.318   7.232  17.777  0.00  0.00    +0.000 A 
ATOM      3  C   UNL     1       7.946   6.390  18.699  0.00  0.00    +0.000 A 
ATOM      4  C   UNL     1       7.354   5.174  19.065  0.00  0.00    +0.000 A 
ATOM      5  C   UNL     1       6.123   4.798  18.522  0.00  0.00    +0.000 A 
ATOM      6  N   UNL     1       5.484   3.605  18.924  0.00  0.00    +0.000 N 
ATOM      7  C   UNL     1       4.229   3.340  18.459  0.00  0.00    +0.000 A 
ATOM      8  N   UNL     1       3.403   2.386  18.784  0.00  0.00    +0.000 NA
ATOM      9  C   UNL     1       2.317   2.658  17.986  0.00  0.00    +0.000 A 
ATOM     10  N   UNL     1       2.341   3.662  17.171  0.00  0.00    +0.000 NA
ATOM     11  C   UNL     1       3.570   4.185  17.436  0.00  0.00    +0.000 A 
ATOM     12  C   UNL     1       4.190   5.276  16.986  0.00  0.00    +0.000 A 
ATOM     13  C   UNL     1       5.502   5.636  17.560  0.00  0.00    +0.000 A 
ATOM     14  C   UNL     1       6.109   6.841  17.197  0.00  0.00    +0.000 A 
ATOM     15  H   UNL     1       5.887   3.026  19.644  0.00  0.00    +0.000 HD
BRANCH   9  16
ATOM     16  O   UNL     1       1.291   1.826  18.154  0.00  0.00    +0.000 OA
ATOM     17  H   UNL     1       0.801   1.809  17.320  0.00  0.00    +0.000 HD
ENDBRANCH   9  16
ENDBRANCH   1   2
BRANCH   1  18
ATOM     18  C   UNL     1       8.526   9.218  18.295  0.00  0.00    +0.000 C 
BRANCH  18  19
ATOM     19  C   UNL     1       8.574  10.667  17.811  0.00  0.00    +0.000 C 
BRANCH  19  20
ATOM     20  C   UNL     1       9.351  11.520  18.805  0.00  0.00    +0.000 C 
BRANCH  20  25
ATOM     21  C   UNL     1      10.610  16.411  19.112  0.00  0.00    +0.000 C 
ATOM     22  C   UNL     1      11.821  15.671  18.509  0.00  0.00    +0.000 C 
ATOM     23  C   UNL     1      11.432  14.505  17.588  0.00  0.00    +0.000 C 
ATOM     24  N   UNL     1      10.384  13.670  18.181  0.00  0.00    +0.000 N 
ATOM     25  C   UNL     1      10.524  12.284  18.207  0.00  0.00    +0.000 C 
ATOM     26  O   UNL     1      11.523  11.704  17.787  0.00  0.00    +0.000 OA
ATOM     27  C   UNL     1       9.206  14.394  18.645  0.00  0.00    +0.000 C 
ATOM     28  C   UNL     1       9.635  15.393  19.711  0.00  0.00    +0.000 C 
BRANCH  21  30
ATOM     29  O   UNL     1      10.398  17.625  17.011  0.00  0.00    +0.000 OA
ATOM     30  C   UNL     1       9.916  17.291  18.081  0.00  0.00    +0.000 C 
BRANCH  30  31
ATOM     31  O   UNL     1       8.678  17.688  18.457  0.00  0.00    +0.000 OA
ATOM     32  H   UNL     1       8.639  18.196  19.288  0.00  0.00    +0.000 HD
ENDBRANCH  30  31
ENDBRANCH  21  30
ENDBRANCH  20  25
ENDBRANCH  19  20
ENDBRANCH  18  19
ENDBRANCH   1  18
TORSDOF 8
ENDMDL
MODEL 5
REMARK VINA RESULT:      -8.0      2.022      4.266
REMARK  Name = 
REMARK  8 active torsions:
REMARK  status: ('A' for Active; 'I' for Inactive)
REMARK    1  A    between atoms: C_2  and  O_3
REMARK    2  A    between atoms: C_2  and  C_4
REMARK    3  A    between atoms: C_8  and  C_10
REMARK    4  A    between atoms: C_10  and  C_11
REMARK    5  A    between atoms: C_11  and  C_12
REMARK    6  A    between atoms: C_12  and  O_13
REMARK    7  A    between atoms: O_13  and  C_14
REMARK    8  A    between atoms: C_21  and  O_22
REMARK                            x       y       z     vdW  Elec       q    Type
REMARK                         _______ _______ _______ _____ _____    ______ ____
ROOT
ATOM      1  O   UNL     1       3.144   7.526  17.340  0.00  0.00    +0.000 OA
ENDROOT
BRANCH   1   2
ATOM      2  C   UNL     1       2.482   7.766  18.513  0.00  0.00    +0.000 A 
ATOM      3  C   UNL     1       2.435   6.922  19.626  0.00  0.00    +0.000 A 
ATOM      4  C   UNL     1       1.750   7.314  20.784  0.00  0.00    +0.000 A 
ATOM      5  C   UNL     1       1.118   8.558  20.841  0.00  0.00    +0.000 A 
ATOM      6  N   UNL     1       0.474   8.994  22.018  0.00  0.00    +0.000 N 
ATOM      7  C   UNL     1      -0.023  10.264  22.068  0.00  0.00    +0.000 A 
ATOM      8  N   UNL     1      -0.535  10.922  23.070  0.00  0.00    +0.000 NA
ATOM      9  C   UNL     1      -0.839  12.133  22.497  0.00  0.00    +0.000 A 
ATOM     10  N   UNL     1      -0.604  12.338  21.242  0.00  0.00    +0.000 NA
ATOM     11  C   UNL     1      -0.040  11.152  20.883  0.00  0.00    +0.000 A 
ATOM     12  C   UNL     1       0.495  10.730  19.737  0.00  0.00    +0.000 A 
ATOM     13  C   UNL     1       1.135   9.400  19.699  0.00  0.00    +0.000 A 
ATOM     14  C   UNL     1       1.813   8.991  18.548  0.00  0.00    +0.000 A 
ATOM     15  H   UNL     1       0.499   8.431  22.854  0.00  0.00    +0.000 HD
BRANCH   9  16
ATOM     16  O   UNL     1      -1.358  13.024  23.340  0.00  0.00    +0.000 OA
ATOM     17  H   UNL     1      -2.272  13.179  23.060  0.00  0.00    +0.000 HD
ENDBRANCH   9  16
ENDBRANCH   1   2
BRANCH   1  18
ATOM     18  C   UNL     1       4.541   7.265  17.427  0.00  0.00    +0.000 C 
BRANCH  18  19
ATOM     19  C   UNL     1       4.986   6.584  16.133  0.00  0.00    +0.000 C 
BRANCH  19  20
ATOM     20  C   UNL     1       4.743   5.083  16.226  0.00  0.00    +0.000 C 
BRANCH  20  25
ATOM     21  C   UNL     1       2.442   2.005  19.516  0.00  0.00    +0.000 C 
ATOM     22  C   UNL     1       3.946   1.982  19.854  0.00  0.00    +0.000 C 
ATOM     23  C   UNL     1       4.645   3.333  19.638  0.00  0.00    +0.000 C 
ATOM     24  N   UNL     1       4.270   3.940  18.358  0.00  0.00    +0.000 N 
ATOM     25  C   UNL     1       5.254   4.434  17.503  0.00  0.00    +0.000 C 
ATOM     26  O   UNL     1       6.456   4.350  17.747  0.00  0.00    +0.000 OA
ATOM     27  C   UNL     1       2.836   4.042  18.118  0.00  0.00    +0.000 C 
ATOM     28  C   UNL     1       2.236   2.642  18.138  0.00  0.00    +0.000 C 
BRANCH  21  30
ATOM     29  O   UNL     1       2.008   2.933  21.726  0.00  0.00    +0.000 OA
ATOM     30  C   UNL     1       1.635   2.734  20.581  0.00  0.00    +0.000 C 
BRANCH  30  31
ATOM     31  O   UNL     1       0.428   3.162  20.144  0.00  0.00    +0.000 OA
ATOM     32  H   UNL     1       0.413   3.501  19.230  0.00  0.00    +0.000 HD
ENDBRANCH  30  31
ENDBRANCH  21  30
ENDBRANCH  20  25
ENDBRANCH  19  20
ENDBRANCH  18  19
ENDBRANCH   1  18
TORSDOF 8
ENDMDL
MODEL 6
REMARK VINA RESULT:      -8.0      1.825      2.292
REMARK  Name = 
REMARK  8 active torsions:
REMARK  status: ('A' for Active; 'I' for Inactive)
REMARK    1  A    between atoms: C_2  and  O_3
REMARK    2  A    between atoms: C_2  and  C_4
REMARK    3  A    between atoms: C_8  and  C_10
REMARK    4  A    between atoms: C_10  and  C_11
REMARK    5  A    between atoms: C_11  and  C_12
REMARK    6  A    between atoms: C_12  and  O_13
REMARK    7  A    between atoms: O_13  and  C_14
REMARK    8  A    between atoms: C_21  and  O_22
REMARK                            x       y       z     vdW  Elec       q    Type
REMARK                         _______ _______ _______ _____ _____    ______ ____
ROOT
ATOM      1  O   UNL     1       2.920   6.183  18.685  0.00  0.00    +0.000 OA
ENDROOT
BRANCH   1   2
ATOM      2  C   UNL     1       2.326   7.404  18.845  0.00  0.00    +0.000 A 
ATOM      3  C   UNL     1       2.077   8.343  17.841  0.00  0.00    +0.000 A 
ATOM      4  C   UNL     1       1.418   9.543  18.141  0.00  0.00    +0.000 A 
ATOM      5  C   UNL     1       0.991   9.805  19.445  0.00  0.00    +0.000 A 
ATOM      6  N   UNL     1       0.274  10.981  19.754  0.00  0.00    +0.000 N 
ATOM      7  C   UNL     1      -0.228  11.137  21.012  0.00  0.00    +0.000 A 
ATOM      8  N   UNL     1      -1.016  12.059  21.489  0.00  0.00    +0.000 NA
ATOM      9  C   UNL     1      -1.163  11.668  22.798  0.00  0.00    +0.000 A 
ATOM     10  N   UNL     1      -0.554  10.614  23.236  0.00  0.00    +0.000 NA
ATOM     11  C   UNL     1       0.075  10.187  22.107  0.00  0.00    +0.000 A 
ATOM     12  C   UNL     1       0.816   9.107  21.854  0.00  0.00    +0.000 A 
ATOM     13  C   UNL     1       1.274   8.867  20.472  0.00  0.00    +0.000 A 
ATOM     14  C   UNL     1       1.942   7.681  20.160  0.00  0.00    +0.000 A 
ATOM     15  H   UNL     1       0.019  11.631  19.026  0.00  0.00    +0.000 HD
BRANCH   9  16
ATOM     16  O   UNL     1      -1.972  12.445  23.515  0.00  0.00    +0.000 OA
ATOM     17  H   UNL     1      -1.446  12.804  24.244  0.00  0.00    +0.000 HD
ENDBRANCH   9  16
ENDBRANCH   1   2
BRANCH   1  18
ATOM     18  C   UNL     1       2.081   5.099  18.301  0.00  0.00    +0.000 C 
BRANCH  18  19
ATOM     19  C   UNL     1       2.344   3.926  19.245  0.00  0.00    +0.000 C 
BRANCH  19  20
ATOM     20  C   UNL     1       3.429   3.027  18.666  0.00  0.00    +0.000 C 
BRANCH  20  25
ATOM     21  C   UNL     1       6.282   5.842  15.577  0.00  0.00    +0.000 C 
ATOM     22  C   UNL     1       6.993   5.812  16.945  0.00  0.00    +0.000 C 
ATOM     23  C   UNL     1       6.844   4.474  17.686  0.00  0.00    +0.000 C 
ATOM     24  N   UNL     1       5.462   3.987  17.655  0.00  0.00    +0.000 N 
ATOM     25  C   UNL     1       4.847   3.555  18.828  0.00  0.00    +0.000 C 
ATOM     26  O   UNL     1       5.396   3.598  19.927  0.00  0.00    +0.000 OA
ATOM     27  C   UNL     1       4.856   3.929  16.331  0.00  0.00    +0.000 C 
ATOM     28  C   UNL     1       4.846   5.331  15.735  0.00  0.00    +0.000 C 
BRANCH  21  30
ATOM     29  O   UNL     1       6.680   3.953  14.091  0.00  0.00    +0.000 OA
ATOM     30  C   UNL     1       7.037   5.034  14.530  0.00  0.00    +0.000 C 
BRANCH  30  31
ATOM     31  O   UNL     1       8.175   5.631  14.106  0.00  0.00    +0.000 OA
ATOM     32  H   UNL     1       8.462   5.386  13.207  0.00  0.00    +0.000 HD
ENDBRANCH  30  31
ENDBRANCH  21  30
ENDBRANCH  20  25
ENDBRANCH  19  20
ENDBRANCH  18  19
ENDBRANCH   1  18
TORSDOF 8
ENDMDL
MODEL 7
REMARK VINA RESULT:      -8.0      6.173      9.636
REMARK  Name = 
REMARK  8 active torsions:
REMARK  status: ('A' for Active; 'I' for Inactive)
REMARK    1  A    between atoms: C_2  and  O_3
REMARK    2  A    between atoms: C_2  and  C_4
REMARK    3  A    between atoms: C_8  and  C_10
REMARK    4  A    between atoms: C_10  and  C_11
REMARK    5  A    between atoms: C_11  and  C_12
REMARK    6  A    between atoms: C_12  and  O_13
REMARK    7  A    between atoms: O_13  and  C_14
REMARK    8  A    between atoms: C_21  and  O_22
REMARK                            x       y       z     vdW  Elec       q    Type
REMARK                         _______ _______ _______ _____ _____    ______ ____
ROOT
ATOM      1  O   UNL     1       7.799   8.086  17.027  0.00  0.00    +0.000 OA
ENDROOT
BRANCH   1   2
ATOM      2  C   UNL     1       7.311   6.958  17.627  0.00  0.00    +0.000 A 
ATOM      3  C   UNL     1       7.839   6.325  18.755  0.00  0.00    +0.000 A 
ATOM      4  C   UNL     1       7.210   5.194  19.292  0.00  0.00    +0.000 A 
ATOM      5  C   UNL     1       6.040   4.697  18.713  0.00  0.00    +0.000 A 
ATOM      6  N   UNL     1       5.361   3.595  19.275  0.00  0.00    +0.000 N 
ATOM      7  C   UNL     1       4.159   3.221  18.748  0.00  0.00    +0.000 A 
ATOM      8  N   UNL     1       3.302   2.334  19.169  0.00  0.00    +0.000 NA
ATOM      9  C   UNL     1       2.304   2.425  18.229  0.00  0.00    +0.000 A 
ATOM     10  N   UNL     1       2.414   3.249  17.238  0.00  0.00    +0.000 NA
ATOM     11  C   UNL     1       3.610   3.836  17.517  0.00  0.00    +0.000 A 
ATOM     12  C   UNL     1       4.276   4.829  16.926  0.00  0.00    +0.000 A 
ATOM     13  C   UNL     1       5.523   5.318  17.547  0.00  0.00    +0.000 A 
ATOM     14  C   UNL     1       6.167   6.438  17.016  0.00  0.00    +0.000 A 
ATOM     15  H   UNL     1       5.686   3.176  20.132  0.00  0.00    +0.000 HD
BRANCH   9  16
ATOM     16  O   UNL     1       1.264   1.624  18.453  0.00  0.00    +0.000 OA
ATOM     17  H   UNL     1       0.475   2.094  18.149  0.00  0.00    +0.000 HD
ENDBRANCH   9  16
ENDBRANCH   1   2
BRANCH   1  18
ATOM     18  C   UNL     1       7.657   9.311  17.738  0.00  0.00    +0.000 C 
BRANCH  18  19
ATOM     19  C   UNL     1       8.921   9.539  18.566  0.00  0.00    +0.000 C 
BRANCH  19  20
ATOM     20  C   UNL     1       9.338  11.001  18.485  0.00  0.00    +0.000 C 
BRANCH  20  25
ATOM     21  C   UNL     1      10.056  15.875  19.636  0.00  0.00    +0.000 C 
ATOM     22  C   UNL     1       9.733  15.144  20.955  0.00  0.00    +0.000 C 
ATOM     23  C   UNL     1      10.298  13.717  21.019  0.00  0.00    +0.000 C 
ATOM     24  N   UNL     1      10.045  12.976  19.781  0.00  0.00    +0.000 N 
ATOM     25  C   UNL     1       9.512  11.689  19.831  0.00  0.00    +0.000 C 
ATOM     26  O   UNL     1       9.193  11.138  20.882  0.00  0.00    +0.000 OA
ATOM     27  C   UNL     1      10.460  13.654  18.559  0.00  0.00    +0.000 C 
ATOM     28  C   UNL     1       9.704  14.972  18.450  0.00  0.00    +0.000 C 
BRANCH  21  30
ATOM     29  O   UNL     1      12.294  16.271  20.512  0.00  0.00    +0.000 OA
ATOM     30  C   UNL     1      11.512  16.314  19.576  0.00  0.00    +0.000 C 
BRANCH  30  31
ATOM     31  O   UNL     1      11.887  16.772  18.359  0.00  0.00    +0.000 OA
ATOM     32  H   UNL     1      11.887  16.107  17.646  0.00  0.00    +0.000 HD
ENDBRANCH  30  31
ENDBRANCH  21  30
ENDBRANCH  20  25
ENDBRANCH  19  20
ENDBRANCH  18  19
ENDBRANCH   1  18
TORSDOF 8
ENDMDL
MODEL 8
REMARK VINA RESULT:      -7.9      1.264      1.613
REMARK  Name = 
REMARK  8 active torsions:
REMARK  status: ('A' for Active; 'I' for Inactive)
REMARK    1  A    between atoms: C_2  and  O_3
REMARK    2  A    between atoms: C_2  and  C_4
REMARK    3  A    between atoms: C_8  and  C_10
REMARK    4  A    between atoms: C_10  and  C_11
REMARK    5  A    between atoms: C_11  and  C_12
REMARK    6  A    between atoms: C_12  and  O_13
REMARK    7  A    between atoms: O_13  and  C_14
REMARK    8  A    between atoms: C_21  and  O_22
REMARK                            x       y       z     vdW  Elec       q    Type
REMARK                         _______ _______ _______ _____ _____    ______ ____
ROOT
ATOM      1  O   UNL     1       2.508   5.611  19.876  0.00  0.00    +0.000 OA
ENDROOT
BRANCH   1   2
ATOM      2  C   UNL     1       2.084   6.910  19.811  0.00  0.00    +0.000 A 
ATOM      3  C   UNL     1       2.149   7.748  18.695  0.00  0.00    +0.000 A 
ATOM      4  C   UNL     1       1.636   9.051  18.756  0.00  0.00    +0.000 A 
ATOM      5  C   UNL     1       1.044   9.519  19.931  0.00  0.00    +0.000 A 
ATOM      6  N   UNL     1       0.470  10.807  19.993  0.00  0.00    +0.000 N 
ATOM      7  C   UNL     1      -0.204  11.176  21.120  0.00  0.00    +0.000 A 
ATOM      8  N   UNL     1      -0.914  12.243  21.357  0.00  0.00    +0.000 NA
ATOM      9  C   UNL     1      -1.333  12.033  22.650  0.00  0.00    +0.000 A 
ATOM     10  N   UNL     1      -0.969  10.968  23.288  0.00  0.00    +0.000 NA
ATOM     11  C   UNL     1      -0.233  10.331  22.336  0.00  0.00    +0.000 A 
ATOM     12  C   UNL     1       0.370   9.141  22.324  0.00  0.00    +0.000 A 
ATOM     13  C   UNL     1       1.009   8.681  21.075  0.00  0.00    +0.000 A 
ATOM     14  C   UNL     1       1.534   7.388  21.002  0.00  0.00    +0.000 A 
ATOM     15  H   UNL     1       0.439  11.394  19.174  0.00  0.00    +0.000 HD
BRANCH   9  16
ATOM     16  O   UNL     1      -2.123  12.989  23.133  0.00  0.00    +0.000 OA
ATOM     17  H   UNL     1      -1.805  13.828  22.771  0.00  0.00    +0.000 HD
ENDBRANCH   9  16
ENDBRANCH   1   2
BRANCH   1  18
ATOM     18  C   UNL     1       1.899   4.779  20.858  0.00  0.00    +0.000 C 
BRANCH  18  19
ATOM     19  C   UNL     1       2.066   3.322  20.428  0.00  0.00    +0.000 C 
BRANCH  19  20
ATOM     20  C   UNL     1       3.481   3.091  19.916  0.00  0.00    +0.000 C 
BRANCH  20  25
ATOM     21  C   UNL     1       7.077   4.832  16.812  0.00  0.00    +0.000 C 
ATOM     22  C   UNL     1       6.178   3.896  15.979  0.00  0.00    +0.000 C 
ATOM     23  C   UNL     1       4.696   3.951  16.380  0.00  0.00    +0.000 C 
ATOM     24  N   UNL     1       4.524   3.902  17.834  0.00  0.00    +0.000 N 
ATOM     25  C   UNL     1       3.606   3.019  18.401  0.00  0.00    +0.000 C 
ATOM     26  O   UNL     1       2.942   2.227  17.737  0.00  0.00    +0.000 OA
ATOM     27  C   UNL     1       5.312   4.873  18.583  0.00  0.00    +0.000 C 
ATOM     28  C   UNL     1       6.788   4.628  18.302  0.00  0.00    +0.000 C 
BRANCH  21  30
ATOM     29  O   UNL     1       7.518   7.226  16.889  0.00  0.00    +0.000 OA
ATOM     30  C   UNL     1       6.895   6.291  16.415  0.00  0.00    +0.000 C 
BRANCH  30  31
ATOM     31  O   UNL     1       5.955   6.477  15.459  0.00  0.00    +0.000 OA
ATOM     32  H   UNL     1       5.803   5.713  14.872  0.00  0.00    +0.000 HD
ENDBRANCH  30  31
ENDBRANCH  21  30
ENDBRANCH  20  25
ENDBRANCH  19  20
ENDBRANCH  18  19
ENDBRANCH   1  18
TORSDOF 8
ENDMDL
MODEL 9
REMARK VINA RESULT:      -7.9      1.169      1.268
REMARK  Name = 
REMARK  8 active torsions:
REMARK  status: ('A' for Active; 'I' for Inactive)
REMARK    1  A    between atoms: C_2  and  O_3
REMARK    2  A    between atoms: C_2  and  C_4
REMARK    3  A    between atoms: C_8  and  C_10
REMARK    4  A    between atoms: C_10  and  C_11
REMARK    5  A    between atoms: C_11  and  C_12
REMARK    6  A    between atoms: C_12  and  O_13
REMARK    7  A    between atoms: O_13  and  C_14
REMARK    8  A    between atoms: C_21  and  O_22
REMARK                            x       y       z     vdW  Elec       q    Type
REMARK                         _______ _______ _______ _____ _____    ______ ____
ROOT
ATOM      1  O   UNL     1       2.686   6.454  20.174  0.00  0.00    +0.000 OA
ENDROOT
BRANCH   1   2
ATOM      2  C   UNL     1       2.144   7.573  19.602  0.00  0.00    +0.000 A 
ATOM      3  C   UNL     1       2.281   7.971  18.270  0.00  0.00    +0.000 A 
ATOM      4  C   UNL     1       1.633   9.124  17.805  0.00  0.00    +0.000 A 
ATOM      5  C   UNL     1       0.833   9.877  18.667  0.00  0.00    +0.000 A 
ATOM      6  N   UNL     1       0.126  11.007  18.202  0.00  0.00    +0.000 N 
ATOM      7  C   UNL     1      -0.737  11.640  19.048  0.00  0.00    +0.000 A 
ATOM      8  N   UNL     1      -1.580  12.606  18.813  0.00  0.00    +0.000 NA
ATOM      9  C   UNL     1      -2.156  12.797  20.046  0.00  0.00    +0.000 A 
ATOM     10  N   UNL     1      -1.779  12.086  21.059  0.00  0.00    +0.000 NA
ATOM     11  C   UNL     1      -0.852  11.274  20.479  0.00  0.00    +0.000 A 
ATOM     12  C   UNL     1      -0.134  10.257  20.957  0.00  0.00    +0.000 A 
ATOM     13  C   UNL     1       0.722   9.493  20.028  0.00  0.00    +0.000 A 
ATOM     14  C   UNL     1       1.383   8.347  20.480  0.00  0.00    +0.000 A 
ATOM     15  H   UNL     1       0.153  11.262  17.228  0.00  0.00    +0.000 HD
BRANCH   9  16
ATOM     16  O   UNL     1      -3.102  13.733  20.071  0.00  0.00    +0.000 OA
ATOM     17  H   UNL     1      -2.668  14.578  19.889  0.00  0.00    +0.000 HD
ENDBRANCH   9  16
ENDBRANCH   1   2
BRANCH   1  18
ATOM     18  C   UNL     1       1.928   5.252  20.090  0.00  0.00    +0.000 C 
BRANCH  18  19
ATOM     19  C   UNL     1       2.795   4.098  20.595  0.00  0.00    +0.000 C 
BRANCH  19  20
ATOM     20  C   UNL     1       3.441   3.381  19.418  0.00  0.00    +0.000 C 
BRANCH  20  25
ATOM     21  C   UNL     1       7.340   5.687  17.166  0.00  0.00    +0.000 C 
ATOM     22  C   UNL     1       6.176   5.682  16.156  0.00  0.00    +0.000 C 
ATOM     23  C   UNL     1       4.795   5.846  16.809  0.00  0.00    +0.000 C 
ATOM     24  N   UNL     1       4.645   4.986  17.986  0.00  0.00    +0.000 N 
ATOM     25  C   UNL     1       3.507   4.195  18.134  0.00  0.00    +0.000 C 
ATOM     26  O   UNL     1       2.614   4.144  17.292  0.00  0.00    +0.000 OA
ATOM     27  C   UNL     1       5.713   5.095  18.972  0.00  0.00    +0.000 C 
ATOM     28  C   UNL     1       7.031   4.715  18.309  0.00  0.00    +0.000 C 
BRANCH  21  30
ATOM     29  O   UNL     1       7.239   8.121  17.176  0.00  0.00    +0.000 OA
ATOM     30  C   UNL     1       7.620   7.086  17.699  0.00  0.00    +0.000 C 
BRANCH  30  31
ATOM     31  O   UNL     1       8.348   7.093  18.840  0.00  0.00    +0.000 OA
ATOM     32  H   UNL     1       8.635   6.217  19.155  0.00  0.00    +0.000 HD
ENDBRANCH  30  31
ENDBRANCH  21  30
ENDBRANCH  20  25
ENDBRANCH  19  20
ENDBRANCH  18  19
ENDBRANCH   1  18
TORSDOF 8
ENDMDL
