MODEL 1
REMARK VINA RESULT:      -8.3      0.000      0.000
REMARK  Name = 
REMARK  11 active torsions:
REMARK  status: ('A' for Active; 'I' for Inactive)
REMARK    1  A    between atoms: C_1  and  C_2
REMARK    2  A    between atoms: C_4  and  C_5
REMARK    3  A    between atoms: N_7  and  C_8
REMARK    4  A    between atoms: C_8  and  C_9
REMARK    5  A    between atoms: C_8  and  C_15
REMARK    6  A    between atoms: C_15  and  C_16
REMARK    7  A    between atoms: C_18  and  C_19
REMARK    8  A    between atoms: C_19  and  C_20
REMARK    9  A    between atoms: C_19  and  C_21
REMARK   10  A    between atoms: N_23  and  C_24
REMARK   11  A    between atoms: N_34  and  C_35
REMARK                            x       y       z     vdW  Elec       q    Type
REMARK                         _______ _______ _______ _____ _____    ______ ____
ROOT
ATOM      1  C   UNL     1       1.987   7.824  19.328  0.00  0.00    +0.000 C 
ATOM      2  C   UNL     1       1.212   7.620  18.060  0.00  0.00    +0.000 C 
ATOM      3  C   UNL     1       1.935   9.346  19.608  0.00  0.00    +0.000 C 
ATOM      4  C   UNL     1       1.633   8.485  20.768  0.00  0.00    +0.000 C 
ENDROOT
BRANCH   4   5
ATOM      5  C   UNL     1       0.304   8.448  21.530  0.00  0.00    +0.000 C 
ATOM      6  C   UNL     1      -0.905   8.130  20.676  0.00  0.00    +0.000 C 
BRANCH   5   7
ATOM      7  C   UNL     1       0.000   9.672  22.456  0.00  0.00    +0.000 C 
ATOM      8  O   UNL     1       0.511   9.776  23.594  0.00  0.00    +0.000 OA
ATOM      9  N   UNL     1      -0.900  10.620  21.927  0.00  0.00    +0.000 N 
ATOM     10  H   UNL     1      -1.373  10.376  21.072  0.00  0.00    +0.000 HD
BRANCH   9  11
ATOM     11  C   UNL     1      -1.359  11.769  22.626  0.00  0.00    +0.000 A 
ATOM     12  C   UNL     1      -2.608  11.824  23.216  0.00  0.00    +0.000 A 
ATOM     13  C   UNL     1      -3.064  12.981  23.868  0.00  0.00    +0.000 A 
ATOM     14  C   UNL     1      -2.278  14.115  24.023  0.00  0.00    +0.000 A 
ATOM     15  C   UNL     1      -2.652  15.135  24.933  0.00  0.00    +0.000 A 
ATOM     16  C   UNL     1      -1.818  16.163  25.238  0.00  0.00    +0.000 A 
ATOM     17  C   UNL     1      -1.244  16.652  24.118  0.00  0.00    +0.000 A 
ATOM     18  C   UNL     1      -0.600  15.678  23.332  0.00  0.00    +0.000 A 
ATOM     19  C   UNL     1      -1.056  14.275  23.308  0.00  0.00    +0.000 A 
ATOM     20  C   UNL     1      -0.569  13.003  22.682  0.00  0.00    +0.000 A 
ENDBRANCH   9  11
ENDBRANCH   5   7
ENDBRANCH   4   5
BRANCH   1  21
ATOM     21  C   UNL     1       3.029   6.604  19.442  0.00  0.00    +0.000 C 
BRANCH  21  22
ATOM     22  C   UNL     1       2.241   5.229  19.511  0.00  0.00    +0.000 A 
ATOM     23  C   UNL     1       1.944   4.450  18.379  0.00  0.00    +0.000 A 
ATOM     24  C   UNL     1       1.101   3.324  18.499  0.00  0.00    +0.000 A 
ATOM     25  C   UNL     1       0.637   2.898  19.746  0.00  0.00    +0.000 A 
ATOM     26  C   UNL     1       1.035   3.569  20.890  0.00  0.00    +0.000 A 
ATOM     27  C   UNL     1       1.823   4.710  20.764  0.00  0.00    +0.000 A 
ENDBRANCH  21  22
BRANCH  21  30
ATOM     28  C   UNL     1       5.124   5.743  18.376  0.00  0.00    +0.000 C 
ATOM     29  O   UNL     1       5.515   5.305  19.455  0.00  0.00    +0.000 OA
ATOM     30  N   UNL     1       3.972   6.527  18.291  0.00  0.00    +0.000 N 
ATOM     31  H   UNL     1       3.557   6.547  17.370  0.00  0.00    +0.000 HD
BRANCH  28  35
ATOM     32  C   UNL     1       6.623   4.174  13.770  0.00  0.00    +0.000 C 
ATOM     33  C   UNL     1       6.510   4.829  15.096  0.00  0.00    +0.000 A 
ATOM     34  C   UNL     1       5.581   4.550  16.126  0.00  0.00    +0.000 A 
ATOM     35  C   UNL     1       5.845   5.456  17.145  0.00  0.00    +0.000 A 
ATOM     36  N   UNL     1       6.930   6.183  16.680  0.00  0.00    +0.000 N 
ATOM     37  C   UNL     1       7.683   7.220  17.351  0.00  0.00    +0.000 C 
ATOM     38  N   UNL     1       7.345   5.810  15.445  0.00  0.00    +0.000 NA
ENDBRANCH  28  35
ENDBRANCH  21  30
ENDBRANCH   1  21
TORSDOF 7
ENDMDL
MODEL 2
REMARK VINA RESULT:      -8.2      6.945      8.256
REMARK  Name = 
REMARK  11 active torsions:
REMARK  status: ('A' for Active; 'I' for Inactive)
REMARK    1  A    between atoms: C_1  and  C_2
REMARK    2  A    between atoms: C_4  and  C_5
REMARK    3  A    between atoms: N_7  and  C_8
REMARK    4  A    between atoms: C_8  and  C_9
REMARK    5  A    between atoms: C_8  and  C_15
REMARK    6  A    between atoms: C_15  and  C_16
REMARK    7  A    between atoms: C_18  and  C_19
REMARK    8  A    between atoms: C_19  and  C_20
REMARK    9  A    between atoms: C_19  and  C_21
REMARK   10  A    between atoms: N_23  and  C_24
REMARK   11  A    between atoms: N_34  and  C_35
REMARK                            x       y       z     vdW  Elec       q    Type
REMARK                         _______ _______ _______ _____ _____    ______ ____
ROOT
ATOM      1  C   UNL     1       5.131   5.653  18.086  0.00  0.00    +0.000 C 
ATOM      2  C   UNL     1       4.689   5.511  19.513  0.00  0.00    +0.000 C 
ATOM      3  C   UNL     1       5.001   7.161  17.759  0.00  0.00    +0.000 C 
ATOM      4  C   UNL     1       6.274   6.539  17.347  0.00  0.00    +0.000 C 
ENDROOT
BRANCH   4   5
ATOM      5  C   UNL     1       7.664   6.921  17.866  0.00  0.00    +0.000 C 
ATOM      6  C   UNL     1       8.086   6.202  19.129  0.00  0.00    +0.000 C 
BRANCH   5   7
ATOM      7  C   UNL     1       7.960   8.452  17.995  0.00  0.00    +0.000 C 
ATOM      8  O   UNL     1       7.411   9.292  17.247  0.00  0.00    +0.000 OA
ATOM      9  N   UNL     1       8.899   8.803  18.987  0.00  0.00    +0.000 N 
ATOM     10  H   UNL     1       9.397   8.050  19.434  0.00  0.00    +0.000 HD
BRANCH   9  11
ATOM     11  C   UNL     1       9.357  10.127  19.227  0.00  0.00    +0.000 A 
ATOM     12  C   UNL     1       9.261  10.727  20.469  0.00  0.00    +0.000 A 
ATOM     13  C   UNL     1       9.679  12.051  20.682  0.00  0.00    +0.000 A 
ATOM     14  C   UNL     1      10.274  12.818  19.690  0.00  0.00    +0.000 A 
ATOM     15  C   UNL     1      10.947  14.022  20.013  0.00  0.00    +0.000 A 
ATOM     16  C   UNL     1      11.688  14.697  19.097  0.00  0.00    +0.000 A 
ATOM     17  C   UNL     1      11.029  14.772  17.921  0.00  0.00    +0.000 A 
ATOM     18  C   UNL     1      10.598  13.528  17.425  0.00  0.00    +0.000 A 
ATOM     19  C   UNL     1      10.262  12.408  18.325  0.00  0.00    +0.000 A 
ATOM     20  C   UNL     1       9.873  10.972  18.146  0.00  0.00    +0.000 A 
ENDBRANCH   9  11
ENDBRANCH   5   7
ENDBRANCH   4   5
BRANCH   1  21
ATOM     21  C   UNL     1       4.886   4.232  17.376  0.00  0.00    +0.000 C 
BRANCH  21  22
ATOM     22  C   UNL     1       3.513   3.612  17.874  0.00  0.00    +0.000 A 
ATOM     23  C   UNL     1       2.268   4.238  17.686  0.00  0.00    +0.000 A 
ATOM     24  C   UNL     1       1.113   3.707  18.298  0.00  0.00    +0.000 A 
ATOM     25  C   UNL     1       1.157   2.503  19.004  0.00  0.00    +0.000 A 
ATOM     26  C   UNL     1       2.346   1.798  19.081  0.00  0.00    +0.000 A 
ATOM     27  C   UNL     1       3.496   2.349  18.522  0.00  0.00    +0.000 A 
ENDBRANCH  21  22
BRANCH  21  30
ATOM     28  C   UNL     1       5.941   3.969  15.121  0.00  0.00    +0.000 C 
ATOM     29  O   UNL     1       7.046   3.821  15.634  0.00  0.00    +0.000 OA
ATOM     30  N   UNL     1       4.829   4.319  15.890  0.00  0.00    +0.000 N 
ATOM     31  H   UNL     1       3.944   4.087  15.461  0.00  0.00    +0.000 HD
BRANCH  28  35
ATOM     32  C   UNL     1       4.115   3.103  10.447  0.00  0.00    +0.000 C 
ATOM     33  C   UNL     1       4.958   3.459  11.615  0.00  0.00    +0.000 A 
ATOM     34  C   UNL     1       4.690   3.218  12.984  0.00  0.00    +0.000 A 
ATOM     35  C   UNL     1       5.746   3.777  13.691  0.00  0.00    +0.000 A 
ATOM     36  N   UNL     1       6.589   4.274  12.708  0.00  0.00    +0.000 N 
ATOM     37  C   UNL     1       7.883   4.903  12.854  0.00  0.00    +0.000 C 
ATOM     38  N   UNL     1       6.125   4.084  11.449  0.00  0.00    +0.000 NA
ENDBRANCH  28  35
ENDBRANCH  21  30
ENDBRANCH   1  21
TORSDOF 7
ENDMDL
MODEL 3
REMARK VINA RESULT:      -8.2      1.119      1.824
REMARK  Name = 
REMARK  11 active torsions:
REMARK  status: ('A' for Active; 'I' for Inactive)
REMARK    1  A    between atoms: C_1  and  C_2
REMARK    2  A    between atoms: C_4  and  C_5
REMARK    3  A    between atoms: N_7  and  C_8
REMARK    4  A    between atoms: C_8  and  C_9
REMARK    5  A    between atoms: C_8  and  C_15
REMARK    6  A    between atoms: C_15  and  C_16
REMARK    7  A    between atoms: C_18  and  C_19
REMARK    8  A    between atoms: C_19  and  C_20
REMARK    9  A    between atoms: C_19  and  C_21
REMARK   10  A    between atoms: N_23  and  C_24
REMARK   11  A    between atoms: N_34  and  C_35
REMARK                            x       y       z     vdW  Elec       q    Type
REMARK                         _______ _______ _______ _____ _____    ______ ____
ROOT
ATOM      1  C   UNL     1       1.947   7.976  19.103  0.00  0.00    +0.000 C 
ATOM      2  C   UNL     1       1.091   7.690  17.904  0.00  0.00    +0.000 C 
ATOM      3  C   UNL     1       1.965   9.518  19.243  0.00  0.00    +0.000 C 
ATOM      4  C   UNL     1       1.701   8.779  20.493  0.00  0.00    +0.000 C 
ENDROOT
BRANCH   4   5
ATOM      5  C   UNL     1       0.418   8.866  21.327  0.00  0.00    +0.000 C 
ATOM      6  C   UNL     1      -0.528   7.697  21.154  0.00  0.00    +0.000 C 
BRANCH   5   7
ATOM      7  C   UNL     1      -0.373  10.214  21.245  0.00  0.00    +0.000 C 
ATOM      8  O   UNL     1      -0.811  10.654  20.159  0.00  0.00    +0.000 OA
ATOM      9  N   UNL     1      -0.527  10.897  22.470  0.00  0.00    +0.000 N 
ATOM     10  H   UNL     1      -0.012  10.543  23.260  0.00  0.00    +0.000 HD
BRANCH   9  11
ATOM     11  C   UNL     1      -1.154  12.165  22.609  0.00  0.00    +0.000 A 
ATOM     12  C   UNL     1      -0.470  13.351  22.419  0.00  0.00    +0.000 A 
ATOM     13  C   UNL     1      -1.092  14.597  22.600  0.00  0.00    +0.000 A 
ATOM     14  C   UNL     1      -2.439  14.725  22.913  0.00  0.00    +0.000 A 
ATOM     15  C   UNL     1      -3.093  15.976  22.792  0.00  0.00    +0.000 A 
ATOM     16  C   UNL     1      -4.440  16.094  22.915  0.00  0.00    +0.000 A 
ATOM     17  C   UNL     1      -4.881  15.378  23.972  0.00  0.00    +0.000 A 
ATOM     18  C   UNL     1      -4.478  14.030  23.959  0.00  0.00    +0.000 A 
ATOM     19  C   UNL     1      -3.216  13.604  23.325  0.00  0.00    +0.000 A 
ATOM     20  C   UNL     1      -2.545  12.291  23.055  0.00  0.00    +0.000 A 
ENDBRANCH   9  11
ENDBRANCH   5   7
ENDBRANCH   4   5
BRANCH   1  21
ATOM     21  C   UNL     1       2.948   6.730  19.272  0.00  0.00    +0.000 C 
BRANCH  21  22
ATOM     22  C   UNL     1       2.117   5.382  19.375  0.00  0.00    +0.000 A 
ATOM     23  C   UNL     1       1.583   4.894  20.581  0.00  0.00    +0.000 A 
ATOM     24  C   UNL     1       0.997   3.611  20.623  0.00  0.00    +0.000 A 
ATOM     25  C   UNL     1       0.837   2.850  19.463  0.00  0.00    +0.000 A 
ATOM     26  C   UNL     1       1.228   3.373  18.242  0.00  0.00    +0.000 A 
ATOM     27  C   UNL     1       1.854   4.617  18.210  0.00  0.00    +0.000 A 
ENDBRANCH  21  22
BRANCH  21  30
ATOM     28  C   UNL     1       5.029   5.768  18.265  0.00  0.00    +0.000 C 
ATOM     29  O   UNL     1       5.391   5.354  19.362  0.00  0.00    +0.000 OA
ATOM     30  N   UNL     1       3.903   6.585  18.137  0.00  0.00    +0.000 N 
ATOM     31  H   UNL     1       3.502   6.588  17.210  0.00  0.00    +0.000 HD
BRANCH  28  35
ATOM     32  C   UNL     1       6.532   4.020  13.725  0.00  0.00    +0.000 C 
ATOM     33  C   UNL     1       6.427   4.712  15.033  0.00  0.00    +0.000 A 
ATOM     34  C   UNL     1       5.469   4.501  16.053  0.00  0.00    +0.000 A 
ATOM     35  C   UNL     1       5.756   5.419  17.054  0.00  0.00    +0.000 A 
ATOM     36  N   UNL     1       6.882   6.085  16.591  0.00  0.00    +0.000 N 
ATOM     37  C   UNL     1       7.670   7.103  17.250  0.00  0.00    +0.000 C 
ATOM     38  N   UNL     1       7.299   5.663  15.373  0.00  0.00    +0.000 NA
ENDBRANCH  28  35
ENDBRANCH  21  30
ENDBRANCH   1  21
TORSDOF 7
ENDMDL
MODEL 4
REMARK VINA RESULT:      -8.1      2.200      4.542
REMARK  Name = 
REMARK  11 active torsions:
REMARK  status: ('A' for Active; 'I' for Inactive)
REMARK    1  A    between atoms: C_1  and  C_2
REMARK    2  A    between atoms: C_4  and  C_5
REMARK    3  A    between atoms: N_7  and  C_8
REMARK    4  A    between atoms: C_8  and  C_9
REMARK    5  A    between atoms: C_8  and  C_15
REMARK    6  A    between atoms: C_15  and  C_16
REMARK    7  A    between atoms: C_18  and  C_19
REMARK    8  A    between atoms: C_19  and  C_20
REMARK    9  A    between atoms: C_19  and  C_21
REMARK   10  A    between atoms: N_23  and  C_24
REMARK   11  A    between atoms: N_34  and  C_35
REMARK                            x       y       z     vdW  Elec       q    Type
REMARK                         _______ _______ _______ _____ _____    ______ ____
ROOT
ATOM      1  C   UNL     1       3.670   4.688  17.921  0.00  0.00    +0.000 C 
ATOM      2  C   UNL     1       4.437   3.525  18.478  0.00  0.00    +0.000 C 
ATOM      3  C   UNL     1       2.176   4.327  18.105  0.00  0.00    +0.000 C 
ATOM      4  C   UNL     1       2.548   5.690  18.532  0.00  0.00    +0.000 C 
ENDROOT
BRANCH   4   5
ATOM      5  C   UNL     1       2.439   6.239  19.958  0.00  0.00    +0.000 C 
ATOM      6  C   UNL     1       1.856   5.272  20.965  0.00  0.00    +0.000 C 
BRANCH   5   7
ATOM      7  C   UNL     1       1.766   7.644  20.111  0.00  0.00    +0.000 C 
ATOM      8  O   UNL     1       1.773   8.480  19.180  0.00  0.00    +0.000 OA
ATOM      9  N   UNL     1       1.185   7.900  21.371  0.00  0.00    +0.000 N 
ATOM     10  H   UNL     1       1.361   7.230  22.102  0.00  0.00    +0.000 HD
BRANCH   9  11
ATOM     11  C   UNL     1       0.580   9.132  21.741  0.00  0.00    +0.000 A 
ATOM     12  C   UNL     1      -0.330   9.225  22.778  0.00  0.00    +0.000 A 
ATOM     13  C   UNL     1      -0.951  10.441  23.105  0.00  0.00    +0.000 A 
ATOM     14  C   UNL     1      -0.648  11.635  22.464  0.00  0.00    +0.000 A 
ATOM     15  C   UNL     1      -1.062  12.874  23.012  0.00  0.00    +0.000 A 
ATOM     16  C   UNL     1      -0.630  14.059  22.508  0.00  0.00    +0.000 A 
ATOM     17  C   UNL     1      -0.684  14.046  21.159  0.00  0.00    +0.000 A 
ATOM     18  C   UNL     1      -0.013  12.957  20.570  0.00  0.00    +0.000 A 
ATOM     19  C   UNL     1       0.116  11.660  21.262  0.00  0.00    +0.000 A 
ATOM     20  C   UNL     1       0.815  10.364  20.982  0.00  0.00    +0.000 A 
ENDBRANCH   9  11
ENDBRANCH   5   7
ENDBRANCH   4   5
BRANCH   1  21
ATOM     21  C   UNL     1       4.622   5.403  16.840  0.00  0.00    +0.000 C 
BRANCH  21  22
ATOM     22  C   UNL     1       5.975   5.857  17.533  0.00  0.00    +0.000 A 
ATOM     23  C   UNL     1       6.652   5.082  18.491  0.00  0.00    +0.000 A 
ATOM     24  C   UNL     1       7.759   5.621  19.180  0.00  0.00    +0.000 A 
ATOM     25  C   UNL     1       8.270   6.879  18.855  0.00  0.00    +0.000 A 
ATOM     26  C   UNL     1       7.705   7.600  17.817  0.00  0.00    +0.000 A 
ATOM     27  C   UNL     1       6.581   7.090  17.174  0.00  0.00    +0.000 A 
ENDBRANCH  21  22
BRANCH  21  30
ATOM     28  C   UNL     1       5.388   5.075  14.480  0.00  0.00    +0.000 C 
ATOM     29  O   UNL     1       5.238   6.271  14.245  0.00  0.00    +0.000 OA
ATOM     30  N   UNL     1       4.976   4.520  15.694  0.00  0.00    +0.000 N 
ATOM     31  H   UNL     1       5.434   3.649  15.923  0.00  0.00    +0.000 HD
BRANCH  28  35
ATOM     32  C   UNL     1       6.438   1.533  10.975  0.00  0.00    +0.000 C 
ATOM     33  C   UNL     1       6.486   2.679  11.917  0.00  0.00    +0.000 A 
ATOM     34  C   UNL     1       5.554   3.012  12.927  0.00  0.00    +0.000 A 
ATOM     35  C   UNL     1       6.007   4.191  13.504  0.00  0.00    +0.000 A 
ATOM     36  N   UNL     1       7.193   4.461  12.836  0.00  0.00    +0.000 N 
ATOM     37  C   UNL     1       8.141   5.528  13.065  0.00  0.00    +0.000 C 
ATOM     38  N   UNL     1       7.495   3.552  11.878  0.00  0.00    +0.000 NA
ENDBRANCH  28  35
ENDBRANCH  21  30
ENDBRANCH   1  21
TORSDOF 7
ENDMDL
MODEL 5
REMARK VINA RESULT:      -8.0      3.690     10.624
REMARK  Name = 
REMARK  11 active torsions:
REMARK  status: ('A' for Active; 'I' for Inactive)
REMARK    1  A    between atoms: C_1  and  C_2
REMARK    2  A    between atoms: C_4  and  C_5
REMARK    3  A    between atoms: N_7  and  C_8
REMARK    4  A    between atoms: C_8  and  C_9
REMARK    5  A    between atoms: C_8  and  C_15
REMARK    6  A    between atoms: C_15  and  C_16
REMARK    7  A    between atoms: C_18  and  C_19
REMARK    8  A    between atoms: C_19  and  C_20
REMARK    9  A    between atoms: C_19  and  C_21
REMARK   10  A    between atoms: N_23  and  C_24
REMARK   11  A    between atoms: N_34  and  C_35
REMARK                            x       y       z     vdW  Elec       q    Type
REMARK                         _______ _______ _______ _____ _____    ______ ____
ROOT
ATOM      1  C   UNL     1      -0.213  11.580  21.156  0.00  0.00    +0.000 C 
ATOM      2  C   UNL     1      -0.649  11.507  22.589  0.00  0.00    +0.000 C 
ATOM      3  C   UNL     1       1.334  11.520  21.188  0.00  0.00    +0.000 C 
ATOM      4  C   UNL     1       0.694  10.623  20.207  0.00  0.00    +0.000 C 
ENDROOT
BRANCH   4   5
ATOM      5  C   UNL     1       0.780   9.093  20.206  0.00  0.00    +0.000 C 
ATOM      6  C   UNL     1       1.157   8.481  21.538  0.00  0.00    +0.000 C 
BRANCH   5   7
ATOM      7  C   UNL     1       1.626   8.447  19.059  0.00  0.00    +0.000 C 
ATOM      8  O   UNL     1       1.710   8.976  17.928  0.00  0.00    +0.000 OA
ATOM      9  N   UNL     1       2.255   7.227  19.387  0.00  0.00    +0.000 N 
ATOM     10  H   UNL     1       2.007   6.807  20.268  0.00  0.00    +0.000 HD
BRANCH   9  11
ATOM     11  C   UNL     1       3.014   6.445  18.476  0.00  0.00    +0.000 A 
ATOM     12  C   UNL     1       2.583   5.211  18.025  0.00  0.00    +0.000 A 
ATOM     13  C   UNL     1       3.364   4.431  17.157  0.00  0.00    +0.000 A 
ATOM     14  C   UNL     1       4.578   4.866  16.642  0.00  0.00    +0.000 A 
ATOM     15  C   UNL     1       5.183   4.194  15.552  0.00  0.00    +0.000 A 
ATOM     16  C   UNL     1       6.271   4.700  14.915  0.00  0.00    +0.000 A 
ATOM     17  C   UNL     1       7.174   5.152  15.811  0.00  0.00    +0.000 A 
ATOM     18  C   UNL     1       6.649   6.066  16.743  0.00  0.00    +0.000 A 
ATOM     19  C   UNL     1       5.235   6.019  17.163  0.00  0.00    +0.000 A 
ATOM     20  C   UNL     1       4.349   6.859  18.032  0.00  0.00    +0.000 A 
ENDBRANCH   9  11
ENDBRANCH   5   7
ENDBRANCH   4   5
BRANCH   1  21
ATOM     21  C   UNL     1      -1.381  12.333  20.348  0.00  0.00    +0.000 C 
BRANCH  21  22
ATOM     22  C   UNL     1      -0.949  13.830  20.049  0.00  0.00    +0.000 A 
ATOM     23  C   UNL     1      -0.241  14.216  18.897  0.00  0.00    +0.000 A 
ATOM     24  C   UNL     1       0.248  15.534  18.778  0.00  0.00    +0.000 A 
ATOM     25  C   UNL     1      -0.047  16.504  19.738  0.00  0.00    +0.000 A 
ATOM     26  C   UNL     1      -0.862  16.180  20.810  0.00  0.00    +0.000 A 
ATOM     27  C   UNL     1      -1.300  14.867  20.953  0.00  0.00    +0.000 A 
ENDBRANCH  21  22
BRANCH  21  30
ATOM     28  C   UNL     1      -3.020  11.676  18.574  0.00  0.00    +0.000 C 
ATOM     29  O   UNL     1      -3.960  11.965  19.308  0.00  0.00    +0.000 OA
ATOM     30  N   UNL     1      -1.705  11.688  19.045  0.00  0.00    +0.000 N 
ATOM     31  H   UNL     1      -1.010  11.774  18.317  0.00  0.00    +0.000 HD
BRANCH  28  35
ATOM     32  C   UNL     1      -2.819   9.716  13.878  0.00  0.00    +0.000 C 
ATOM     33  C   UNL     1      -3.211  10.423  15.123  0.00  0.00    +0.000 A 
ATOM     34  C   UNL     1      -2.417  10.668  16.268  0.00  0.00    +0.000 A 
ATOM     35  C   UNL     1      -3.240  11.315  17.181  0.00  0.00    +0.000 A 
ATOM     36  N   UNL     1      -4.447  11.452  16.513  0.00  0.00    +0.000 N 
ATOM     37  C   UNL     1      -5.656  12.116  16.948  0.00  0.00    +0.000 C 
ATOM     38  N   UNL     1      -4.440  10.921  15.266  0.00  0.00    +0.000 NA
ENDBRANCH  28  35
ENDBRANCH  21  30
ENDBRANCH   1  21
TORSDOF 7
ENDMDL
MODEL 6
REMARK VINA RESULT:      -8.0      3.191      3.992
REMARK  Name = 
REMARK  11 active torsions:
REMARK  status: ('A' for Active; 'I' for Inactive)
REMARK    1  A    between atoms: C_1  and  C_2
REMARK    2  A    between atoms: C_4  and  C_5
REMARK    3  A    between atoms: N_7  and  C_8
REMARK    4  A    between atoms: C_8  and  C_9
REMARK    5  A    between atoms: C_8  and  C_15
REMARK    6  A    between atoms: C_15  and  C_16
REMARK    7  A    between atoms: C_18  and  C_19
REMARK    8  A    between atoms: C_19  and  C_20
REMARK    9  A    between atoms: C_19  and  C_21
REMARK   10  A    between atoms: N_23  and  C_24
REMARK   11  A    between atoms: N_34  and  C_35
REMARK                            x       y       z     vdW  Elec       q    Type
REMARK                         _______ _______ _______ _____ _____    ______ ____
ROOT
ATOM      1  C   UNL     1       1.900   8.247  18.385  0.00  0.00    +0.000 C 
ATOM      2  C   UNL     1       0.855   7.559  17.558  0.00  0.00    +0.000 C 
ATOM      3  C   UNL     1       1.865   9.732  17.948  0.00  0.00    +0.000 C 
ATOM      4  C   UNL     1       1.873   9.509  19.407  0.00  0.00    +0.000 C 
ENDROOT
BRANCH   4   5
ATOM      5  C   UNL     1       0.764   9.920  20.380  0.00  0.00    +0.000 C 
ATOM      6  C   UNL     1       0.171   8.781  21.181  0.00  0.00    +0.000 C 
BRANCH   5   7
ATOM      7  C   UNL     1      -0.378  10.814  19.792  0.00  0.00    +0.000 C 
ATOM      8  O   UNL     1      -0.374  12.058  19.928  0.00  0.00    +0.000 OA
ATOM      9  N   UNL     1      -1.410  10.116  19.130  0.00  0.00    +0.000 N 
ATOM     10  H   UNL     1      -1.404   9.112  19.202  0.00  0.00    +0.000 HD
BRANCH   9  11
ATOM     11  C   UNL     1      -2.569  10.728  18.581  0.00  0.00    +0.000 A 
ATOM     12  C   UNL     1      -2.831  10.727  17.224  0.00  0.00    +0.000 A 
ATOM     13  C   UNL     1      -3.960  11.371  16.691  0.00  0.00    +0.000 A 
ATOM     14  C   UNL     1      -4.916  11.989  17.485  0.00  0.00    +0.000 A 
ATOM     15  C   UNL     1      -6.174  12.359  16.947  0.00  0.00    +0.000 A 
ATOM     16  C   UNL     1      -7.189  12.797  17.735  0.00  0.00    +0.000 A 
ATOM     17  C   UNL     1      -6.731  13.687  18.642  0.00  0.00    +0.000 A 
ATOM     18  C   UNL     1      -5.646  13.220  19.407  0.00  0.00    +0.000 A 
ATOM     19  C   UNL     1      -4.685  12.237  18.869  0.00  0.00    +0.000 A 
ATOM     20  C   UNL     1      -3.512  11.481  19.415  0.00  0.00    +0.000 A 
ENDBRANCH   9  11
ENDBRANCH   5   7
ENDBRANCH   4   5
BRANCH   1  21
ATOM     21  C   UNL     1       2.979   7.130  18.801  0.00  0.00    +0.000 C 
BRANCH  21  22
ATOM     22  C   UNL     1       2.246   5.749  19.070  0.00  0.00    +0.000 A 
ATOM     23  C   UNL     1       2.005   4.793  18.068  0.00  0.00    +0.000 A 
ATOM     24  C   UNL     1       1.206   3.664  18.348  0.00  0.00    +0.000 A 
ATOM     25  C   UNL     1       0.733   3.415  19.639  0.00  0.00    +0.000 A 
ATOM     26  C   UNL     1       1.079   4.271  20.671  0.00  0.00    +0.000 A 
ATOM     27  C   UNL     1       1.823   5.412  20.382  0.00  0.00    +0.000 A 
ENDBRANCH  21  22
BRANCH  21  30
ATOM     28  C   UNL     1       5.040   5.972  17.976  0.00  0.00    +0.000 C 
ATOM     29  O   UNL     1       5.258   5.521  19.097  0.00  0.00    +0.000 OA
ATOM     30  N   UNL     1       4.015   6.895  17.756  0.00  0.00    +0.000 N 
ATOM     31  H   UNL     1       3.702   6.939  16.797  0.00  0.00    +0.000 HD
BRANCH  28  35
ATOM     32  C   UNL     1       6.781   4.057  13.591  0.00  0.00    +0.000 C 
ATOM     33  C   UNL     1       6.619   4.775  14.880  0.00  0.00    +0.000 A 
ATOM     34  C   UNL     1       5.569   4.644  15.819  0.00  0.00    +0.000 A 
ATOM     35  C   UNL     1       5.837   5.556  16.832  0.00  0.00    +0.000 A 
ATOM     36  N   UNL     1       7.040   6.136  16.458  0.00  0.00    +0.000 N 
ATOM     37  C   UNL     1       7.840   7.107  17.170  0.00  0.00    +0.000 C 
ATOM     38  N   UNL     1       7.525   5.668  15.281  0.00  0.00    +0.000 NA
ENDBRANCH  28  35
ENDBRANCH  21  30
ENDBRANCH   1  21
TORSDOF 7
ENDMDL
MODEL 7
REMARK VINA RESULT:      -8.0      3.491     10.495
REMARK  Name = 
REMARK  11 active torsions:
REMARK  status: ('A' for Active; 'I' for Inactive)
REMARK    1  A    between atoms: C_1  and  C_2
REMARK    2  A    between atoms: C_4  and  C_5
REMARK    3  A    between atoms: N_7  and  C_8
REMARK    4  A    between atoms: C_8  and  C_9
REMARK    5  A    between atoms: C_8  and  C_15
REMARK    6  A    between atoms: C_15  and  C_16
REMARK    7  A    between atoms: C_18  and  C_19
REMARK    8  A    between atoms: C_19  and  C_20
REMARK    9  A    between atoms: C_19  and  C_21
REMARK   10  A    between atoms: N_23  and  C_24
REMARK   11  A    between atoms: N_34  and  C_35
REMARK                            x       y       z     vdW  Elec       q    Type
REMARK                         _______ _______ _______ _____ _____    ______ ____
ROOT
ATOM      1  C   UNL     1       0.205  10.636  21.500  0.00  0.00    +0.000 C 
ATOM      2  C   UNL     1      -0.812  10.420  22.581  0.00  0.00    +0.000 C 
ATOM      3  C   UNL     1       1.551  10.152  22.092  0.00  0.00    +0.000 C 
ATOM      4  C   UNL     1       1.253   9.662  20.732  0.00  0.00    +0.000 C 
ENDROOT
BRANCH   4   5
ATOM      5  C   UNL     1       1.069   8.195  20.332  0.00  0.00    +0.000 C 
ATOM      6  C   UNL     1       1.157   7.211  21.478  0.00  0.00    +0.000 C 
BRANCH   5   7
ATOM      7  C   UNL     1       1.930   7.692  19.125  0.00  0.00    +0.000 C 
ATOM      8  O   UNL     1       2.032   8.356  18.069  0.00  0.00    +0.000 OA
ATOM      9  N   UNL     1       2.550   6.438  19.308  0.00  0.00    +0.000 N 
ATOM     10  H   UNL     1       2.289   5.913  20.127  0.00  0.00    +0.000 HD
BRANCH   9  11
ATOM     11  C   UNL     1       3.321   5.772  18.318  0.00  0.00    +0.000 A 
ATOM     12  C   UNL     1       2.965   4.533  17.816  0.00  0.00    +0.000 A 
ATOM     13  C   UNL     1       3.759   3.867  16.868  0.00  0.00    +0.000 A 
ATOM     14  C   UNL     1       4.907   4.428  16.323  0.00  0.00    +0.000 A 
ATOM     15  C   UNL     1       5.506   3.868  15.168  0.00  0.00    +0.000 A 
ATOM     16  C   UNL     1       6.516   4.494  14.511  0.00  0.00    +0.000 A 
ATOM     17  C   UNL     1       7.426   4.969  15.388  0.00  0.00    +0.000 A 
ATOM     18  C   UNL     1       6.879   5.785  16.397  0.00  0.00    +0.000 A 
ATOM     19  C   UNL     1       5.498   5.599  16.879  0.00  0.00    +0.000 A 
ATOM     20  C   UNL     1       4.594   6.316  17.836  0.00  0.00    +0.000 A 
ENDBRANCH   9  11
ENDBRANCH   5   7
ENDBRANCH   4   5
BRANCH   1  21
ATOM     21  C   UNL     1      -0.353  11.816  20.561  0.00  0.00    +0.000 C 
BRANCH  21  22
ATOM     22  C   UNL     1       0.857  12.685  20.014  0.00  0.00    +0.000 A 
ATOM     23  C   UNL     1       1.275  12.669  18.671  0.00  0.00    +0.000 A 
ATOM     24  C   UNL     1       2.456  13.341  18.293  0.00  0.00    +0.000 A 
ATOM     25  C   UNL     1       3.171  14.119  19.207  0.00  0.00    +0.000 A 
ATOM     26  C   UNL     1       2.696  14.262  20.501  0.00  0.00    +0.000 A 
ATOM     27  C   UNL     1       1.560  13.556  20.886  0.00  0.00    +0.000 A 
ENDBRANCH  21  22
BRANCH  21  30
ATOM     28  C   UNL     1      -2.391  11.829  19.108  0.00  0.00    +0.000 C 
ATOM     29  O   UNL     1      -3.001  12.498  19.936  0.00  0.00    +0.000 OA
ATOM     30  N   UNL     1      -1.120  11.319  19.385  0.00  0.00    +0.000 N 
ATOM     31  H   UNL     1      -0.581  11.091  18.562  0.00  0.00    +0.000 HD
BRANCH  28  35
ATOM     32  C   UNL     1      -3.387  10.206  14.385  0.00  0.00    +0.000 C 
ATOM     33  C   UNL     1      -3.458  10.797  15.744  0.00  0.00    +0.000 A 
ATOM     34  C   UNL     1      -2.394  11.025  16.648  0.00  0.00    +0.000 A 
ATOM     35  C   UNL     1      -2.966  11.545  17.801  0.00  0.00    +0.000 A 
ATOM     36  N   UNL     1      -4.317  11.634  17.499  0.00  0.00    +0.000 N 
ATOM     37  C   UNL     1      -5.393  12.174  18.301  0.00  0.00    +0.000 C 
ATOM     38  N   UNL     1      -4.626  11.189  16.257  0.00  0.00    +0.000 NA
ENDBRANCH  28  35
ENDBRANCH  21  30
ENDBRANCH   1  21
TORSDOF 7
ENDMDL
MODEL 8
REMARK VINA RESULT:      -7.9      3.354     11.488
REMARK  Name = 
REMARK  11 active torsions:
REMARK  status: ('A' for Active; 'I' for Inactive)
REMARK    1  A    between atoms: C_1  and  C_2
REMARK    2  A    between atoms: C_4  and  C_5
REMARK    3  A    between atoms: N_7  and  C_8
REMARK    4  A    between atoms: C_8  and  C_9
REMARK    5  A    between atoms: C_8  and  C_15
REMARK    6  A    between atoms: C_15  and  C_16
REMARK    7  A    between atoms: C_18  and  C_19
REMARK    8  A    between atoms: C_19  and  C_20
REMARK    9  A    between atoms: C_19  and  C_21
REMARK   10  A    between atoms: N_23  and  C_24
REMARK   11  A    between atoms: N_34  and  C_35
REMARK                            x       y       z     vdW  Elec       q    Type
REMARK                         _______ _______ _______ _____ _____    ______ ____
ROOT
ATOM      1  C   UNL     1       1.181  13.380  19.947  0.00  0.00    +0.000 C 
ATOM      2  C   UNL     1       2.493  13.206  20.654  0.00  0.00    +0.000 C 
ATOM      3  C   UNL     1       1.383  12.769  18.539  0.00  0.00    +0.000 C 
ATOM      4  C   UNL     1       0.146  12.354  19.230  0.00  0.00    +0.000 C 
ENDROOT
BRANCH   4   5
ATOM      5  C   UNL     1      -0.210  10.921  19.640  0.00  0.00    +0.000 C 
ATOM      6  C   UNL     1      -0.165  10.661  21.130  0.00  0.00    +0.000 C 
BRANCH   5   7
ATOM      7  C   UNL     1       0.530   9.776  18.872  0.00  0.00    +0.000 C 
ATOM      8  O   UNL     1       0.306   9.545  17.663  0.00  0.00    +0.000 OA
ATOM      9  N   UNL     1       1.435   9.018  19.645  0.00  0.00    +0.000 N 
ATOM     10  H   UNL     1       1.437   9.180  20.639  0.00  0.00    +0.000 HD
BRANCH   9  11
ATOM     11  C   UNL     1       2.161   7.897  19.161  0.00  0.00    +0.000 A 
ATOM     12  C   UNL     1       2.204   6.695  19.845  0.00  0.00    +0.000 A 
ATOM     13  C   UNL     1       2.959   5.608  19.376  0.00  0.00    +0.000 A 
ATOM     14  C   UNL     1       3.653   5.639  18.173  0.00  0.00    +0.000 A 
ATOM     15  C   UNL     1       4.147   4.444  17.593  0.00  0.00    +0.000 A 
ATOM     16  C   UNL     1       4.667   4.419  16.339  0.00  0.00    +0.000 A 
ATOM     17  C   UNL     1       5.497   5.467  16.152  0.00  0.00    +0.000 A 
ATOM     18  C   UNL     1       4.918   6.716  16.449  0.00  0.00    +0.000 A 
ATOM     19  C   UNL     1       3.858   6.857  17.464  0.00  0.00    +0.000 A 
ATOM     20  C   UNL     1       2.987   7.976  17.952  0.00  0.00    +0.000 A 
ENDBRANCH   9  11
ENDBRANCH   5   7
ENDBRANCH   4   5
BRANCH   1  21
ATOM     21  C   UNL     1       0.442  14.633  20.632  0.00  0.00    +0.000 C 
BRANCH  21  22
ATOM     22  C   UNL     1       0.372  15.841  19.605  0.00  0.00    +0.000 A 
ATOM     23  C   UNL     1      -0.835  16.413  19.167  0.00  0.00    +0.000 A 
ATOM     24  C   UNL     1      -0.825  17.374  18.133  0.00  0.00    +0.000 A 
ATOM     25  C   UNL     1       0.375  17.853  17.602  0.00  0.00    +0.000 A 
ATOM     26  C   UNL     1       1.579  17.405  18.120  0.00  0.00    +0.000 A 
ATOM     27  C   UNL     1       1.567  16.420  19.103  0.00  0.00    +0.000 A 
ENDBRANCH  21  22
BRANCH  21  30
ATOM     28  C   UNL     1      -1.206  13.949  22.387  0.00  0.00    +0.000 C 
ATOM     29  O   UNL     1      -0.295  13.619  23.141  0.00  0.00    +0.000 OA
ATOM     30  N   UNL     1      -0.949  14.330  21.068  0.00  0.00    +0.000 N 
ATOM     31  H   UNL     1      -1.681  14.889  20.653  0.00  0.00    +0.000 HD
BRANCH  28  35
ATOM     32  C   UNL     1      -5.855  12.807  24.122  0.00  0.00    +0.000 C 
ATOM     33  C   UNL     1      -4.625  13.496  23.659  0.00  0.00    +0.000 A 
ATOM     34  C   UNL     1      -3.490  12.923  23.040  0.00  0.00    +0.000 A 
ATOM     35  C   UNL     1      -2.588  13.960  22.841  0.00  0.00    +0.000 A 
ATOM     36  N   UNL     1      -3.254  15.083  23.310  0.00  0.00    +0.000 N 
ATOM     37  C   UNL     1      -2.829  16.465  23.290  0.00  0.00    +0.000 C 
ATOM     38  N   UNL     1      -4.488  14.816  23.802  0.00  0.00    +0.000 NA
ENDBRANCH  28  35
ENDBRANCH  21  30
ENDBRANCH   1  21
TORSDOF 7
ENDMDL
MODEL 9
REMARK VINA RESULT:      -7.8      3.458     10.400
REMARK  Name = 
REMARK  11 active torsions:
REMARK  status: ('A' for Active; 'I' for Inactive)
REMARK    1  A    between atoms: C_1  and  C_2
REMARK    2  A    between atoms: C_4  and  C_5
REMARK    3  A    between atoms: N_7  and  C_8
REMARK    4  A    between atoms: C_8  and  C_9
REMARK    5  A    between atoms: C_8  and  C_15
REMARK    6  A    between atoms: C_15  and  C_16
REMARK    7  A    between atoms: C_18  and  C_19
REMARK    8  A    between atoms: C_19  and  C_20
REMARK    9  A    between atoms: C_19  and  C_21
REMARK   10  A    between atoms: N_23  and  C_24
REMARK   11  A    between atoms: N_34  and  C_35
REMARK                            x       y       z     vdW  Elec       q    Type
REMARK                         _______ _______ _______ _____ _____    ______ ____
ROOT
ATOM      1  C   UNL     1      -2.141  13.425  22.280  0.00  0.00    +0.000 C 
ATOM      2  C   UNL     1      -3.320  13.363  23.206  0.00  0.00    +0.000 C 
ATOM      3  C   UNL     1      -0.892  13.366  23.192  0.00  0.00    +0.000 C 
ATOM      4  C   UNL     1      -0.859  12.462  22.027  0.00  0.00    +0.000 C 
ENDROOT
BRANCH   4   5
ATOM      5  C   UNL     1      -0.793  10.932  22.084  0.00  0.00    +0.000 C 
ATOM      6  C   UNL     1      -1.044  10.340  23.454  0.00  0.00    +0.000 C 
BRANCH   5   7
ATOM      7  C   UNL     1       0.465  10.267  21.433  0.00  0.00    +0.000 C 
ATOM      8  O   UNL     1       1.623  10.522  21.832  0.00  0.00    +0.000 OA
ATOM      9  N   UNL     1       0.196   9.391  20.360  0.00  0.00    +0.000 N 
ATOM     10  H   UNL     1      -0.750   9.365  20.015  0.00  0.00    +0.000 HD
BRANCH   9  11
ATOM     11  C   UNL     1       1.194   8.734  19.591  0.00  0.00    +0.000 A 
ATOM     12  C   UNL     1       1.516   9.131  18.307  0.00  0.00    +0.000 A 
ATOM     13  C   UNL     1       2.476   8.446  17.543  0.00  0.00    +0.000 A 
ATOM     14  C   UNL     1       3.208   7.377  18.041  0.00  0.00    +0.000 A 
ATOM     15  C   UNL     1       4.360   6.911  17.361  0.00  0.00    +0.000 A 
ATOM     16  C   UNL     1       5.195   5.992  17.913  0.00  0.00    +0.000 A 
ATOM     17  C   UNL     1       4.486   4.991  18.478  0.00  0.00    +0.000 A 
ATOM     18  C   UNL     1       3.513   5.426  19.397  0.00  0.00    +0.000 A 
ATOM     19  C   UNL     1       2.854   6.739  19.265  0.00  0.00    +0.000 A 
ATOM     20  C   UNL     1       1.878   7.532  20.081  0.00  0.00    +0.000 A 
ENDBRANCH   9  11
ENDBRANCH   5   7
ENDBRANCH   4   5
BRANCH   1  21
ATOM     21  C   UNL     1      -2.634  14.172  20.945  0.00  0.00    +0.000 C 
BRANCH  21  22
ATOM     22  C   UNL     1      -1.710  15.431  20.661  0.00  0.00    +0.000 A 
ATOM     23  C   UNL     1      -0.812  15.503  19.581  0.00  0.00    +0.000 A 
ATOM     24  C   UNL     1       0.091  16.583  19.486  0.00  0.00    +0.000 A 
ATOM     25  C   UNL     1       0.042  17.648  20.389  0.00  0.00    +0.000 A 
ATOM     26  C   UNL     1      -0.929  17.664  21.376  0.00  0.00    +0.000 A 
ATOM     27  C   UNL     1      -1.785  16.573  21.500  0.00  0.00    +0.000 A 
ENDBRANCH  21  22
BRANCH  21  30
ATOM     28  C   UNL     1      -3.704  12.522  19.395  0.00  0.00    +0.000 C 
ATOM     29  O   UNL     1      -4.621  12.342  20.191  0.00  0.00    +0.000 OA
ATOM     30  N   UNL     1      -2.596  13.303  19.736  0.00  0.00    +0.000 N 
ATOM     31  H   UNL     1      -2.088  13.663  18.941  0.00  0.00    +0.000 HD
BRANCH  28  35
ATOM     32  C   UNL     1      -2.782   9.964  15.090  0.00  0.00    +0.000 C 
ATOM     33  C   UNL     1      -3.387  10.772  16.178  0.00  0.00    +0.000 A 
ATOM     34  C   UNL     1      -2.748  11.301  17.324  0.00  0.00    +0.000 A 
ATOM     35  C   UNL     1      -3.737  11.934  18.065  0.00  0.00    +0.000 A 
ATOM     36  N   UNL     1      -4.884  11.782  17.300  0.00  0.00    +0.000 N 
ATOM     37  C   UNL     1      -6.212  12.303  17.540  0.00  0.00    +0.000 C 
ATOM     38  N   UNL     1      -4.684  11.085  16.155  0.00  0.00    +0.000 NA
ENDBRANCH  28  35
ENDBRANCH  21  30
ENDBRANCH   1  21
TORSDOF 7
ENDMDL
