MODEL 1
REMARK VINA RESULT:      -7.5      0.000      0.000
REMARK  Name = 
REMARK  6 active torsions:
REMARK  status: ('A' for Active; 'I' for Inactive)
REMARK    1  A    between atoms: C_1  and  N_2
REMARK    2  A    between atoms: N_2  and  C_3
REMARK    3  A    between atoms: C_8  and  C_9
REMARK    4  A    between atoms: C_14  and  C_15
REMARK    5  A    between atoms: C_14  and  O_16
REMARK    6  A    between atoms: C_17  and  O_18
REMARK                            x       y       z     vdW  Elec       q    Type
REMARK                         _______ _______ _______ _____ _____    ______ ____
ROOT
ATOM      1  C   UNL     1       4.536   6.046  17.650  0.00  0.00    +0.000 C 
ATOM      2  O   UNL     1       4.146   7.195  17.417  0.00  0.00    +0.000 OA
ATOM      3  N   UNL     1       4.012   5.345  18.747  0.00  0.00    +0.000 N 
ATOM      4  C   UNL     1       2.894   5.951  19.473  0.00  0.00    +0.000 C 
ATOM      5  C   UNL     1       1.741   4.952  19.566  0.00  0.00    +0.000 C 
ATOM      6  C   UNL     1       2.182   3.634  20.227  0.00  0.00    +0.000 C 
ATOM      7  C   UNL     1       1.039   2.611  20.148  0.00  0.00    +0.000 C 
ATOM      8  C   UNL     1       3.479   3.077  19.571  0.00  0.00    +0.000 C 
ATOM      9  C   UNL     1       4.563   4.170  19.437  0.00  0.00    +0.000 C 
ENDROOT
BRANCH   1  15
ATOM     10  C   UNL     1       6.693   6.079  16.324  0.00  0.00    +0.000 A 
ATOM     11  N   UNL     1       7.481   5.653  15.300  0.00  0.00    +0.000 NA
ATOM     12  C   UNL     1       7.071   4.621  14.545  0.00  0.00    +0.000 A 
ATOM     13  C   UNL     1       5.886   3.955  14.759  0.00  0.00    +0.000 A 
ATOM     14  C   UNL     1       5.074   4.386  15.803  0.00  0.00    +0.000 A 
ATOM     15  C   UNL     1       5.468   5.439  16.637  0.00  0.00    +0.000 A 
BRANCH  10  17
ATOM     16  C   UNL     1       7.824   6.684  18.346  0.00  0.00    +0.000 C 
ATOM     17  N   UNL     1       7.197   7.135  17.115  0.00  0.00    +0.000 N 
ATOM     18  H   UNL     1       7.859   7.675  16.541  0.00  0.00    +0.000 HD
ENDBRANCH  10  17
ENDBRANCH   1  15
BRANCH   6  19
ATOM     19  O   UNL     1       2.449   3.890  21.612  0.00  0.00    +0.000 OA
ATOM     20  H   UNL     1       1.754   4.485  21.948  0.00  0.00    +0.000 HD
ENDBRANCH   6  19
BRANCH   8  21
ATOM     21  O   UNL     1       3.193   2.523  18.279  0.00  0.00    +0.000 OA
ATOM     22  H   UNL     1       2.611   1.755  18.423  0.00  0.00    +0.000 HD
ENDBRANCH   8  21
TORSDOF 4
ENDMDL
MODEL 2
REMARK VINA RESULT:      -7.1      1.158      1.184
REMARK  Name = 
REMARK  6 active torsions:
REMARK  status: ('A' for Active; 'I' for Inactive)
REMARK    1  A    between atoms: C_1  and  N_2
REMARK    2  A    between atoms: N_2  and  C_3
REMARK    3  A    between atoms: C_8  and  C_9
REMARK    4  A    between atoms: C_14  and  C_15
REMARK    5  A    between atoms: C_14  and  O_16
REMARK    6  A    between atoms: C_17  and  O_18
REMARK                            x       y       z     vdW  Elec       q    Type
REMARK                         _______ _______ _______ _____ _____    ______ ____
ROOT
ATOM      1  C   UNL     1       4.597   5.422  18.064  0.00  0.00    +0.000 C 
ATOM      2  O   UNL     1       4.408   6.634  18.209  0.00  0.00    +0.000 OA
ATOM      3  N   UNL     1       3.899   4.510  18.870  0.00  0.00    +0.000 N 
ATOM      4  C   UNL     1       2.844   5.036  19.739  0.00  0.00    +0.000 C 
ATOM      5  C   UNL     1       1.546   4.268  19.491  0.00  0.00    +0.000 C 
ATOM      6  C   UNL     1       1.731   2.754  19.699  0.00  0.00    +0.000 C 
ATOM      7  C   UNL     1       0.451   2.016  19.281  0.00  0.00    +0.000 C 
ATOM      8  C   UNL     1       2.967   2.222  18.915  0.00  0.00    +0.000 C 
ATOM      9  C   UNL     1       4.214   3.102  19.153  0.00  0.00    +0.000 C 
ENDROOT
BRANCH   1  15
ATOM     10  C   UNL     1       6.876   4.823  17.135  0.00  0.00    +0.000 A 
ATOM     11  N   UNL     1       7.736   4.621  16.100  0.00  0.00    +0.000 NA
ATOM     12  C   UNL     1       7.263   4.638  14.843  0.00  0.00    +0.000 A 
ATOM     13  C   UNL     1       5.937   4.843  14.539  0.00  0.00    +0.000 A 
ATOM     14  C   UNL     1       5.051   5.053  15.592  0.00  0.00    +0.000 A 
ATOM     15  C   UNL     1       5.488   5.018  16.921  0.00  0.00    +0.000 A 
BRANCH  10  17
ATOM     16  C   UNL     1       7.903   6.021  18.935  0.00  0.00    +0.000 C 
ATOM     17  N   UNL     1       7.419   4.745  18.436  0.00  0.00    +0.000 N 
ATOM     18  H   UNL     1       6.698   4.356  19.059  0.00  0.00    +0.000 HD
ENDBRANCH  10  17
ENDBRANCH   1  15
BRANCH   6  19
ATOM     19  O   UNL     1       1.943   2.512  21.096  0.00  0.00    +0.000 OA
ATOM     20  H   UNL     1       1.075   2.519  21.538  0.00  0.00    +0.000 HD
ENDBRANCH   6  19
BRANCH   8  21
ATOM     21  O   UNL     1       2.683   2.161  17.510  0.00  0.00    +0.000 OA
ATOM     22  H   UNL     1       3.023   1.306  17.190  0.00  0.00    +0.000 HD
ENDBRANCH   8  21
TORSDOF 4
ENDMDL
MODEL 3
REMARK VINA RESULT:      -7.0      2.390      5.850
REMARK  Name = 
REMARK  6 active torsions:
REMARK  status: ('A' for Active; 'I' for Inactive)
REMARK    1  A    between atoms: C_1  and  N_2
REMARK    2  A    between atoms: N_2  and  C_3
REMARK    3  A    between atoms: C_8  and  C_9
REMARK    4  A    between atoms: C_14  and  C_15
REMARK    5  A    between atoms: C_14  and  O_16
REMARK    6  A    between atoms: C_17  and  O_18
REMARK                            x       y       z     vdW  Elec       q    Type
REMARK                         _______ _______ _______ _____ _____    ______ ____
ROOT
ATOM      1  C   UNL     1       3.047   5.085  18.241  0.00  0.00    +0.000 C 
ATOM      2  O   UNL     1       2.124   5.768  17.786  0.00  0.00    +0.000 OA
ATOM      3  N   UNL     1       4.349   5.263  17.748  0.00  0.00    +0.000 N 
ATOM      4  C   UNL     1       4.584   6.377  16.828  0.00  0.00    +0.000 C 
ATOM      5  C   UNL     1       5.743   7.232  17.343  0.00  0.00    +0.000 C 
ATOM      6  C   UNL     1       7.021   6.397  17.541  0.00  0.00    +0.000 C 
ATOM      7  C   UNL     1       8.101   7.259  18.210  0.00  0.00    +0.000 C 
ATOM      8  C   UNL     1       6.736   5.111  18.371  0.00  0.00    +0.000 C 
ATOM      9  C   UNL     1       5.500   4.352  17.838  0.00  0.00    +0.000 C 
ENDROOT
BRANCH   1  15
ATOM     10  C   UNL     1       2.334   2.841  19.173  0.00  0.00    +0.000 A 
ATOM     11  N   UNL     1       1.861   2.052  20.176  0.00  0.00    +0.000 NA
ATOM     12  C   UNL     1       1.712   2.574  21.405  0.00  0.00    +0.000 A 
ATOM     13  C   UNL     1       2.025   3.878  21.713  0.00  0.00    +0.000 A 
ATOM     14  C   UNL     1       2.507   4.692  20.692  0.00  0.00    +0.000 A 
ATOM     15  C   UNL     1       2.706   4.190  19.401  0.00  0.00    +0.000 A 
BRANCH  10  17
ATOM     16  C   UNL     1       3.665   1.337  17.871  0.00  0.00    +0.000 C 
ATOM     17  N   UNL     1       2.516   2.227  17.915  0.00  0.00    +0.000 N 
ATOM     18  H   UNL     1       1.651   1.723  17.678  0.00  0.00    +0.000 HD
ENDBRANCH  10  17
ENDBRANCH   1  15
BRANCH   6  19
ATOM     19  O   UNL     1       7.508   6.004  16.251  0.00  0.00    +0.000 OA
ATOM     20  H   UNL     1       7.182   5.105  16.067  0.00  0.00    +0.000 HD
ENDBRANCH   6  19
BRANCH   8  21
ATOM     21  O   UNL     1       6.539   5.439  19.754  0.00  0.00    +0.000 OA
ATOM     22  H   UNL     1       7.404   5.346  20.192  0.00  0.00    +0.000 HD
ENDBRANCH   8  21
TORSDOF 4
ENDMDL
MODEL 4
REMARK VINA RESULT:      -6.8      1.975      5.739
REMARK  Name = 
REMARK  6 active torsions:
REMARK  status: ('A' for Active; 'I' for Inactive)
REMARK    1  A    between atoms: C_1  and  N_2
REMARK    2  A    between atoms: N_2  and  C_3
REMARK    3  A    between atoms: C_8  and  C_9
REMARK    4  A    between atoms: C_14  and  C_15
REMARK    5  A    between atoms: C_14  and  O_16
REMARK    6  A    between atoms: C_17  and  O_18
REMARK                            x       y       z     vdW  Elec       q    Type
REMARK                         _______ _______ _______ _____ _____    ______ ____
ROOT
ATOM      1  C   UNL     1       4.670   3.883  19.268  0.00  0.00    +0.000 C 
ATOM      2  O   UNL     1       5.292   3.289  20.155  0.00  0.00    +0.000 OA
ATOM      3  N   UNL     1       5.366   4.697  18.361  0.00  0.00    +0.000 N 
ATOM      4  C   UNL     1       6.829   4.672  18.405  0.00  0.00    +0.000 C 
ATOM      5  C   UNL     1       7.379   4.375  17.009  0.00  0.00    +0.000 C 
ATOM      6  C   UNL     1       6.873   5.392  15.970  0.00  0.00    +0.000 C 
ATOM      7  C   UNL     1       7.317   4.958  14.566  0.00  0.00    +0.000 C 
ATOM      8  C   UNL     1       5.327   5.556  16.044  0.00  0.00    +0.000 C 
ATOM      9  C   UNL     1       4.845   5.767  17.497  0.00  0.00    +0.000 C 
ENDROOT
BRANCH   1  15
ATOM     10  C   UNL     1       2.267   4.267  19.966  0.00  0.00    +0.000 A 
ATOM     11  N   UNL     1       0.957   3.902  20.016  0.00  0.00    +0.000 NA
ATOM     12  C   UNL     1       0.547   2.837  19.308  0.00  0.00    +0.000 A 
ATOM     13  C   UNL     1       1.388   2.089  18.517  0.00  0.00    +0.000 A 
ATOM     14  C   UNL     1       2.730   2.455  18.462  0.00  0.00    +0.000 A 
ATOM     15  C   UNL     1       3.203   3.573  19.159  0.00  0.00    +0.000 A 
BRANCH  10  17
ATOM     16  C   UNL     1       2.243   6.661  20.031  0.00  0.00    +0.000 C 
ATOM     17  N   UNL     1       2.630   5.424  20.690  0.00  0.00    +0.000 N 
ATOM     18  H   UNL     1       2.210   5.359  21.627  0.00  0.00    +0.000 HD
ENDBRANCH  10  17
ENDBRANCH   1  15
BRANCH   6  19
ATOM     19  O   UNL     1       7.477   6.663  16.251  0.00  0.00    +0.000 OA
ATOM     20  H   UNL     1       6.769   7.331  16.290  0.00  0.00    +0.000 HD
ENDBRANCH   6  19
BRANCH   8  21
ATOM     21  O   UNL     1       4.672   4.410  15.482  0.00  0.00    +0.000 OA
ATOM     22  H   UNL     1       4.233   3.946  16.218  0.00  0.00    +0.000 HD
ENDBRANCH   8  21
TORSDOF 4
ENDMDL
MODEL 5
REMARK VINA RESULT:      -6.8      2.434      5.593
REMARK  Name = 
REMARK  6 active torsions:
REMARK  status: ('A' for Active; 'I' for Inactive)
REMARK    1  A    between atoms: C_1  and  N_2
REMARK    2  A    between atoms: N_2  and  C_3
REMARK    3  A    between atoms: C_8  and  C_9
REMARK    4  A    between atoms: C_14  and  C_15
REMARK    5  A    between atoms: C_14  and  O_16
REMARK    6  A    between atoms: C_17  and  O_18
REMARK                            x       y       z     vdW  Elec       q    Type
REMARK                         _______ _______ _______ _____ _____    ______ ____
ROOT
ATOM      1  C   UNL     1       2.762   5.439  17.939  0.00  0.00    +0.000 C 
ATOM      2  O   UNL     1       1.988   6.310  17.526  0.00  0.00    +0.000 OA
ATOM      3  N   UNL     1       4.109   5.467  17.545  0.00  0.00    +0.000 N 
ATOM      4  C   UNL     1       4.576   6.632  16.792  0.00  0.00    +0.000 C 
ATOM      5  C   UNL     1       5.808   7.225  17.476  0.00  0.00    +0.000 C 
ATOM      6  C   UNL     1       6.929   6.180  17.634  0.00  0.00    +0.000 C 
ATOM      7  C   UNL     1       8.073   6.775  18.468  0.00  0.00    +0.000 C 
ATOM      8  C   UNL     1       6.393   4.866  18.273  0.00  0.00    +0.000 C 
ATOM      9  C   UNL     1       5.100   4.381  17.579  0.00  0.00    +0.000 C 
ENDROOT
BRANCH   1  15
ATOM     10  C   UNL     1       2.209   4.812  20.329  0.00  0.00    +0.000 A 
ATOM     11  N   UNL     1       1.869   3.906  21.286  0.00  0.00    +0.000 NA
ATOM     12  C   UNL     1       1.554   2.653  20.918  0.00  0.00    +0.000 A 
ATOM     13  C   UNL     1       1.547   2.231  19.609  0.00  0.00    +0.000 A 
ATOM     14  C   UNL     1       1.896   3.151  18.624  0.00  0.00    +0.000 A 
ATOM     15  C   UNL     1       2.206   4.476  18.952  0.00  0.00    +0.000 A 
BRANCH  10  17
ATOM     16  C   UNL     1       1.289   6.943  20.915  0.00  0.00    +0.000 C 
ATOM     17  N   UNL     1       2.482   6.126  20.768  0.00  0.00    +0.000 N 
ATOM     18  H   UNL     1       2.998   6.064  21.657  0.00  0.00    +0.000 HD
ENDBRANCH  10  17
ENDBRANCH   1  15
BRANCH   6  19
ATOM     19  O   UNL     1       7.446   5.873  16.332  0.00  0.00    +0.000 OA
ATOM     20  H   UNL     1       7.310   6.652  15.762  0.00  0.00    +0.000 HD
ENDBRANCH   6  19
BRANCH   8  21
ATOM     21  O   UNL     1       6.146   5.052  19.674  0.00  0.00    +0.000 OA
ATOM     22  H   UNL     1       5.910   5.989  19.797  0.00  0.00    +0.000 HD
ENDBRANCH   8  21
TORSDOF 4
ENDMDL
MODEL 6
REMARK VINA RESULT:      -6.8      1.663      2.959
REMARK  Name = 
REMARK  6 active torsions:
REMARK  status: ('A' for Active; 'I' for Inactive)
REMARK    1  A    between atoms: C_1  and  N_2
REMARK    2  A    between atoms: N_2  and  C_3
REMARK    3  A    between atoms: C_8  and  C_9
REMARK    4  A    between atoms: C_14  and  C_15
REMARK    5  A    between atoms: C_14  and  O_16
REMARK    6  A    between atoms: C_17  and  O_18
REMARK                            x       y       z     vdW  Elec       q    Type
REMARK                         _______ _______ _______ _____ _____    ______ ____
ROOT
ATOM      1  C   UNL     1       4.672   3.959  17.277  0.00  0.00    +0.000 C 
ATOM      2  O   UNL     1       5.025   3.034  16.537  0.00  0.00    +0.000 OA
ATOM      3  N   UNL     1       3.434   3.887  17.933  0.00  0.00    +0.000 N 
ATOM      4  C   UNL     1       2.685   2.632  17.842  0.00  0.00    +0.000 C 
ATOM      5  C   UNL     1       2.321   2.148  19.246  0.00  0.00    +0.000 C 
ATOM      6  C   UNL     1       1.528   3.212  20.027  0.00  0.00    +0.000 C 
ATOM      7  C   UNL     1       1.331   2.747  21.476  0.00  0.00    +0.000 C 
ATOM      8  C   UNL     1       2.235   4.598  19.974  0.00  0.00    +0.000 C 
ATOM      9  C   UNL     1       2.645   4.973  18.532  0.00  0.00    +0.000 C 
ENDROOT
BRANCH   1  15
ATOM     10  C   UNL     1       6.288   5.707  16.414  0.00  0.00    +0.000 A 
ATOM     11  N   UNL     1       7.321   6.576  16.583  0.00  0.00    +0.000 NA
ATOM     12  C   UNL     1       7.801   6.788  17.819  0.00  0.00    +0.000 A 
ATOM     13  C   UNL     1       7.293   6.175  18.941  0.00  0.00    +0.000 A 
ATOM     14  C   UNL     1       6.238   5.283  18.776  0.00  0.00    +0.000 A 
ATOM     15  C   UNL     1       5.682   5.047  17.513  0.00  0.00    +0.000 A 
BRANCH  10  17
ATOM     16  C   UNL     1       6.697   4.838  14.220  0.00  0.00    +0.000 C 
ATOM     17  N   UNL     1       5.791   5.559  15.100  0.00  0.00    +0.000 N 
ATOM     18  H   UNL     1       4.879   5.088  15.155  0.00  0.00    +0.000 HD
ENDBRANCH  10  17
ENDBRANCH   1  15
BRANCH   6  19
ATOM     19  O   UNL     1       0.232   3.341  19.425  0.00  0.00    +0.000 OA
ATOM     20  H   UNL     1       0.274   2.951  18.534  0.00  0.00    +0.000 HD
ENDBRANCH   6  19
BRANCH   8  21
ATOM     21  O   UNL     1       3.393   4.605  20.820  0.00  0.00    +0.000 OA
ATOM     22  H   UNL     1       3.414   5.473  21.263  0.00  0.00    +0.000 HD
ENDBRANCH   8  21
TORSDOF 4
ENDMDL
MODEL 7
REMARK VINA RESULT:      -6.8      2.213      5.691
REMARK  Name = 
REMARK  6 active torsions:
REMARK  status: ('A' for Active; 'I' for Inactive)
REMARK    1  A    between atoms: C_1  and  N_2
REMARK    2  A    between atoms: N_2  and  C_3
REMARK    3  A    between atoms: C_8  and  C_9
REMARK    4  A    between atoms: C_14  and  C_15
REMARK    5  A    between atoms: C_14  and  O_16
REMARK    6  A    between atoms: C_17  and  O_18
REMARK                            x       y       z     vdW  Elec       q    Type
REMARK                         _______ _______ _______ _____ _____    ______ ____
ROOT
ATOM      1  C   UNL     1       3.086   3.572  17.590  0.00  0.00    +0.000 C 
ATOM      2  O   UNL     1       2.362   3.432  16.598  0.00  0.00    +0.000 OA
ATOM      3  N   UNL     1       4.448   3.863  17.417  0.00  0.00    +0.000 N 
ATOM      4  C   UNL     1       4.917   4.155  16.061  0.00  0.00    +0.000 C 
ATOM      5  C   UNL     1       5.664   5.489  16.053  0.00  0.00    +0.000 C 
ATOM      6  C   UNL     1       6.832   5.493  17.057  0.00  0.00    +0.000 C 
ATOM      7  C   UNL     1       7.444   6.899  17.130  0.00  0.00    +0.000 C 
ATOM      8  C   UNL     1       6.372   5.007  18.463  0.00  0.00    +0.000 C 
ATOM      9  C   UNL     1       5.552   3.701  18.374  0.00  0.00    +0.000 C 
ENDROOT
BRANCH   1  15
ATOM     10  C   UNL     1       2.280   4.730  19.692  0.00  0.00    +0.000 A 
ATOM     11  N   UNL     1       1.816   4.713  20.971  0.00  0.00    +0.000 NA
ATOM     12  C   UNL     1       1.494   3.536  21.534  0.00  0.00    +0.000 A 
ATOM     13  C   UNL     1       1.601   2.332  20.878  0.00  0.00    +0.000 A 
ATOM     14  C   UNL     1       2.077   2.342  19.570  0.00  0.00    +0.000 A 
ATOM     15  C   UNL     1       2.399   3.543  18.927  0.00  0.00    +0.000 A 
BRANCH  10  17
ATOM     16  C   UNL     1       2.149   7.102  19.990  0.00  0.00    +0.000 C 
ATOM     17  N   UNL     1       2.555   5.998  19.135  0.00  0.00    +0.000 N 
ATOM     18  H   UNL     1       3.562   6.044  18.929  0.00  0.00    +0.000 HD
ENDBRANCH  10  17
ENDBRANCH   1  15
BRANCH   6  19
ATOM     19  O   UNL     1       7.843   4.596  16.577  0.00  0.00    +0.000 OA
ATOM     20  H   UNL     1       7.658   3.711  16.940  0.00  0.00    +0.000 HD
ENDBRANCH   6  19
BRANCH   8  21
ATOM     21  O   UNL     1       5.593   6.020  19.115  0.00  0.00    +0.000 OA
ATOM     22  H   UNL     1       6.222   6.664  19.487  0.00  0.00    +0.000 HD
ENDBRANCH   8  21
TORSDOF 4
ENDMDL
MODEL 8
REMARK VINA RESULT:      -6.7      2.291      5.824
REMARK  Name = 
REMARK  6 active torsions:
REMARK  status: ('A' for Active; 'I' for Inactive)
REMARK    1  A    between atoms: C_1  and  N_2
REMARK    2  A    between atoms: N_2  and  C_3
REMARK    3  A    between atoms: C_8  and  C_9
REMARK    4  A    between atoms: C_14  and  C_15
REMARK    5  A    between atoms: C_14  and  O_16
REMARK    6  A    between atoms: C_17  and  O_18
REMARK                            x       y       z     vdW  Elec       q    Type
REMARK                         _______ _______ _______ _____ _____    ______ ____
ROOT
ATOM      1  C   UNL     1       3.179   5.313  17.941  0.00  0.00    +0.000 C 
ATOM      2  O   UNL     1       2.298   4.465  17.758  0.00  0.00    +0.000 OA
ATOM      3  N   UNL     1       4.502   5.027  17.570  0.00  0.00    +0.000 N 
ATOM      4  C   UNL     1       4.750   3.792  16.824  0.00  0.00    +0.000 C 
ATOM      5  C   UNL     1       5.525   4.113  15.546  0.00  0.00    +0.000 C 
ATOM      6  C   UNL     1       6.841   4.853  15.848  0.00  0.00    +0.000 C 
ATOM      7  C   UNL     1       7.497   5.295  14.532  0.00  0.00    +0.000 C 
ATOM      8  C   UNL     1       6.604   6.067  16.792  0.00  0.00    +0.000 C 
ATOM      9  C   UNL     1       5.743   5.679  18.014  0.00  0.00    +0.000 C 
ENDROOT
BRANCH   1  15
ATOM     10  C   UNL     1       2.283   6.805  19.779  0.00  0.00    +0.000 A 
ATOM     11  N   UNL     1       1.708   7.958  20.219  0.00  0.00    +0.000 NA
ATOM     12  C   UNL     1       1.520   8.966  19.352  0.00  0.00    +0.000 A 
ATOM     13  C   UNL     1       1.889   8.902  18.029  0.00  0.00    +0.000 A 
ATOM     14  C   UNL     1       2.476   7.726  17.571  0.00  0.00    +0.000 A 
ATOM     15  C   UNL     1       2.720   6.655  18.439  0.00  0.00    +0.000 A 
BRANCH  10  17
ATOM     16  C   UNL     1       1.393   4.864  20.863  0.00  0.00    +0.000 C 
ATOM     17  N   UNL     1       2.502   5.798  20.745  0.00  0.00    +0.000 N 
ATOM     18  H   UNL     1       3.372   5.307  20.501  0.00  0.00    +0.000 HD
ENDBRANCH  10  17
ENDBRANCH   1  15
BRANCH   6  19
ATOM     19  O   UNL     1       7.733   3.939  16.500  0.00  0.00    +0.000 OA
ATOM     20  H   UNL     1       7.405   3.792  17.406  0.00  0.00    +0.000 HD
ENDBRANCH   6  19
BRANCH   8  21
ATOM     21  O   UNL     1       5.972   7.142  16.081  0.00  0.00    +0.000 OA
ATOM     22  H   UNL     1       6.684   7.718  15.749  0.00  0.00    +0.000 HD
ENDBRANCH   8  21
TORSDOF 4
ENDMDL
MODEL 9
REMARK VINA RESULT:      -6.5      1.354      1.460
REMARK  Name = 
REMARK  6 active torsions:
REMARK  status: ('A' for Active; 'I' for Inactive)
REMARK    1  A    between atoms: C_1  and  N_2
REMARK    2  A    between atoms: N_2  and  C_3
REMARK    3  A    between atoms: C_8  and  C_9
REMARK    4  A    between atoms: C_14  and  C_15
REMARK    5  A    between atoms: C_14  and  O_16
REMARK    6  A    between atoms: C_17  and  O_18
REMARK                            x       y       z     vdW  Elec       q    Type
REMARK                         _______ _______ _______ _____ _____    ______ ____
ROOT
ATOM      1  C   UNL     1       5.294   4.843  18.519  0.00  0.00    +0.000 C 
ATOM      2  O   UNL     1       5.565   5.847  19.188  0.00  0.00    +0.000 OA
ATOM      3  N   UNL     1       4.320   3.945  18.980  0.00  0.00    +0.000 N 
ATOM      4  C   UNL     1       3.543   4.328  20.161  0.00  0.00    +0.000 C 
ATOM      5  C   UNL     1       2.050   4.220  19.849  0.00  0.00    +0.000 C 
ATOM      6  C   UNL     1       1.669   2.808  19.369  0.00  0.00    +0.000 C 
ATOM      7  C   UNL     1       0.203   2.797  18.915  0.00  0.00    +0.000 C 
ATOM      8  C   UNL     1       2.613   2.323  18.230  0.00  0.00    +0.000 C 
ATOM      9  C   UNL     1       4.099   2.545  18.589  0.00  0.00    +0.000 C 
ENDROOT
BRANCH   1  15
ATOM     10  C   UNL     1       7.041   5.594  16.846  0.00  0.00    +0.000 A 
ATOM     11  N   UNL     1       7.558   5.643  15.589  0.00  0.00    +0.000 NA
ATOM     12  C   UNL     1       7.007   4.886  14.625  0.00  0.00    +0.000 A 
ATOM     13  C   UNL     1       5.941   4.045  14.844  0.00  0.00    +0.000 A 
ATOM     14  C   UNL     1       5.405   3.991  16.128  0.00  0.00    +0.000 A 
ATOM     15  C   UNL     1       5.959   4.739  17.174  0.00  0.00    +0.000 A 
BRANCH  10  17
ATOM     16  C   UNL     1       7.738   7.788  17.503  0.00  0.00    +0.000 C 
ATOM     17  N   UNL     1       7.691   6.372  17.829  0.00  0.00    +0.000 N 
ATOM     18  H   UNL     1       7.211   6.217  18.726  0.00  0.00    +0.000 HD
ENDBRANCH  10  17
ENDBRANCH   1  15
BRANCH   6  19
ATOM     19  O   UNL     1       1.795   1.905  20.476  0.00  0.00    +0.000 OA
ATOM     20  H   UNL     1       1.684   0.998  20.140  0.00  0.00    +0.000 HD
ENDBRANCH   6  19
BRANCH   8  21
ATOM     21  O   UNL     1       2.309   3.000  17.002  0.00  0.00    +0.000 OA
ATOM     22  H   UNL     1       1.823   3.811  17.239  0.00  0.00    +0.000 HD
ENDBRANCH   8  21
TORSDOF 4
ENDMDL
