MODEL 1
REMARK VINA RESULT:      -6.8      0.000      0.000
REMARK  Name = 
REMARK  17 active torsions:
REMARK  status: ('A' for Active; 'I' for Inactive)
REMARK    1  A    between atoms: C_2  and  O_3
REMARK    2  A    between atoms: C_2  and  C_4
REMARK    3  A    between atoms: C_4  and  C_5
REMARK    4  A    between atoms: C_5  and  C_6
REMARK    5  A    between atoms: C_6  and  C_7
REMARK    6  A    between atoms: C_7  and  C_8
REMARK    7  A    between atoms: C_8  and  C_9
REMARK    8  A    between atoms: C_9  and  C_10
REMARK    9  A    between atoms: C_11  and  O_12
REMARK   10  A    between atoms: C_14  and  O_15
REMARK   11  A    between atoms: C_16  and  C_17
REMARK   12  A    between atoms: C_17  and  C_18
REMARK   13  A    between atoms: C_18  and  C_19
REMARK   14  A    between atoms: C_19  and  O_20
REMARK   15  A    between atoms: C_19  and  C_21
REMARK   16  A    between atoms: C_21  and  S_22
REMARK   17  A    between atoms: S_22  and  C_23
REMARK                            x       y       z     vdW  Elec       q    Type
REMARK                         _______ _______ _______ _____ _____    ______ ____
ROOT
ATOM      1  C   UNL     1       5.196   5.306  18.827  0.00  0.00    +0.000 C 
ATOM      2  C   UNL     1       6.656   5.788  18.649  0.00  0.00    +0.000 C 
ATOM      3  C   UNL     1       6.774   6.387  17.255  0.00  0.00    +0.000 C 
ATOM      4  C   UNL     1       5.364   6.770  16.866  0.00  0.00    +0.000 C 
ATOM      5  C   UNL     1       4.458   5.724  17.528  0.00  0.00    +0.000 C 
ENDROOT
BRANCH   2   6
ATOM      6  O   UNL     1       7.646   4.791  18.828  0.00  0.00    +0.000 OA
ATOM      7  H   UNL     1       8.523   5.209  18.846  0.00  0.00    +0.000 HD
ENDBRANCH   2   6
BRANCH   4   8
ATOM      8  O   UNL     1       5.233   6.753  15.447  0.00  0.00    +0.000 OA
ATOM      9  H   UNL     1       4.489   6.177  15.208  0.00  0.00    +0.000 HD
ENDBRANCH   4   8
BRANCH   1  10
ATOM     10  C   UNL     1       4.985   3.814  19.142  0.00  0.00    +0.000 C 
BRANCH  10  11
ATOM     11  C   UNL     1       4.356   3.023  17.985  0.00  0.00    +0.000 C 
BRANCH  11  12
ATOM     12  C   UNL     1       3.180   2.132  18.403  0.00  0.00    +0.000 C 
BRANCH  12  13
ATOM     13  C   UNL     1       1.833   2.630  17.874  0.00  0.00    +0.000 C 
BRANCH  13  14
ATOM     14  C   UNL     1       1.090   3.473  18.908  0.00  0.00    +0.000 C 
BRANCH  14  15
ATOM     15  C   UNL     1       1.237   2.873  20.305  0.00  0.00    +0.000 C 
BRANCH  15  17
ATOM     16  O   UNL     1       2.104   5.002  21.078  0.00  0.00    +0.000 OA
ATOM     17  C   UNL     1       1.946   3.813  21.258  0.00  0.00    +0.000 C 
BRANCH  17  18
ATOM     18  O   UNL     1       2.391   3.175  22.363  0.00  0.00    +0.000 OA
ATOM     19  H   UNL     1       1.691   2.722  22.867  0.00  0.00    +0.000 HD
ENDBRANCH  17  18
ENDBRANCH  15  17
ENDBRANCH  14  15
ENDBRANCH  13  14
ENDBRANCH  12  13
ENDBRANCH  11  12
ENDBRANCH  10  11
ENDBRANCH   1  10
BRANCH   5  20
ATOM     20  C   UNL     1       3.059   6.293  17.834  0.00  0.00    +0.000 C 
BRANCH  20  21
ATOM     21  C   UNL     1       3.077   7.804  18.081  0.00  0.00    +0.000 C 
BRANCH  21  22
ATOM     22  C   UNL     1       1.713   8.349  18.528  0.00  0.00    +0.000 C 
BRANCH  22  23
ATOM     23  O   UNL     1       1.676   8.412  19.960  0.00  0.00    +0.000 OA
ATOM     24  H   UNL     1       1.717   9.349  20.222  0.00  0.00    +0.000 HD
ENDBRANCH  22  23
BRANCH  22  25
ATOM     25  C   UNL     1       1.427   9.752  17.966  0.00  0.00    +0.000 C 
BRANCH  25  26
ATOM     26  S   UNL     1       0.868  10.886  19.282  0.00  0.00    +0.000 S 
BRANCH  26  27
ATOM     27  C   UNL     1      -0.858  11.145  18.933  0.00  0.00    +0.000 A 
ATOM     28  C   UNL     1      -1.552  11.955  19.849  0.00  0.00    +0.000 A 
ATOM     29  C   UNL     1      -2.898  12.262  19.663  0.00  0.00    +0.000 A 
ATOM     30  C   UNL     1      -3.572  11.759  18.552  0.00  0.00    +0.000 A 
ATOM     31  C   UNL     1      -2.896  10.945  17.645  0.00  0.00    +0.000 A 
ATOM     32 CL   UNL     1      -3.731  10.320  16.277  0.00  0.00    +0.000 Cl
ATOM     33  C   UNL     1      -1.546  10.634  17.832  0.00  0.00    +0.000 A 
ENDBRANCH  26  27
ENDBRANCH  25  26
ENDBRANCH  22  25
ENDBRANCH  21  22
ENDBRANCH  20  21
ENDBRANCH   5  20
TORSDOF 17
ENDMDL
MODEL 2
REMARK VINA RESULT:      -6.7      2.431      4.874
REMARK  Name = 
REMARK  17 active torsions:
REMARK  status: ('A' for Active; 'I' for Inactive)
REMARK    1  A    between atoms: C_2  and  O_3
REMARK    2  A    between atoms: C_2  and  C_4
REMARK    3  A    between atoms: C_4  and  C_5
REMARK    4  A    between atoms: C_5  and  C_6
REMARK    5  A    between atoms: C_6  and  C_7
REMARK    6  A    between atoms: C_7  and  C_8
REMARK    7  A    between atoms: C_8  and  C_9
REMARK    8  A    between atoms: C_9  and  C_10
REMARK    9  A    between atoms: C_11  and  O_12
REMARK   10  A    between atoms: C_14  and  O_15
REMARK   11  A    between atoms: C_16  and  C_17
REMARK   12  A    between atoms: C_17  and  C_18
REMARK   13  A    between atoms: C_18  and  C_19
REMARK   14  A    between atoms: C_19  and  O_20
REMARK   15  A    between atoms: C_19  and  C_21
REMARK   16  A    between atoms: C_21  and  S_22
REMARK   17  A    between atoms: S_22  and  C_23
REMARK                            x       y       z     vdW  Elec       q    Type
REMARK                         _______ _______ _______ _____ _____    ______ ____
ROOT
ATOM      1  C   UNL     1       4.172   3.761  18.618  0.00  0.00    +0.000 C 
ATOM      2  C   UNL     1       3.944   2.427  19.369  0.00  0.00    +0.000 C 
ATOM      3  C   UNL     1       2.831   2.655  20.381  0.00  0.00    +0.000 C 
ATOM      4  C   UNL     1       2.059   3.847  19.861  0.00  0.00    +0.000 C 
ATOM      5  C   UNL     1       3.098   4.737  19.168  0.00  0.00    +0.000 C 
ENDROOT
BRANCH   2   6
ATOM      6  O   UNL     1       5.085   1.900  20.022  0.00  0.00    +0.000 OA
ATOM      7  H   UNL     1       5.458   2.575  20.613  0.00  0.00    +0.000 HD
ENDBRANCH   2   6
BRANCH   4   8
ATOM      8  O   UNL     1       1.430   4.525  20.945  0.00  0.00    +0.000 OA
ATOM      9  H   UNL     1       0.716   5.080  20.594  0.00  0.00    +0.000 HD
ENDBRANCH   4   8
BRANCH   1  10
ATOM     10  C   UNL     1       5.582   4.373  18.691  0.00  0.00    +0.000 C 
BRANCH  10  11
ATOM     11  C   UNL     1       6.309   4.410  17.338  0.00  0.00    +0.000 C 
BRANCH  11  12
ATOM     12  C   UNL     1       6.138   5.728  16.572  0.00  0.00    +0.000 C 
BRANCH  12  13
ATOM     13  C   UNL     1       5.671   5.526  15.128  0.00  0.00    +0.000 C 
BRANCH  13  14
ATOM     14  C   UNL     1       6.045   4.145  14.594  0.00  0.00    +0.000 C 
BRANCH  14  15
ATOM     15  C   UNL     1       5.266   3.826  13.319  0.00  0.00    +0.000 C 
BRANCH  15  17
ATOM     16  O   UNL     1       6.022   2.262  11.627  0.00  0.00    +0.000 OA
ATOM     17  C   UNL     1       6.165   3.315  12.214  0.00  0.00    +0.000 C 
BRANCH  17  18
ATOM     18  O   UNL     1       7.168   4.176  11.936  0.00  0.00    +0.000 OA
ATOM     19  H   UNL     1       7.637   4.505  12.724  0.00  0.00    +0.000 HD
ENDBRANCH  17  18
ENDBRANCH  15  17
ENDBRANCH  14  15
ENDBRANCH  13  14
ENDBRANCH  12  13
ENDBRANCH  11  12
ENDBRANCH  10  11
ENDBRANCH   1  10
BRANCH   5  20
ATOM     20  C   UNL     1       2.469   5.575  18.039  0.00  0.00    +0.000 C 
BRANCH  20  21
ATOM     21  C   UNL     1       2.823   7.061  18.137  0.00  0.00    +0.000 C 
BRANCH  21  22
ATOM     22  C   UNL     1       1.780   7.870  18.921  0.00  0.00    +0.000 C 
BRANCH  22  23
ATOM     23  O   UNL     1       2.132   7.872  20.311  0.00  0.00    +0.000 OA
ATOM     24  H   UNL     1       2.832   7.210  20.447  0.00  0.00    +0.000 HD
ENDBRANCH  22  23
BRANCH  22  25
ATOM     25  C   UNL     1       1.681   9.327  18.436  0.00  0.00    +0.000 C 
BRANCH  25  26
ATOM     26  S   UNL     1       0.697  10.339  19.594  0.00  0.00    +0.000 S 
BRANCH  26  27
ATOM     27  C   UNL     1      -0.842  10.609  18.740  0.00  0.00    +0.000 A 
ATOM     28  C   UNL     1      -1.725  11.517  19.347  0.00  0.00    +0.000 A 
ATOM     29  C   UNL     1      -2.945  11.841  18.755  0.00  0.00    +0.000 A 
ATOM     30  C   UNL     1      -3.297  11.254  17.541  0.00  0.00    +0.000 A 
ATOM     31  C   UNL     1      -2.433  10.342  16.938  0.00  0.00    +0.000 A 
ATOM     32 CL   UNL     1      -2.873   9.616  15.442  0.00  0.00    +0.000 Cl
ATOM     33  C   UNL     1      -1.211  10.016  17.532  0.00  0.00    +0.000 A 
ENDBRANCH  26  27
ENDBRANCH  25  26
ENDBRANCH  22  25
ENDBRANCH  21  22
ENDBRANCH  20  21
ENDBRANCH   5  20
TORSDOF 17
ENDMDL
MODEL 3
REMARK VINA RESULT:      -6.7      1.028      1.535
REMARK  Name = 
REMARK  17 active torsions:
REMARK  status: ('A' for Active; 'I' for Inactive)
REMARK    1  A    between atoms: C_2  and  O_3
REMARK    2  A    between atoms: C_2  and  C_4
REMARK    3  A    between atoms: C_4  and  C_5
REMARK    4  A    between atoms: C_5  and  C_6
REMARK    5  A    between atoms: C_6  and  C_7
REMARK    6  A    between atoms: C_7  and  C_8
REMARK    7  A    between atoms: C_8  and  C_9
REMARK    8  A    between atoms: C_9  and  C_10
REMARK    9  A    between atoms: C_11  and  O_12
REMARK   10  A    between atoms: C_14  and  O_15
REMARK   11  A    between atoms: C_16  and  C_17
REMARK   12  A    between atoms: C_17  and  C_18
REMARK   13  A    between atoms: C_18  and  C_19
REMARK   14  A    between atoms: C_19  and  O_20
REMARK   15  A    between atoms: C_19  and  C_21
REMARK   16  A    between atoms: C_21  and  S_22
REMARK   17  A    between atoms: S_22  and  C_23
REMARK                            x       y       z     vdW  Elec       q    Type
REMARK                         _______ _______ _______ _____ _____    ______ ____
ROOT
ATOM      1  C   UNL     1       5.642   5.228  18.620  0.00  0.00    +0.000 C 
ATOM      2  C   UNL     1       7.079   5.161  18.047  0.00  0.00    +0.000 C 
ATOM      3  C   UNL     1       7.079   5.911  16.723  0.00  0.00    +0.000 C 
ATOM      4  C   UNL     1       5.895   6.849  16.797  0.00  0.00    +0.000 C 
ATOM      5  C   UNL     1       4.840   6.112  17.629  0.00  0.00    +0.000 C 
ENDROOT
BRANCH   2   6
ATOM      6  O   UNL     1       7.593   3.855  17.859  0.00  0.00    +0.000 OA
ATOM      7  H   UNL     1       8.358   3.723  18.445  0.00  0.00    +0.000 HD
ENDBRANCH   2   6
BRANCH   4   8
ATOM      8  O   UNL     1       5.422   7.133  15.484  0.00  0.00    +0.000 OA
ATOM      9  H   UNL     1       6.175   7.390  14.928  0.00  0.00    +0.000 HD
ENDBRANCH   4   8
BRANCH   1  10
ATOM     10  C   UNL     1       4.933   3.889  18.887  0.00  0.00    +0.000 C 
BRANCH  10  11
ATOM     11  C   UNL     1       4.322   3.253  17.629  0.00  0.00    +0.000 C 
BRANCH  11  12
ATOM     12  C   UNL     1       2.804   3.437  17.508  0.00  0.00    +0.000 C 
BRANCH  12  13
ATOM     13  C   UNL     1       2.012   2.222  17.997  0.00  0.00    +0.000 C 
BRANCH  13  14
ATOM     14  C   UNL     1       1.861   2.212  19.517  0.00  0.00    +0.000 C 
BRANCH  14  15
ATOM     15  C   UNL     1       1.288   3.538  20.014  0.00  0.00    +0.000 C 
BRANCH  15  17
ATOM     16  O   UNL     1       2.163   3.367  22.270  0.00  0.00    +0.000 OA
ATOM     17  C   UNL     1       1.985   4.027  21.267  0.00  0.00    +0.000 C 
BRANCH  17  18
ATOM     18  O   UNL     1       2.405   5.305  21.149  0.00  0.00    +0.000 OA
ATOM     19  H   UNL     1       2.069   5.899  21.844  0.00  0.00    +0.000 HD
ENDBRANCH  17  18
ENDBRANCH  15  17
ENDBRANCH  14  15
ENDBRANCH  13  14
ENDBRANCH  12  13
ENDBRANCH  11  12
ENDBRANCH  10  11
ENDBRANCH   1  10
BRANCH   5  20
ATOM     20  C   UNL     1       3.913   7.092  18.374  0.00  0.00    +0.000 C 
BRANCH  20  21
ATOM     21  C   UNL     1       2.454   6.987  17.921  0.00  0.00    +0.000 C 
BRANCH  21  22
ATOM     22  C   UNL     1       1.530   7.961  18.664  0.00  0.00    +0.000 C 
BRANCH  22  23
ATOM     23  O   UNL     1       1.983   8.102  20.018  0.00  0.00    +0.000 OA
ATOM     24  H   UNL     1       2.926   7.861  20.048  0.00  0.00    +0.000 HD
ENDBRANCH  22  23
BRANCH  22  25
ATOM     25  C   UNL     1       1.496   9.354  18.011  0.00  0.00    +0.000 C 
BRANCH  25  26
ATOM     26  S   UNL     1       0.746  10.586  19.128  0.00  0.00    +0.000 S 
BRANCH  26  27
ATOM     27  C   UNL     1      -0.937  10.723  18.563  0.00  0.00    +0.000 A 
ATOM     28  C   UNL     1      -1.267   9.949  17.437  0.00  0.00    +0.000 A 
ATOM     29  C   UNL     1      -2.563   9.942  16.924  0.00  0.00    +0.000 A 
ATOM     30  C   UNL     1      -3.550  10.713  17.535  0.00  0.00    +0.000 A 
ATOM     31  C   UNL     1      -3.228  11.493  18.645  0.00  0.00    +0.000 A 
ATOM     32 CL   UNL     1      -4.447  12.448  19.394  0.00  0.00    +0.000 Cl
ATOM     33  C   UNL     1      -1.929  11.502  19.158  0.00  0.00    +0.000 A 
ENDBRANCH  26  27
ENDBRANCH  25  26
ENDBRANCH  22  25
ENDBRANCH  21  22
ENDBRANCH  20  21
ENDBRANCH   5  20
TORSDOF 17
ENDMDL
MODEL 4
REMARK VINA RESULT:      -6.6      2.470      4.896
REMARK  Name = 
REMARK  17 active torsions:
REMARK  status: ('A' for Active; 'I' for Inactive)
REMARK    1  A    between atoms: C_2  and  O_3
REMARK    2  A    between atoms: C_2  and  C_4
REMARK    3  A    between atoms: C_4  and  C_5
REMARK    4  A    between atoms: C_5  and  C_6
REMARK    5  A    between atoms: C_6  and  C_7
REMARK    6  A    between atoms: C_7  and  C_8
REMARK    7  A    between atoms: C_8  and  C_9
REMARK    8  A    between atoms: C_9  and  C_10
REMARK    9  A    between atoms: C_11  and  O_12
REMARK   10  A    between atoms: C_14  and  O_15
REMARK   11  A    between atoms: C_16  and  C_17
REMARK   12  A    between atoms: C_17  and  C_18
REMARK   13  A    between atoms: C_18  and  C_19
REMARK   14  A    between atoms: C_19  and  O_20
REMARK   15  A    between atoms: C_19  and  C_21
REMARK   16  A    between atoms: C_21  and  S_22
REMARK   17  A    between atoms: S_22  and  C_23
REMARK                            x       y       z     vdW  Elec       q    Type
REMARK                         _______ _______ _______ _____ _____    ______ ____
ROOT
ATOM      1  C   UNL     1       1.482   3.716  18.150  0.00  0.00    +0.000 C 
ATOM      2  C   UNL     1       0.915   2.635  19.102  0.00  0.00    +0.000 C 
ATOM      3  C   UNL     1       1.239   3.063  20.526  0.00  0.00    +0.000 C 
ATOM      4  C   UNL     1       1.451   4.559  20.453  0.00  0.00    +0.000 C 
ATOM      5  C   UNL     1       2.065   4.819  19.072  0.00  0.00    +0.000 C 
ENDROOT
BRANCH   2   6
ATOM      6  O   UNL     1       1.392   1.322  18.875  0.00  0.00    +0.000 OA
ATOM      7  H   UNL     1       0.661   0.690  18.981  0.00  0.00    +0.000 HD
ENDBRANCH   2   6
BRANCH   4   8
ATOM      8  O   UNL     1       2.322   4.975  21.500  0.00  0.00    +0.000 OA
ATOM      9  H   UNL     1       3.122   4.425  21.479  0.00  0.00    +0.000 HD
ENDBRANCH   4   8
BRANCH   1  10
ATOM     10  C   UNL     1       2.509   3.255  17.101  0.00  0.00    +0.000 C 
BRANCH  10  11
ATOM     11  C   UNL     1       3.953   3.661  17.432  0.00  0.00    +0.000 C 
BRANCH  11  12
ATOM     12  C   UNL     1       4.598   4.587  16.393  0.00  0.00    +0.000 C 
BRANCH  12  13
ATOM     13  C   UNL     1       5.775   3.939  15.660  0.00  0.00    +0.000 C 
BRANCH  13  14
ATOM     14  C   UNL     1       7.013   4.832  15.665  0.00  0.00    +0.000 C 
BRANCH  14  15
ATOM     15  C   UNL     1       7.044   5.709  16.917  0.00  0.00    +0.000 C 
BRANCH  15  17
ATOM     16  O   UNL     1       7.287   5.193  19.274  0.00  0.00    +0.000 OA
ATOM     17  C   UNL     1       7.587   4.967  18.120  0.00  0.00    +0.000 C 
BRANCH  17  18
ATOM     18  O   UNL     1       8.458   3.996  17.767  0.00  0.00    +0.000 OA
ATOM     19  H   UNL     1       8.041   3.227  17.338  0.00  0.00    +0.000 HD
ENDBRANCH  17  18
ENDBRANCH  15  17
ENDBRANCH  14  15
ENDBRANCH  13  14
ENDBRANCH  12  13
ENDBRANCH  11  12
ENDBRANCH  10  11
ENDBRANCH   1  10
BRANCH   5  20
ATOM     20  C   UNL     1       1.720   6.228  18.551  0.00  0.00    +0.000 C 
BRANCH  20  21
ATOM     21  C   UNL     1       2.756   7.279  18.959  0.00  0.00    +0.000 C 
BRANCH  21  22
ATOM     22  C   UNL     1       2.724   8.523  18.060  0.00  0.00    +0.000 C 
BRANCH  22  23
ATOM     23  O   UNL     1       3.049   8.143  16.716  0.00  0.00    +0.000 OA
ATOM     24  H   UNL     1       2.720   7.239  16.570  0.00  0.00    +0.000 HD
ENDBRANCH  22  23
BRANCH  22  25
ATOM     25  C   UNL     1       1.348   9.212  18.058  0.00  0.00    +0.000 C 
BRANCH  25  26
ATOM     26  S   UNL     1       1.501  10.988  18.448  0.00  0.00    +0.000 S 
BRANCH  26  27
ATOM     27  C   UNL     1       0.641  11.172  19.996  0.00  0.00    +0.000 A 
ATOM     28  C   UNL     1      -0.144  12.330  20.125  0.00  0.00    +0.000 A 
ATOM     29  C   UNL     1      -0.894  12.568  21.275  0.00  0.00    +0.000 A 
ATOM     30  C   UNL     1      -0.868  11.643  22.317  0.00  0.00    +0.000 A 
ATOM     31  C   UNL     1      -0.083  10.497  22.203  0.00  0.00    +0.000 A 
ATOM     32 CL   UNL     1      -0.048   9.360  23.493  0.00  0.00    +0.000 Cl
ATOM     33  C   UNL     1       0.672  10.260  21.051  0.00  0.00    +0.000 A 
ENDBRANCH  26  27
ENDBRANCH  25  26
ENDBRANCH  22  25
ENDBRANCH  21  22
ENDBRANCH  20  21
ENDBRANCH   5  20
TORSDOF 17
ENDMDL
MODEL 5
REMARK VINA RESULT:      -6.6      1.801      4.974
REMARK  Name = 
REMARK  17 active torsions:
REMARK  status: ('A' for Active; 'I' for Inactive)
REMARK    1  A    between atoms: C_2  and  O_3
REMARK    2  A    between atoms: C_2  and  C_4
REMARK    3  A    between atoms: C_4  and  C_5
REMARK    4  A    between atoms: C_5  and  C_6
REMARK    5  A    between atoms: C_6  and  C_7
REMARK    6  A    between atoms: C_7  and  C_8
REMARK    7  A    between atoms: C_8  and  C_9
REMARK    8  A    between atoms: C_9  and  C_10
REMARK    9  A    between atoms: C_11  and  O_12
REMARK   10  A    between atoms: C_14  and  O_15
REMARK   11  A    between atoms: C_16  and  C_17
REMARK   12  A    between atoms: C_17  and  C_18
REMARK   13  A    between atoms: C_18  and  C_19
REMARK   14  A    between atoms: C_19  and  O_20
REMARK   15  A    between atoms: C_19  and  C_21
REMARK   16  A    between atoms: C_21  and  S_22
REMARK   17  A    between atoms: S_22  and  C_23
REMARK                            x       y       z     vdW  Elec       q    Type
REMARK                         _______ _______ _______ _____ _____    ______ ____
ROOT
ATOM      1  C   UNL     1       1.911   4.558  18.783  0.00  0.00    +0.000 C 
ATOM      2  C   UNL     1       1.400   3.150  18.394  0.00  0.00    +0.000 C 
ATOM      3  C   UNL     1       1.364   2.308  19.661  0.00  0.00    +0.000 C 
ATOM      4  C   UNL     1       1.286   3.304  20.797  0.00  0.00    +0.000 C 
ATOM      5  C   UNL     1       2.083   4.526  20.325  0.00  0.00    +0.000 C 
ENDROOT
BRANCH   2   6
ATOM      6  O   UNL     1       2.161   2.487  17.400  0.00  0.00    +0.000 OA
ATOM      7  H   UNL     1       3.105   2.665  17.545  0.00  0.00    +0.000 HD
ENDBRANCH   2   6
BRANCH   4   8
ATOM      8  O   UNL     1       1.849   2.736  21.977  0.00  0.00    +0.000 OA
ATOM      9  H   UNL     1       2.806   2.898  21.976  0.00  0.00    +0.000 HD
ENDBRANCH   4   8
BRANCH   1  10
ATOM     10  C   UNL     1       3.185   5.059  18.082  0.00  0.00    +0.000 C 
BRANCH  10  11
ATOM     11  C   UNL     1       4.477   4.438  18.633  0.00  0.00    +0.000 C 
BRANCH  11  12
ATOM     12  C   UNL     1       5.425   5.446  19.294  0.00  0.00    +0.000 C 
BRANCH  12  13
ATOM     13  C   UNL     1       6.765   5.577  18.566  0.00  0.00    +0.000 C 
BRANCH  13  14
ATOM     14  C   UNL     1       6.581   5.820  17.070  0.00  0.00    +0.000 C 
BRANCH  14  15
ATOM     15  C   UNL     1       7.160   4.664  16.255  0.00  0.00    +0.000 C 
BRANCH  15  17
ATOM     16  O   UNL     1       5.828   4.360  14.252  0.00  0.00    +0.000 OA
ATOM     17  C   UNL     1       6.834   4.784  14.781  0.00  0.00    +0.000 C 
BRANCH  17  18
ATOM     18  O   UNL     1       7.801   5.436  14.099  0.00  0.00    +0.000 OA
ATOM     19  H   UNL     1       7.571   5.628  13.172  0.00  0.00    +0.000 HD
ENDBRANCH  17  18
ENDBRANCH  15  17
ENDBRANCH  14  15
ENDBRANCH  13  14
ENDBRANCH  12  13
ENDBRANCH  11  12
ENDBRANCH  10  11
ENDBRANCH   1  10
BRANCH   5  20
ATOM     20  C   UNL     1       1.571   5.826  20.975  0.00  0.00    +0.000 C 
BRANCH  20  21
ATOM     21  C   UNL     1       1.948   7.076  20.175  0.00  0.00    +0.000 C 
BRANCH  21  22
ATOM     22  C   UNL     1       1.199   8.331  20.645  0.00  0.00    +0.000 C 
BRANCH  22  23
ATOM     23  O   UNL     1       1.796   8.810  21.858  0.00  0.00    +0.000 OA
ATOM     24  H   UNL     1       2.127   9.712  21.696  0.00  0.00    +0.000 HD
ENDBRANCH  22  23
BRANCH  22  25
ATOM     25  C   UNL     1       1.231   9.460  19.602  0.00  0.00    +0.000 C 
BRANCH  25  26
ATOM     26  S   UNL     1       0.186  10.864  20.120  0.00  0.00    +0.000 S 
BRANCH  26  27
ATOM     27  C   UNL     1      -1.185  10.831  18.984  0.00  0.00    +0.000 A 
ATOM     28  C   UNL     1      -1.002  10.052  17.828  0.00  0.00    +0.000 A 
ATOM     29  C   UNL     1      -2.017   9.917  16.883  0.00  0.00    +0.000 A 
ATOM     30  C   UNL     1      -3.235  10.564  17.083  0.00  0.00    +0.000 A 
ATOM     31  C   UNL     1      -3.421  11.348  18.220  0.00  0.00    +0.000 A 
ATOM     32 CL   UNL     1      -4.923  12.150  18.463  0.00  0.00    +0.000 Cl
ATOM     33  C   UNL     1      -2.403  11.486  19.168  0.00  0.00    +0.000 A 
ENDBRANCH  26  27
ENDBRANCH  25  26
ENDBRANCH  22  25
ENDBRANCH  21  22
ENDBRANCH  20  21
ENDBRANCH   5  20
TORSDOF 17
ENDMDL
MODEL 6
REMARK VINA RESULT:      -6.6      1.717      4.681
REMARK  Name = 
REMARK  17 active torsions:
REMARK  status: ('A' for Active; 'I' for Inactive)
REMARK    1  A    between atoms: C_2  and  O_3
REMARK    2  A    between atoms: C_2  and  C_4
REMARK    3  A    between atoms: C_4  and  C_5
REMARK    4  A    between atoms: C_5  and  C_6
REMARK    5  A    between atoms: C_6  and  C_7
REMARK    6  A    between atoms: C_7  and  C_8
REMARK    7  A    between atoms: C_8  and  C_9
REMARK    8  A    between atoms: C_9  and  C_10
REMARK    9  A    between atoms: C_11  and  O_12
REMARK   10  A    between atoms: C_14  and  O_15
REMARK   11  A    between atoms: C_16  and  C_17
REMARK   12  A    between atoms: C_17  and  C_18
REMARK   13  A    between atoms: C_18  and  C_19
REMARK   14  A    between atoms: C_19  and  O_20
REMARK   15  A    between atoms: C_19  and  C_21
REMARK   16  A    between atoms: C_21  and  S_22
REMARK   17  A    between atoms: S_22  and  C_23
REMARK                            x       y       z     vdW  Elec       q    Type
REMARK                         _______ _______ _______ _____ _____    ______ ____
ROOT
ATOM      1  C   UNL     1       1.251   3.981  18.858  0.00  0.00    +0.000 C 
ATOM      2  C   UNL     1       0.989   2.455  18.871  0.00  0.00    +0.000 C 
ATOM      3  C   UNL     1       1.609   1.895  20.144  0.00  0.00    +0.000 C 
ATOM      4  C   UNL     1       1.704   3.071  21.090  0.00  0.00    +0.000 C 
ATOM      5  C   UNL     1       1.963   4.293  20.201  0.00  0.00    +0.000 C 
ENDROOT
BRANCH   2   6
ATOM      6  O   UNL     1       1.482   1.750  17.747  0.00  0.00    +0.000 OA
ATOM      7  H   UNL     1       2.130   2.302  17.279  0.00  0.00    +0.000 HD
ENDBRANCH   2   6
BRANCH   4   8
ATOM      8  O   UNL     1       2.768   2.862  22.015  0.00  0.00    +0.000 OA
ATOM      9  H   UNL     1       2.429   2.988  22.915  0.00  0.00    +0.000 HD
ENDBRANCH   4   8
BRANCH   1  10
ATOM     10  C   UNL     1       2.033   4.546  17.659  0.00  0.00    +0.000 C 
BRANCH  10  11
ATOM     11  C   UNL     1       3.349   3.805  17.376  0.00  0.00    +0.000 C 
BRANCH  11  12
ATOM     12  C   UNL     1       4.606   4.591  17.767  0.00  0.00    +0.000 C 
BRANCH  12  13
ATOM     13  C   UNL     1       5.127   5.488  16.641  0.00  0.00    +0.000 C 
BRANCH  13  14
ATOM     14  C   UNL     1       6.128   6.522  17.151  0.00  0.00    +0.000 C 
BRANCH  14  15
ATOM     15  C   UNL     1       7.439   5.853  17.562  0.00  0.00    +0.000 C 
BRANCH  15  17
ATOM     16  O   UNL     1       7.450   5.496  19.961  0.00  0.00    +0.000 OA
ATOM     17  C   UNL     1       7.805   6.149  19.001  0.00  0.00    +0.000 C 
BRANCH  17  18
ATOM     18  O   UNL     1       8.593   7.241  19.110  0.00  0.00    +0.000 OA
ATOM     19  H   UNL     1       8.864   7.621  18.255  0.00  0.00    +0.000 HD
ENDBRANCH  17  18
ENDBRANCH  15  17
ENDBRANCH  14  15
ENDBRANCH  13  14
ENDBRANCH  12  13
ENDBRANCH  11  12
ENDBRANCH  10  11
ENDBRANCH   1  10
BRANCH   5  20
ATOM     20  C   UNL     1       1.420   5.587  20.838  0.00  0.00    +0.000 C 
BRANCH  20  21
ATOM     21  C   UNL     1       2.078   6.847  20.270  0.00  0.00    +0.000 C 
BRANCH  21  22
ATOM     22  C   UNL     1       1.312   8.129  20.627  0.00  0.00    +0.000 C 
BRANCH  22  23
ATOM     23  O   UNL     1       1.874   8.698  21.817  0.00  0.00    +0.000 OA
ATOM     24  H   UNL     1       2.843   8.708  21.720  0.00  0.00    +0.000 HD
ENDBRANCH  22  23
BRANCH  22  25
ATOM     25  C   UNL     1       1.369   9.180  19.505  0.00  0.00    +0.000 C 
BRANCH  25  26
ATOM     26  S   UNL     1       0.524  10.719  20.003  0.00  0.00    +0.000 S 
BRANCH  26  27
ATOM     27  C   UNL     1      -0.940  10.761  18.991  0.00  0.00    +0.000 A 
ATOM     28  C   UNL     1      -0.897   9.980  17.823  0.00  0.00    +0.000 A 
ATOM     29  C   UNL     1      -1.996   9.901  16.969  0.00  0.00    +0.000 A 
ATOM     30  C   UNL     1      -3.158  10.606  17.275  0.00  0.00    +0.000 A 
ATOM     31  C   UNL     1      -3.205  11.393  18.425  0.00  0.00    +0.000 A 
ATOM     32 CL   UNL     1      -4.639  12.267  18.799  0.00  0.00    +0.000 Cl
ATOM     33  C   UNL     1      -2.103  11.474  19.280  0.00  0.00    +0.000 A 
ENDBRANCH  26  27
ENDBRANCH  25  26
ENDBRANCH  22  25
ENDBRANCH  21  22
ENDBRANCH  20  21
ENDBRANCH   5  20
TORSDOF 17
ENDMDL
MODEL 7
REMARK VINA RESULT:      -6.6      1.588      4.147
REMARK  Name = 
REMARK  17 active torsions:
REMARK  status: ('A' for Active; 'I' for Inactive)
REMARK    1  A    between atoms: C_2  and  O_3
REMARK    2  A    between atoms: C_2  and  C_4
REMARK    3  A    between atoms: C_4  and  C_5
REMARK    4  A    between atoms: C_5  and  C_6
REMARK    5  A    between atoms: C_6  and  C_7
REMARK    6  A    between atoms: C_7  and  C_8
REMARK    7  A    between atoms: C_8  and  C_9
REMARK    8  A    between atoms: C_9  and  C_10
REMARK    9  A    between atoms: C_11  and  O_12
REMARK   10  A    between atoms: C_14  and  O_15
REMARK   11  A    between atoms: C_16  and  C_17
REMARK   12  A    between atoms: C_17  and  C_18
REMARK   13  A    between atoms: C_18  and  C_19
REMARK   14  A    between atoms: C_19  and  O_20
REMARK   15  A    between atoms: C_19  and  C_21
REMARK   16  A    between atoms: C_21  and  S_22
REMARK   17  A    between atoms: S_22  and  C_23
REMARK                            x       y       z     vdW  Elec       q    Type
REMARK                         _______ _______ _______ _____ _____    ______ ____
ROOT
ATOM      1  C   UNL     1       3.455   3.334  18.083  0.00  0.00    +0.000 C 
ATOM      2  C   UNL     1       3.253   1.995  18.833  0.00  0.00    +0.000 C 
ATOM      3  C   UNL     1       2.767   2.325  20.237  0.00  0.00    +0.000 C 
ATOM      4  C   UNL     1       2.163   3.707  20.134  0.00  0.00    +0.000 C 
ATOM      5  C   UNL     1       2.989   4.438  19.069  0.00  0.00    +0.000 C 
ENDROOT
BRANCH   2   6
ATOM      6  O   UNL     1       4.397   1.165  18.904  0.00  0.00    +0.000 OA
ATOM      7  H   UNL     1       4.752   1.182  19.809  0.00  0.00    +0.000 HD
ENDBRANCH   2   6
BRANCH   4   8
ATOM      8  O   UNL     1       2.239   4.363  21.397  0.00  0.00    +0.000 OA
ATOM      9  H   UNL     1       1.764   3.831  22.055  0.00  0.00    +0.000 HD
ENDBRANCH   4   8
BRANCH   1  10
ATOM     10  C   UNL     1       4.864   3.623  17.536  0.00  0.00    +0.000 C 
BRANCH  10  11
ATOM     11  C   UNL     1       4.863   4.285  16.150  0.00  0.00    +0.000 C 
BRANCH  11  12
ATOM     12  C   UNL     1       6.234   4.812  15.706  0.00  0.00    +0.000 C 
BRANCH  12  13
ATOM     13  C   UNL     1       7.169   5.113  16.879  0.00  0.00    +0.000 C 
BRANCH  13  14
ATOM     14  C   UNL     1       7.289   6.612  17.144  0.00  0.00    +0.000 C 
BRANCH  14  15
ATOM     15  C   UNL     1       7.911   6.873  18.515  0.00  0.00    +0.000 C 
BRANCH  15  17
ATOM     16  O   UNL     1       6.510   5.384  19.820  0.00  0.00    +0.000 OA
ATOM     17  C   UNL     1       7.618   5.757  19.497  0.00  0.00    +0.000 C 
BRANCH  17  18
ATOM     18  O   UNL     1       8.749   5.200  19.984  0.00  0.00    +0.000 OA
ATOM     19  H   UNL     1       9.557   5.459  19.504  0.00  0.00    +0.000 HD
ENDBRANCH  17  18
ENDBRANCH  15  17
ENDBRANCH  14  15
ENDBRANCH  13  14
ENDBRANCH  12  13
ENDBRANCH  11  12
ENDBRANCH  10  11
ENDBRANCH   1  10
BRANCH   5  20
ATOM     20  C   UNL     1       2.163   5.521  18.350  0.00  0.00    +0.000 C 
BRANCH  20  21
ATOM     21  C   UNL     1       2.532   6.939  18.795  0.00  0.00    +0.000 C 
BRANCH  21  22
ATOM     22  C   UNL     1       1.559   7.507  19.838  0.00  0.00    +0.000 C 
BRANCH  22  23
ATOM     23  O   UNL     1       1.969   7.085  21.145  0.00  0.00    +0.000 OA
ATOM     24  H   UNL     1       2.399   7.839  21.586  0.00  0.00    +0.000 HD
ENDBRANCH  22  23
BRANCH  22  25
ATOM     25  C   UNL     1       1.502   9.044  19.813  0.00  0.00    +0.000 C 
BRANCH  25  26
ATOM     26  S   UNL     1       1.080   9.660  18.148  0.00  0.00    +0.000 S 
BRANCH  26  27
ATOM     27  C   UNL     1      -0.505  10.443  18.359  0.00  0.00    +0.000 A 
ATOM     28  C   UNL     1      -0.628  11.278  19.483  0.00  0.00    +0.000 A 
ATOM     29  C   UNL     1      -1.807  11.977  19.736  0.00  0.00    +0.000 A 
ATOM     30  C   UNL     1      -2.884  11.848  18.861  0.00  0.00    +0.000 A 
ATOM     31  C   UNL     1      -2.775  11.013  17.750  0.00  0.00    +0.000 A 
ATOM     32 CL   UNL     1      -4.108  10.851  16.675  0.00  0.00    +0.000 Cl
ATOM     33  C   UNL     1      -1.594  10.310  17.498  0.00  0.00    +0.000 A 
ENDBRANCH  26  27
ENDBRANCH  25  26
ENDBRANCH  22  25
ENDBRANCH  21  22
ENDBRANCH  20  21
ENDBRANCH   5  20
TORSDOF 17
ENDMDL
MODEL 8
REMARK VINA RESULT:      -6.6      1.835      2.147
REMARK  Name = 
REMARK  17 active torsions:
REMARK  status: ('A' for Active; 'I' for Inactive)
REMARK    1  A    between atoms: C_2  and  O_3
REMARK    2  A    between atoms: C_2  and  C_4
REMARK    3  A    between atoms: C_4  and  C_5
REMARK    4  A    between atoms: C_5  and  C_6
REMARK    5  A    between atoms: C_6  and  C_7
REMARK    6  A    between atoms: C_7  and  C_8
REMARK    7  A    between atoms: C_8  and  C_9
REMARK    8  A    between atoms: C_9  and  C_10
REMARK    9  A    between atoms: C_11  and  O_12
REMARK   10  A    between atoms: C_14  and  O_15
REMARK   11  A    between atoms: C_16  and  C_17
REMARK   12  A    between atoms: C_17  and  C_18
REMARK   13  A    between atoms: C_18  and  C_19
REMARK   14  A    between atoms: C_19  and  O_20
REMARK   15  A    between atoms: C_19  and  C_21
REMARK   16  A    between atoms: C_21  and  S_22
REMARK   17  A    between atoms: S_22  and  C_23
REMARK                            x       y       z     vdW  Elec       q    Type
REMARK                         _______ _______ _______ _____ _____    ______ ____
ROOT
ATOM      1  C   UNL     1       5.097   4.994  18.521  0.00  0.00    +0.000 C 
ATOM      2  C   UNL     1       6.591   5.282  18.232  0.00  0.00    +0.000 C 
ATOM      3  C   UNL     1       6.663   6.053  16.922  0.00  0.00    +0.000 C 
ATOM      4  C   UNL     1       5.300   6.686  16.757  0.00  0.00    +0.000 C 
ATOM      5  C   UNL     1       4.310   5.697  17.383  0.00  0.00    +0.000 C 
ENDROOT
BRANCH   2   6
ATOM      6  O   UNL     1       7.422   4.138  18.162  0.00  0.00    +0.000 OA
ATOM      7  H   UNL     1       8.350   4.419  18.091  0.00  0.00    +0.000 HD
ENDBRANCH   2   6
BRANCH   4   8
ATOM      8  O   UNL     1       5.027   6.894  15.374  0.00  0.00    +0.000 OA
ATOM      9  H   UNL     1       5.868   6.910  14.889  0.00  0.00    +0.000 HD
ENDBRANCH   4   8
BRANCH   1  10
ATOM     10  C   UNL     1       4.685   3.518  18.666  0.00  0.00    +0.000 C 
BRANCH  10  11
ATOM     11  C   UNL     1       3.930   2.966  17.447  0.00  0.00    +0.000 C 
BRANCH  11  12
ATOM     12  C   UNL     1       2.641   2.213  17.797  0.00  0.00    +0.000 C 
BRANCH  12  13
ATOM     13  C   UNL     1       1.464   3.145  18.099  0.00  0.00    +0.000 C 
BRANCH  13  14
ATOM     14  C   UNL     1       0.764   2.775  19.405  0.00  0.00    +0.000 C 
BRANCH  14  15
ATOM     15  C   UNL     1       1.322   3.591  20.570  0.00  0.00    +0.000 C 
BRANCH  15  17
ATOM     16  O   UNL     1       3.194   2.442  21.599  0.00  0.00    +0.000 OA
ATOM     17  C   UNL     1       2.013   2.719  21.598  0.00  0.00    +0.000 C 
BRANCH  17  18
ATOM     18  O   UNL     1       1.157   2.273  22.543  0.00  0.00    +0.000 OA
ATOM     19  H   UNL     1       1.265   1.329  22.762  0.00  0.00    +0.000 HD
ENDBRANCH  17  18
ENDBRANCH  15  17
ENDBRANCH  14  15
ENDBRANCH  13  14
ENDBRANCH  12  13
ENDBRANCH  11  12
ENDBRANCH  10  11
ENDBRANCH   1  10
BRANCH   5  20
ATOM     20  C   UNL     1       3.056   6.410  17.925  0.00  0.00    +0.000 C 
BRANCH  20  21
ATOM     21  C   UNL     1       3.153   6.721  19.421  0.00  0.00    +0.000 C 
BRANCH  21  22
ATOM     22  C   UNL     1       1.830   7.233  20.008  0.00  0.00    +0.000 C 
BRANCH  22  23
ATOM     23  O   UNL     1       1.607   6.612  21.281  0.00  0.00    +0.000 OA
ATOM     24  H   UNL     1       2.437   6.186  21.560  0.00  0.00    +0.000 HD
ENDBRANCH  22  23
BRANCH  22  25
ATOM     25  C   UNL     1       1.823   8.760  20.198  0.00  0.00    +0.000 C 
BRANCH  25  26
ATOM     26  S   UNL     1       0.185   9.346  20.749  0.00  0.00    +0.000 S 
BRANCH  26  27
ATOM     27  C   UNL     1      -0.120  10.791  19.755  0.00  0.00    +0.000 A 
ATOM     28  C   UNL     1      -1.165  10.679  18.820  0.00  0.00    +0.000 A 
ATOM     29  C   UNL     1      -1.524  11.755  18.011  0.00  0.00    +0.000 A 
ATOM     30  C   UNL     1      -0.839  12.963  18.127  0.00  0.00    +0.000 A 
ATOM     31  C   UNL     1       0.206  13.079  19.042  0.00  0.00    +0.000 A 
ATOM     32 CL   UNL     1       1.055  14.569  19.179  0.00  0.00    +0.000 Cl
ATOM     33  C   UNL     1       0.569  12.000  19.852  0.00  0.00    +0.000 A 
ENDBRANCH  26  27
ENDBRANCH  25  26
ENDBRANCH  22  25
ENDBRANCH  21  22
ENDBRANCH  20  21
ENDBRANCH   5  20
TORSDOF 17
ENDMDL
MODEL 9
REMARK VINA RESULT:      -6.5      1.874      2.251
REMARK  Name = 
REMARK  17 active torsions:
REMARK  status: ('A' for Active; 'I' for Inactive)
REMARK    1  A    between atoms: C_2  and  O_3
REMARK    2  A    between atoms: C_2  and  C_4
REMARK    3  A    between atoms: C_4  and  C_5
REMARK    4  A    between atoms: C_5  and  C_6
REMARK    5  A    between atoms: C_6  and  C_7
REMARK    6  A    between atoms: C_7  and  C_8
REMARK    7  A    between atoms: C_8  and  C_9
REMARK    8  A    between atoms: C_9  and  C_10
REMARK    9  A    between atoms: C_11  and  O_12
REMARK   10  A    between atoms: C_14  and  O_15
REMARK   11  A    between atoms: C_16  and  C_17
REMARK   12  A    between atoms: C_17  and  C_18
REMARK   13  A    between atoms: C_18  and  C_19
REMARK   14  A    between atoms: C_19  and  O_20
REMARK   15  A    between atoms: C_19  and  C_21
REMARK   16  A    between atoms: C_21  and  S_22
REMARK   17  A    between atoms: S_22  and  C_23
REMARK                            x       y       z     vdW  Elec       q    Type
REMARK                         _______ _______ _______ _____ _____    ______ ____
ROOT
ATOM      1  C   UNL     1       5.181   5.192  18.553  0.00  0.00    +0.000 C 
ATOM      2  C   UNL     1       6.684   5.392  18.242  0.00  0.00    +0.000 C 
ATOM      3  C   UNL     1       6.787   6.018  16.859  0.00  0.00    +0.000 C 
ATOM      4  C   UNL     1       5.448   6.681  16.623  0.00  0.00    +0.000 C 
ATOM      5  C   UNL     1       4.421   5.800  17.344  0.00  0.00    +0.000 C 
ENDROOT
BRANCH   2   6
ATOM      6  O   UNL     1       7.472   4.218  18.297  0.00  0.00    +0.000 OA
ATOM      7  H   UNL     1       7.335   3.700  17.486  0.00  0.00    +0.000 HD
ENDBRANCH   2   6
BRANCH   4   8
ATOM      8  O   UNL     1       5.185   6.753  15.224  0.00  0.00    +0.000 OA
ATOM      9  H   UNL     1       4.297   7.120  15.091  0.00  0.00    +0.000 HD
ENDBRANCH   4   8
BRANCH   1  10
ATOM     10  C   UNL     1       4.713   3.756  18.850  0.00  0.00    +0.000 C 
BRANCH  10  11
ATOM     11  C   UNL     1       4.098   3.044  17.635  0.00  0.00    +0.000 C 
BRANCH  11  12
ATOM     12  C   UNL     1       3.029   2.004  17.994  0.00  0.00    +0.000 C 
BRANCH  12  13
ATOM     13  C   UNL     1       1.647   2.620  18.224  0.00  0.00    +0.000 C 
BRANCH  13  14
ATOM     14  C   UNL     1       1.035   2.170  19.549  0.00  0.00    +0.000 C 
BRANCH  14  15
ATOM     15  C   UNL     1       1.782   2.788  20.730  0.00  0.00    +0.000 C 
BRANCH  15  17
ATOM     16  O   UNL     1       0.578   4.872  20.429  0.00  0.00    +0.000 OA
ATOM     17  C   UNL     1       1.563   4.283  20.824  0.00  0.00    +0.000 C 
BRANCH  17  18
ATOM     18  O   UNL     1       2.603   4.912  21.414  0.00  0.00    +0.000 OA
ATOM     19  H   UNL     1       2.707   4.703  22.360  0.00  0.00    +0.000 HD
ENDBRANCH  17  18
ENDBRANCH  15  17
ENDBRANCH  14  15
ENDBRANCH  13  14
ENDBRANCH  12  13
ENDBRANCH  11  12
ENDBRANCH  10  11
ENDBRANCH   1  10
BRANCH   5  20
ATOM     20  C   UNL     1       3.195   6.613  17.802  0.00  0.00    +0.000 C 
BRANCH  20  21
ATOM     21  C   UNL     1       3.409   8.124  17.685  0.00  0.00    +0.000 C 
BRANCH  21  22
ATOM     22  C   UNL     1       2.293   8.936  18.356  0.00  0.00    +0.000 C 
BRANCH  22  23
ATOM     23  O   UNL     1       1.536   9.621  17.348  0.00  0.00    +0.000 OA
ATOM     24  H   UNL     1       1.423  10.546  17.631  0.00  0.00    +0.000 HD
ENDBRANCH  22  23
BRANCH  22  25
ATOM     25  C   UNL     1       1.335   8.055  19.176  0.00  0.00    +0.000 C 
BRANCH  25  26
ATOM     26  S   UNL     1       1.564   8.323  20.966  0.00  0.00    +0.000 S 
BRANCH  26  27
ATOM     27  C   UNL     1       0.384   9.593  21.372  0.00  0.00    +0.000 A 
ATOM     28  C   UNL     1      -0.092   9.583  22.695  0.00  0.00    +0.000 A 
ATOM     29  C   UNL     1      -0.990  10.550  23.144  0.00  0.00    +0.000 A 
ATOM     30  C   UNL     1      -1.426  11.543  22.270  0.00  0.00    +0.000 A 
ATOM     31  C   UNL     1      -0.970  11.553  20.953  0.00  0.00    +0.000 A 
ATOM     32 CL   UNL     1      -1.513  12.777  19.874  0.00  0.00    +0.000 Cl
ATOM     33  C   UNL     1      -0.070  10.583  20.501  0.00  0.00    +0.000 A 
ENDBRANCH  26  27
ENDBRANCH  25  26
ENDBRANCH  22  25
ENDBRANCH  21  22
ENDBRANCH  20  21
ENDBRANCH   5  20
TORSDOF 17
ENDMDL
