MODEL 1
REMARK VINA RESULT:      -8.2      0.000      0.000
REMARK  Name = 
REMARK  6 active torsions:
REMARK  status: ('A' for Active; 'I' for Inactive)
REMARK    1  A    between atoms: C_1  and  C_2
REMARK    2  A    between atoms: C_2  and  C_3
REMARK    3  A    between atoms: C_8  and  C_10
REMARK    4  A    between atoms: C_10  and  C_11
REMARK    5  A    between atoms: C_11  and  N_12
REMARK    6  A    between atoms: C_13  and  C_15
REMARK                            x       y       z     vdW  Elec       q    Type
REMARK                         _______ _______ _______ _____ _____    ______ ____
ROOT
ATOM      1  C   UNL     1       6.876   6.383  17.974  0.00  0.00    +0.000 C 
ENDROOT
BRANCH   1   7
ATOM      2  C   UNL     1       6.413   3.800  12.599  0.00  0.00    +0.000 A 
ATOM      3  N   UNL     1       7.487   4.524  12.357  0.00  0.00    +0.000 NA
ATOM      4  N   UNL     1       7.870   5.261  13.464  0.00  0.00    +0.000 NA
ATOM      5  C   UNL     1       7.049   5.096  14.477  0.00  0.00    +0.000 A 
ATOM      6  N   UNL     1       7.238   5.703  15.695  0.00  0.00    +0.000 N 
ATOM      7  C   UNL     1       6.340   5.704  16.738  0.00  0.00    +0.000 C 
ATOM      8  O   UNL     1       5.197   5.265  16.712  0.00  0.00    +0.000 OA
ATOM      9  S   UNL     1       5.776   4.004  14.176  0.00  0.00    +0.000 S 
ATOM     10  H   UNL     1       8.104   6.220  15.769  0.00  0.00    +0.000 HD
BRANCH   2  12
ATOM     11  C   UNL     1       4.338   3.233  11.359  0.00  0.00    +0.000 C 
ATOM     12  C   UNL     1       5.782   2.847  11.641  0.00  0.00    +0.000 C 
ENDBRANCH   2  12
ENDBRANCH   1   7
BRANCH   1  13
ATOM     13  C   UNL     1       6.567   5.527  19.200  0.00  0.00    +0.000 C 
BRANCH  13  14
ATOM     14  N   UNL     1       5.161   5.204  19.329  0.00  0.00    +0.000 N 
ATOM     15  C   UNL     1       4.722   3.911  19.512  0.00  0.00    +0.000 C 
ATOM     16  O   UNL     1       5.486   2.969  19.692  0.00  0.00    +0.000 OA
ATOM     17  H   UNL     1       4.492   5.905  19.029  0.00  0.00    +0.000 HD
BRANCH  15  18
ATOM     18  C   UNL     1       3.253   3.695  19.572  0.00  0.00    +0.000 A 
ATOM     19  C   UNL     1       2.580   4.369  20.606  0.00  0.00    +0.000 A 
ATOM     20  C   UNL     1       1.195   4.268  20.742  0.00  0.00    +0.000 A 
ATOM     21  C   UNL     1       0.468   3.485  19.851  0.00  0.00    +0.000 A 
ATOM     22  C   UNL     1       1.126   2.797  18.831  0.00  0.00    +0.000 A 
ATOM     23  C   UNL     1       2.516   2.892  18.690  0.00  0.00    +0.000 A 
ATOM     24 CL   UNL     1       3.230   1.954  17.424  0.00  0.00    +0.000 Cl
ENDBRANCH  15  18
ENDBRANCH  13  14
ENDBRANCH   1  13
TORSDOF 5
ENDMDL
MODEL 2
REMARK VINA RESULT:      -8.0      1.171      1.381
REMARK  Name = 
REMARK  6 active torsions:
REMARK  status: ('A' for Active; 'I' for Inactive)
REMARK    1  A    between atoms: C_1  and  C_2
REMARK    2  A    between atoms: C_2  and  C_3
REMARK    3  A    between atoms: C_8  and  C_10
REMARK    4  A    between atoms: C_10  and  C_11
REMARK    5  A    between atoms: C_11  and  N_12
REMARK    6  A    between atoms: C_13  and  C_15
REMARK                            x       y       z     vdW  Elec       q    Type
REMARK                         _______ _______ _______ _____ _____    ______ ____
ROOT
ATOM      1  C   UNL     1       6.592   6.565  17.672  0.00  0.00    +0.000 C 
ENDROOT
BRANCH   1   7
ATOM      2  C   UNL     1       6.386   3.597  12.483  0.00  0.00    +0.000 A 
ATOM      3  N   UNL     1       7.432   4.353  12.215  0.00  0.00    +0.000 NA
ATOM      4  N   UNL     1       7.752   5.183  13.276  0.00  0.00    +0.000 NA
ATOM      5  C   UNL     1       6.914   5.049  14.279  0.00  0.00    +0.000 A 
ATOM      6  N   UNL     1       7.043   5.747  15.455  0.00  0.00    +0.000 N 
ATOM      7  C   UNL     1       6.119   5.777  16.475  0.00  0.00    +0.000 C 
ATOM      8  O   UNL     1       4.999   5.284  16.454  0.00  0.00    +0.000 OA
ATOM      9  S   UNL     1       5.700   3.880  14.027  0.00  0.00    +0.000 S 
ATOM     10  H   UNL     1       7.882   6.308  15.512  0.00  0.00    +0.000 HD
BRANCH   2  12
ATOM     11  C   UNL     1       6.921   1.631  11.065  0.00  0.00    +0.000 C 
ATOM     12  C   UNL     1       5.825   2.551  11.581  0.00  0.00    +0.000 C 
ENDBRANCH   2  12
ENDBRANCH   1   7
BRANCH   1  13
ATOM     13  C   UNL     1       6.646   5.651  18.894  0.00  0.00    +0.000 C 
BRANCH  13  14
ATOM     14  N   UNL     1       5.335   5.309  19.407  0.00  0.00    +0.000 N 
ATOM     15  C   UNL     1       4.824   4.033  19.311  0.00  0.00    +0.000 C 
ATOM     16  O   UNL     1       5.478   3.084  18.894  0.00  0.00    +0.000 OA
ATOM     17  H   UNL     1       4.699   6.073  19.608  0.00  0.00    +0.000 HD
BRANCH  15  18
ATOM     18  C   UNL     1       3.444   3.815  19.820  0.00  0.00    +0.000 A 
ATOM     19  C   UNL     1       3.309   2.817  20.803  0.00  0.00    +0.000 A 
ATOM     20  C   UNL     1       2.069   2.546  21.379  0.00  0.00    +0.000 A 
ATOM     21  C   UNL     1       0.946   3.262  20.974  0.00  0.00    +0.000 A 
ATOM     22  C   UNL     1       1.064   4.241  19.987  0.00  0.00    +0.000 A 
ATOM     23  C   UNL     1       2.306   4.518  19.403  0.00  0.00    +0.000 A 
ATOM     24 CL   UNL     1       2.323   5.714  18.154  0.00  0.00    +0.000 Cl
ENDBRANCH  15  18
ENDBRANCH  13  14
ENDBRANCH   1  13
TORSDOF 5
ENDMDL
MODEL 3
REMARK VINA RESULT:      -7.8      1.200      1.585
REMARK  Name = 
REMARK  6 active torsions:
REMARK  status: ('A' for Active; 'I' for Inactive)
REMARK    1  A    between atoms: C_1  and  C_2
REMARK    2  A    between atoms: C_2  and  C_3
REMARK    3  A    between atoms: C_8  and  C_10
REMARK    4  A    between atoms: C_10  and  C_11
REMARK    5  A    between atoms: C_11  and  N_12
REMARK    6  A    between atoms: C_13  and  C_15
REMARK                            x       y       z     vdW  Elec       q    Type
REMARK                         _______ _______ _______ _____ _____    ______ ____
ROOT
ATOM      1  C   UNL     1       6.598   6.506  17.645  0.00  0.00    +0.000 C 
ENDROOT
BRANCH   1   7
ATOM      2  C   UNL     1       6.230   3.611  12.424  0.00  0.00    +0.000 A 
ATOM      3  N   UNL     1       7.355   4.256  12.192  0.00  0.00    +0.000 NA
ATOM      4  N   UNL     1       7.730   5.041  13.268  0.00  0.00    +0.000 NA
ATOM      5  C   UNL     1       6.856   4.988  14.247  0.00  0.00    +0.000 A 
ATOM      6  N   UNL     1       7.023   5.661  15.433  0.00  0.00    +0.000 N 
ATOM      7  C   UNL     1       6.080   5.780  16.428  0.00  0.00    +0.000 C 
ATOM      8  O   UNL     1       4.915   5.405  16.373  0.00  0.00    +0.000 OA
ATOM      9  S   UNL     1       5.535   3.952  13.952  0.00  0.00    +0.000 S 
ATOM     10  H   UNL     1       7.915   6.132  15.518  0.00  0.00    +0.000 HD
BRANCH   2  12
ATOM     11  C   UNL     1       4.164   3.053  11.165  0.00  0.00    +0.000 C 
ATOM     12  C   UNL     1       5.589   2.634  11.497  0.00  0.00    +0.000 C 
ENDBRANCH   2  12
ENDBRANCH   1   7
BRANCH   1  13
ATOM     13  C   UNL     1       6.293   5.686  18.896  0.00  0.00    +0.000 C 
BRANCH  13  14
ATOM     14  N   UNL     1       4.921   5.225  18.954  0.00  0.00    +0.000 N 
ATOM     15  C   UNL     1       4.596   3.949  19.357  0.00  0.00    +0.000 C 
ATOM     16  O   UNL     1       5.424   3.160  19.800  0.00  0.00    +0.000 OA
ATOM     17  H   UNL     1       4.226   5.767  18.452  0.00  0.00    +0.000 HD
BRANCH  15  18
ATOM     18  C   UNL     1       3.159   3.570  19.319  0.00  0.00    +0.000 A 
ATOM     19  C   UNL     1       2.827   2.531  18.431  0.00  0.00    +0.000 A 
ATOM     20  C   UNL     1       1.515   2.067  18.333  0.00  0.00    +0.000 A 
ATOM     21  C   UNL     1       0.518   2.642  19.116  0.00  0.00    +0.000 A 
ATOM     22  C   UNL     1       0.831   3.685  19.988  0.00  0.00    +0.000 A 
ATOM     23  C   UNL     1       2.146   4.157  20.090  0.00  0.00    +0.000 A 
ATOM     24 CL   UNL     1       2.407   5.488  21.162  0.00  0.00    +0.000 Cl
ENDBRANCH  15  18
ENDBRANCH  13  14
ENDBRANCH   1  13
TORSDOF 5
ENDMDL
MODEL 4
REMARK VINA RESULT:      -7.7      3.503      4.160
REMARK  Name = 
REMARK  6 active torsions:
REMARK  status: ('A' for Active; 'I' for Inactive)
REMARK    1  A    between atoms: C_1  and  C_2
REMARK    2  A    between atoms: C_2  and  C_3
REMARK    3  A    between atoms: C_8  and  C_10
REMARK    4  A    between atoms: C_10  and  C_11
REMARK    5  A    between atoms: C_11  and  N_12
REMARK    6  A    between atoms: C_13  and  C_15
REMARK                            x       y       z     vdW  Elec       q    Type
REMARK                         _______ _______ _______ _____ _____    ______ ____
ROOT
ATOM      1  C   UNL     1       4.882   3.657  19.422  0.00  0.00    +0.000 C 
ENDROOT
BRANCH   1   7
ATOM      2  C   UNL     1       6.911   4.561  13.868  0.00  0.00    +0.000 A 
ATOM      3  N   UNL     1       7.696   5.419  14.487  0.00  0.00    +0.000 NA
ATOM      4  N   UNL     1       7.466   5.436  15.852  0.00  0.00    +0.000 NA
ATOM      5  C   UNL     1       6.493   4.624  16.199  0.00  0.00    +0.000 A 
ATOM      6  N   UNL     1       6.100   4.447  17.504  0.00  0.00    +0.000 N 
ATOM      7  C   UNL     1       4.994   3.743  17.919  0.00  0.00    +0.000 C 
ATOM      8  O   UNL     1       4.128   3.260  17.201  0.00  0.00    +0.000 OA
ATOM      9  S   UNL     1       5.813   3.750  14.903  0.00  0.00    +0.000 S 
ATOM     10  H   UNL     1       6.678   4.931  18.178  0.00  0.00    +0.000 HD
BRANCH   2  12
ATOM     11  C   UNL     1       5.881   3.236  12.038  0.00  0.00    +0.000 C 
ATOM     12  C   UNL     1       6.950   4.253  12.410  0.00  0.00    +0.000 C 
ENDBRANCH   2  12
ENDBRANCH   1   7
BRANCH   1  13
ATOM     13  C   UNL     1       3.496   4.125  19.858  0.00  0.00    +0.000 C 
BRANCH  13  14
ATOM     14  N   UNL     1       3.210   5.492  19.473  0.00  0.00    +0.000 N 
ATOM     15  C   UNL     1       2.160   6.198  20.016  0.00  0.00    +0.000 C 
ATOM     16  O   UNL     1       1.471   5.767  20.934  0.00  0.00    +0.000 OA
ATOM     17  H   UNL     1       3.633   5.833  18.617  0.00  0.00    +0.000 HD
BRANCH  15  18
ATOM     18  C   UNL     1       1.928   7.573  19.500  0.00  0.00    +0.000 A 
ATOM     19  C   UNL     1       2.320   7.798  18.169  0.00  0.00    +0.000 A 
ATOM     20  C   UNL     1       2.121   9.040  17.566  0.00  0.00    +0.000 A 
ATOM     21  C   UNL     1       1.536  10.075  18.290  0.00  0.00    +0.000 A 
ATOM     22  C   UNL     1       1.159   9.870  19.618  0.00  0.00    +0.000 A 
ATOM     23  C   UNL     1       1.357   8.626  20.230  0.00  0.00    +0.000 A 
ATOM     24 CL   UNL     1       0.901   8.502  21.893  0.00  0.00    +0.000 Cl
ENDBRANCH  15  18
ENDBRANCH  13  14
ENDBRANCH   1  13
TORSDOF 5
ENDMDL
MODEL 5
REMARK VINA RESULT:      -7.6      2.756      6.899
REMARK  Name = 
REMARK  6 active torsions:
REMARK  status: ('A' for Active; 'I' for Inactive)
REMARK    1  A    between atoms: C_1  and  C_2
REMARK    2  A    between atoms: C_2  and  C_3
REMARK    3  A    between atoms: C_8  and  C_10
REMARK    4  A    between atoms: C_10  and  C_11
REMARK    5  A    between atoms: C_11  and  N_12
REMARK    6  A    between atoms: C_13  and  C_15
REMARK                            x       y       z     vdW  Elec       q    Type
REMARK                         _______ _______ _______ _____ _____    ______ ____
ROOT
ATOM      1  C   UNL     1       7.566   5.403  18.491  0.00  0.00    +0.000 C 
ENDROOT
BRANCH   1   7
ATOM      2  C   UNL     1       2.310   2.680  19.350  0.00  0.00    +0.000 A 
ATOM      3  N   UNL     1       2.686   2.010  18.280  0.00  0.00    +0.000 NA
ATOM      4  N   UNL     1       3.927   2.419  17.825  0.00  0.00    +0.000 NA
ATOM      5  C   UNL     1       4.415   3.406  18.543  0.00  0.00    +0.000 A 
ATOM      6  N   UNL     1       5.648   3.964  18.301  0.00  0.00    +0.000 N 
ATOM      7  C   UNL     1       6.147   5.095  18.904  0.00  0.00    +0.000 C 
ATOM      8  O   UNL     1       5.541   5.844  19.660  0.00  0.00    +0.000 OA
ATOM      9  S   UNL     1       3.425   3.883  19.845  0.00  0.00    +0.000 S 
ATOM     10  H   UNL     1       6.178   3.495  17.579  0.00  0.00    +0.000 HD
BRANCH   2  12
ATOM     11  C   UNL     1       1.279   2.685  21.609  0.00  0.00    +0.000 C 
ATOM     12  C   UNL     1       1.058   2.439  20.123  0.00  0.00    +0.000 C 
ENDBRANCH   2  12
ENDBRANCH   1   7
BRANCH   1  13
ATOM     13  C   UNL     1       7.554   6.316  17.267  0.00  0.00    +0.000 C 
BRANCH  13  14
ATOM     14  N   UNL     1       7.499   5.590  16.015  0.00  0.00    +0.000 N 
ATOM     15  C   UNL     1       6.410   5.664  15.175  0.00  0.00    +0.000 C 
ATOM     16  O   UNL     1       5.471   6.429  15.369  0.00  0.00    +0.000 OA
ATOM     17  H   UNL     1       8.159   4.831  15.887  0.00  0.00    +0.000 HD
BRANCH  15  18
ATOM     18  C   UNL     1       6.442   4.828  13.946  0.00  0.00    +0.000 A 
ATOM     19  C   UNL     1       5.398   3.895  13.817  0.00  0.00    +0.000 A 
ATOM     20  C   UNL     1       5.305   3.079  12.690  0.00  0.00    +0.000 A 
ATOM     21  C   UNL     1       6.259   3.179  11.682  0.00  0.00    +0.000 A 
ATOM     22  C   UNL     1       7.311   4.089  11.807  0.00  0.00    +0.000 A 
ATOM     23  C   UNL     1       7.411   4.910  12.937  0.00  0.00    +0.000 A 
ATOM     24 CL   UNL     1       8.784   5.960  13.008  0.00  0.00    +0.000 Cl
ENDBRANCH  15  18
ENDBRANCH  13  14
ENDBRANCH   1  13
TORSDOF 5
ENDMDL
MODEL 6
REMARK VINA RESULT:      -7.5      5.033      8.674
REMARK  Name = 
REMARK  6 active torsions:
REMARK  status: ('A' for Active; 'I' for Inactive)
REMARK    1  A    between atoms: C_1  and  C_2
REMARK    2  A    between atoms: C_2  and  C_3
REMARK    3  A    between atoms: C_8  and  C_10
REMARK    4  A    between atoms: C_10  and  C_11
REMARK    5  A    between atoms: C_11  and  N_12
REMARK    6  A    between atoms: C_13  and  C_15
REMARK                            x       y       z     vdW  Elec       q    Type
REMARK                         _______ _______ _______ _____ _____    ______ ____
ROOT
ATOM      1  C   UNL     1       7.812   6.595  18.577  0.00  0.00    +0.000 C 
ENDROOT
BRANCH   1   7
ATOM      2  C   UNL     1       2.976   3.115  19.103  0.00  0.00    +0.000 A 
ATOM      3  N   UNL     1       3.846   2.297  19.660  0.00  0.00    +0.000 NA
ATOM      4  N   UNL     1       5.116   2.846  19.700  0.00  0.00    +0.000 NA
ATOM      5  C   UNL     1       5.160   4.032  19.136  0.00  0.00    +0.000 A 
ATOM      6  N   UNL     1       6.306   4.788  19.078  0.00  0.00    +0.000 N 
ATOM      7  C   UNL     1       6.461   5.955  18.368  0.00  0.00    +0.000 C 
ATOM      8  O   UNL     1       5.651   6.447  17.592  0.00  0.00    +0.000 OA
ATOM      9  S   UNL     1       3.658   4.586  18.552  0.00  0.00    +0.000 S 
ATOM     10  H   UNL     1       7.089   4.388  19.579  0.00  0.00    +0.000 HD
BRANCH   2  12
ATOM     11  C   UNL     1       0.749   3.394  20.165  0.00  0.00    +0.000 C 
ATOM     12  C   UNL     1       1.514   2.855  18.965  0.00  0.00    +0.000 C 
ENDBRANCH   2  12
ENDBRANCH   1   7
BRANCH   1  13
ATOM     13  C   UNL     1       7.828   7.976  17.925  0.00  0.00    +0.000 C 
BRANCH  13  14
ATOM     14  N   UNL     1       8.825   8.861  18.491  0.00  0.00    +0.000 N 
ATOM     15  C   UNL     1       8.810  10.219  18.262  0.00  0.00    +0.000 C 
ATOM     16  O   UNL     1       7.899  10.783  17.665  0.00  0.00    +0.000 OA
ATOM     17  H   UNL     1       9.676   8.439  18.847  0.00  0.00    +0.000 HD
BRANCH  15  18
ATOM     18  C   UNL     1       9.918  11.019  18.847  0.00  0.00    +0.000 A 
ATOM     19  C   UNL     1      10.954  11.363  17.961  0.00  0.00    +0.000 A 
ATOM     20  C   UNL     1      12.031  12.140  18.388  0.00  0.00    +0.000 A 
ATOM     21  C   UNL     1      12.089  12.575  19.708  0.00  0.00    +0.000 A 
ATOM     22  C   UNL     1      11.076  12.225  20.602  0.00  0.00    +0.000 A 
ATOM     23  C   UNL     1       9.993  11.444  20.181  0.00  0.00    +0.000 A 
ATOM     24 CL   UNL     1       8.826  11.028  21.386  0.00  0.00    +0.000 Cl
ENDBRANCH  15  18
ENDBRANCH  13  14
ENDBRANCH   1  13
TORSDOF 5
ENDMDL
MODEL 7
REMARK VINA RESULT:      -7.5      1.235      1.381
REMARK  Name = 
REMARK  6 active torsions:
REMARK  status: ('A' for Active; 'I' for Inactive)
REMARK    1  A    between atoms: C_1  and  C_2
REMARK    2  A    between atoms: C_2  and  C_3
REMARK    3  A    between atoms: C_8  and  C_10
REMARK    4  A    between atoms: C_10  and  C_11
REMARK    5  A    between atoms: C_11  and  N_12
REMARK    6  A    between atoms: C_13  and  C_15
REMARK                            x       y       z     vdW  Elec       q    Type
REMARK                         _______ _______ _______ _____ _____    ______ ____
ROOT
ATOM      1  C   UNL     1       6.698   6.763  17.514  0.00  0.00    +0.000 C 
ENDROOT
BRANCH   1   7
ATOM      2  C   UNL     1       6.222   3.580  12.472  0.00  0.00    +0.000 A 
ATOM      3  N   UNL     1       7.352   4.196  12.189  0.00  0.00    +0.000 NA
ATOM      4  N   UNL     1       7.751   5.036  13.213  0.00  0.00    +0.000 NA
ATOM      5  C   UNL     1       6.889   5.051  14.206  0.00  0.00    +0.000 A 
ATOM      6  N   UNL     1       7.082   5.788  15.349  0.00  0.00    +0.000 N 
ATOM      7  C   UNL     1       6.154   5.975  16.347  0.00  0.00    +0.000 C 
ATOM      8  O   UNL     1       4.985   5.613  16.329  0.00  0.00    +0.000 OA
ATOM      9  S   UNL     1       5.552   4.017  13.987  0.00  0.00    +0.000 S 
ATOM     10  H   UNL     1       7.980   6.251  15.394  0.00  0.00    +0.000 HD
BRANCH   2  12
ATOM     11  C   UNL     1       6.542   1.485  11.178  0.00  0.00    +0.000 C 
ATOM     12  C   UNL     1       5.556   2.561  11.611  0.00  0.00    +0.000 C 
ENDBRANCH   2  12
ENDBRANCH   1   7
BRANCH   1  13
ATOM     13  C   UNL     1       6.878   5.837  18.715  0.00  0.00    +0.000 C 
BRANCH  13  14
ATOM     14  N   UNL     1       5.624   5.457  19.333  0.00  0.00    +0.000 N 
ATOM     15  C   UNL     1       5.080   4.203  19.170  0.00  0.00    +0.000 C 
ATOM     16  O   UNL     1       5.666   3.293  18.592  0.00  0.00    +0.000 OA
ATOM     17  H   UNL     1       5.029   6.203  19.676  0.00  0.00    +0.000 HD
BRANCH  15  18
ATOM     18  C   UNL     1       3.760   3.947  19.804  0.00  0.00    +0.000 A 
ATOM     19  C   UNL     1       2.771   4.918  19.564  0.00  0.00    +0.000 A 
ATOM     20  C   UNL     1       1.484   4.769  20.080  0.00  0.00    +0.000 A 
ATOM     21  C   UNL     1       1.172   3.652  20.849  0.00  0.00    +0.000 A 
ATOM     22  C   UNL     1       2.149   2.691  21.110  0.00  0.00    +0.000 A 
ATOM     23  C   UNL     1       3.444   2.835  20.597  0.00  0.00    +0.000 A 
ATOM     24 CL   UNL     1       4.586   1.610  21.028  0.00  0.00    +0.000 Cl
ENDBRANCH  15  18
ENDBRANCH  13  14
ENDBRANCH   1  13
TORSDOF 5
ENDMDL
MODEL 8
REMARK VINA RESULT:      -7.5      1.182      1.334
REMARK  Name = 
REMARK  6 active torsions:
REMARK  status: ('A' for Active; 'I' for Inactive)
REMARK    1  A    between atoms: C_1  and  C_2
REMARK    2  A    between atoms: C_2  and  C_3
REMARK    3  A    between atoms: C_8  and  C_10
REMARK    4  A    between atoms: C_10  and  C_11
REMARK    5  A    between atoms: C_11  and  N_12
REMARK    6  A    between atoms: C_13  and  C_15
REMARK                            x       y       z     vdW  Elec       q    Type
REMARK                         _______ _______ _______ _____ _____    ______ ____
ROOT
ATOM      1  C   UNL     1       7.167   5.759  17.808  0.00  0.00    +0.000 C 
ENDROOT
BRANCH   1   7
ATOM      2  C   UNL     1       6.221   3.619  12.303  0.00  0.00    +0.000 A 
ATOM      3  N   UNL     1       7.255   4.385  12.021  0.00  0.00    +0.000 NA
ATOM      4  N   UNL     1       7.733   5.037  13.144  0.00  0.00    +0.000 NA
ATOM      5  C   UNL     1       7.018   4.770  14.214  0.00  0.00    +0.000 A 
ATOM      6  N   UNL     1       7.315   5.279  15.455  0.00  0.00    +0.000 N 
ATOM      7  C   UNL     1       6.523   5.172  16.575  0.00  0.00    +0.000 C 
ATOM      8  O   UNL     1       5.390   4.710  16.623  0.00  0.00    +0.000 OA
ATOM      9  S   UNL     1       5.738   3.677  13.945  0.00  0.00    +0.000 S 
ATOM     10  H   UNL     1       8.176   5.808  15.489  0.00  0.00    +0.000 HD
BRANCH   2  12
ATOM     11  C   UNL     1       4.056   3.140  11.185  0.00  0.00    +0.000 C 
ATOM     12  C   UNL     1       5.515   2.733  11.333  0.00  0.00    +0.000 C 
ENDBRANCH   2  12
ENDBRANCH   1   7
BRANCH   1  13
ATOM     13  C   UNL     1       6.088   6.344  18.716  0.00  0.00    +0.000 C 
BRANCH  13  14
ATOM     14  N   UNL     1       5.107   5.366  19.138  0.00  0.00    +0.000 N 
ATOM     15  C   UNL     1       3.767   5.670  19.233  0.00  0.00    +0.000 C 
ATOM     16  O   UNL     1       3.300   6.742  18.864  0.00  0.00    +0.000 OA
ATOM     17  H   UNL     1       5.450   4.533  19.604  0.00  0.00    +0.000 HD
BRANCH  15  18
ATOM     18  C   UNL     1       2.862   4.602  19.733  0.00  0.00    +0.000 A 
ATOM     19  C   UNL     1       2.788   4.472  21.132  0.00  0.00    +0.000 A 
ATOM     20  C   UNL     1       1.947   3.526  21.718  0.00  0.00    +0.000 A 
ATOM     21  C   UNL     1       1.176   2.693  20.913  0.00  0.00    +0.000 A 
ATOM     22  C   UNL     1       1.254   2.800  19.524  0.00  0.00    +0.000 A 
ATOM     23  C   UNL     1       2.098   3.746  18.928  0.00  0.00    +0.000 A 
ATOM     24 CL   UNL     1       2.153   3.752  17.200  0.00  0.00    +0.000 Cl
ENDBRANCH  15  18
ENDBRANCH  13  14
ENDBRANCH   1  13
TORSDOF 5
ENDMDL
MODEL 9
REMARK VINA RESULT:      -7.4      3.357      4.627
REMARK  Name = 
REMARK  6 active torsions:
REMARK  status: ('A' for Active; 'I' for Inactive)
REMARK    1  A    between atoms: C_1  and  C_2
REMARK    2  A    between atoms: C_2  and  C_3
REMARK    3  A    between atoms: C_8  and  C_10
REMARK    4  A    between atoms: C_10  and  C_11
REMARK    5  A    between atoms: C_11  and  N_12
REMARK    6  A    between atoms: C_13  and  C_15
REMARK                            x       y       z     vdW  Elec       q    Type
REMARK                         _______ _______ _______ _____ _____    ______ ____
ROOT
ATOM      1  C   UNL     1       3.655   2.573  20.524  0.00  0.00    +0.000 C 
ENDROOT
BRANCH   1   7
ATOM      2  C   UNL     1       6.774   4.607  15.843  0.00  0.00    +0.000 A 
ATOM      3  N   UNL     1       7.621   4.959  16.789  0.00  0.00    +0.000 NA
ATOM      4  N   UNL     1       7.169   4.598  18.045  0.00  0.00    +0.000 NA
ATOM      5  C   UNL     1       5.985   4.030  18.000  0.00  0.00    +0.000 A 
ATOM      6  N   UNL     1       5.341   3.560  19.120  0.00  0.00    +0.000 N 
ATOM      7  C   UNL     1       4.043   3.105  19.166  0.00  0.00    +0.000 C 
ATOM      8  O   UNL     1       3.225   3.148  18.255  0.00  0.00    +0.000 OA
ATOM      9  S   UNL     1       5.352   3.854  16.428  0.00  0.00    +0.000 S 
ATOM     10  H   UNL     1       5.891   3.615  19.966  0.00  0.00    +0.000 HD
BRANCH   2  12
ATOM     11  C   UNL     1       5.973   3.997  13.574  0.00  0.00    +0.000 C 
ATOM     12  C   UNL     1       6.991   4.790  14.379  0.00  0.00    +0.000 C 
ENDBRANCH   2  12
ENDBRANCH   1   7
BRANCH   1  13
ATOM     13  C   UNL     1       2.841   3.628  21.271  0.00  0.00    +0.000 C 
BRANCH  13  14
ATOM     14  N   UNL     1       2.883   4.931  20.639  0.00  0.00    +0.000 N 
ATOM     15  C   UNL     1       1.739   5.584  20.238  0.00  0.00    +0.000 C 
ATOM     16  O   UNL     1       0.613   5.168  20.487  0.00  0.00    +0.000 OA
ATOM     17  H   UNL     1       3.774   5.240  20.267  0.00  0.00    +0.000 HD
BRANCH  15  18
ATOM     18  C   UNL     1       1.909   6.890  19.548  0.00  0.00    +0.000 A 
ATOM     19  C   UNL     1       2.506   6.833  18.276  0.00  0.00    +0.000 A 
ATOM     20  C   UNL     1       2.688   7.991  17.519  0.00  0.00    +0.000 A 
ATOM     21  C   UNL     1       2.282   9.220  18.029  0.00  0.00    +0.000 A 
ATOM     22  C   UNL     1       1.705   9.293  19.297  0.00  0.00    +0.000 A 
ATOM     23  C   UNL     1       1.521   8.135  20.063  0.00  0.00    +0.000 A 
ATOM     24 CL   UNL     1       0.846   8.351  21.640  0.00  0.00    +0.000 Cl
ENDBRANCH  15  18
ENDBRANCH  13  14
ENDBRANCH   1  13
TORSDOF 5
ENDMDL
