MODEL 1
REMARK VINA RESULT:      -7.7      0.000      0.000
REMARK  Name = 
REMARK  4 active torsions:
REMARK  status: ('A' for Active; 'I' for Inactive)
REMARK    1  A    between atoms: C_1  and  C_2
REMARK    2  A    between atoms: C_7  and  C_8
REMARK    3  A    between atoms: C_8  and  C_9
REMARK    4  A    between atoms: C_9  and  C_10
REMARK                            x       y       z     vdW  Elec       q    Type
REMARK                         _______ _______ _______ _____ _____    ______ ____
ROOT
ATOM      1  C   UNL     1       1.407   2.574  21.801  0.00  0.00    +0.000 C 
ATOM      2  C   UNL     1       1.979   3.381  20.672  0.00  0.00    +0.000 A 
ATOM      3  C   UNL     1       1.749   4.763  20.595  0.00  0.00    +0.000 A 
ATOM      4  C   UNL     1       2.261   5.536  19.547  0.00  0.00    +0.000 A 
ATOM      5  C   UNL     1       3.017   4.863  18.588  0.00  0.00    +0.000 A 
ATOM      6  N   UNL     1       3.643   5.290  17.449  0.00  0.00    +0.000 N 
ATOM      7  C   UNL     1       4.286   4.221  16.873  0.00  0.00    +0.000 A 
ATOM      8  N   UNL     1       4.066   3.122  17.569  0.00  0.00    +0.000 NA
ATOM      9  C   UNL     1       3.282   3.502  18.633  0.00  0.00    +0.000 A 
ATOM     10  C   UNL     1       2.753   2.740  19.686  0.00  0.00    +0.000 A 
ATOM     11  H   UNL     1       3.642   6.239  17.108  0.00  0.00    +0.000 HD
ENDROOT
BRANCH   7  12
ATOM     12  C   UNL     1       5.082   4.323  15.609  0.00  0.00    +0.000 C 
BRANCH  12  13
ATOM     13  C   UNL     1       6.590   4.204  15.843  0.00  0.00    +0.000 C 
BRANCH  13  14
ATOM     14  C   UNL     1       7.104   5.192  16.857  0.00  0.00    +0.000 A 
ATOM     15  C   UNL     1       7.590   4.748  18.095  0.00  0.00    +0.000 A 
ATOM     16  C   UNL     1       8.077   5.660  19.030  0.00  0.00    +0.000 A 
ATOM     17  C   UNL     1       8.077   7.023  18.740  0.00  0.00    +0.000 A 
ATOM     18  C   UNL     1       7.590   7.475  17.515  0.00  0.00    +0.000 A 
ATOM     19  C   UNL     1       7.102   6.564  16.577  0.00  0.00    +0.000 A 
ENDBRANCH  13  14
ENDBRANCH  12  13
ENDBRANCH   7  12
TORSDOF 3
ENDMDL
MODEL 2
REMARK VINA RESULT:      -7.7      1.242      5.858
REMARK  Name = 
REMARK  4 active torsions:
REMARK  status: ('A' for Active; 'I' for Inactive)
REMARK    1  A    between atoms: C_1  and  C_2
REMARK    2  A    between atoms: C_7  and  C_8
REMARK    3  A    between atoms: C_8  and  C_9
REMARK    4  A    between atoms: C_9  and  C_10
REMARK                            x       y       z     vdW  Elec       q    Type
REMARK                         _______ _______ _______ _____ _____    ______ ____
ROOT
ATOM      1  C   UNL     1       8.202   8.805  17.785  0.00  0.00    +0.000 C 
ATOM      2  C   UNL     1       7.512   7.478  17.916  0.00  0.00    +0.000 A 
ATOM      3  C   UNL     1       8.039   6.479  18.750  0.00  0.00    +0.000 A 
ATOM      4  C   UNL     1       7.421   5.230  18.881  0.00  0.00    +0.000 A 
ATOM      5  C   UNL     1       6.255   5.032  18.145  0.00  0.00    +0.000 A 
ATOM      6  N   UNL     1       5.419   3.955  18.023  0.00  0.00    +0.000 N 
ATOM      7  C   UNL     1       4.381   4.296  17.189  0.00  0.00    +0.000 A 
ATOM      8  N   UNL     1       4.537   5.526  16.739  0.00  0.00    +0.000 NA
ATOM      9  C   UNL     1       5.692   5.996  17.320  0.00  0.00    +0.000 A 
ATOM     10  C   UNL     1       6.328   7.240  17.194  0.00  0.00    +0.000 A 
ATOM     11  H   UNL     1       5.542   3.070  18.489  0.00  0.00    +0.000 HD
ENDROOT
BRANCH   7  12
ATOM     12  C   UNL     1       3.269   3.358  16.835  0.00  0.00    +0.000 C 
BRANCH  12  13
ATOM     13  C   UNL     1       1.928   3.764  17.449  0.00  0.00    +0.000 C 
BRANCH  13  14
ATOM     14  C   UNL     1       1.908   3.632  18.949  0.00  0.00    +0.000 A 
ATOM     15  C   UNL     1       1.844   2.366  19.548  0.00  0.00    +0.000 A 
ATOM     16  C   UNL     1       1.837   2.242  20.937  0.00  0.00    +0.000 A 
ATOM     17  C   UNL     1       1.888   3.380  21.740  0.00  0.00    +0.000 A 
ATOM     18  C   UNL     1       1.944   4.643  21.153  0.00  0.00    +0.000 A 
ATOM     19  C   UNL     1       1.951   4.771  19.764  0.00  0.00    +0.000 A 
ENDBRANCH  13  14
ENDBRANCH  12  13
ENDBRANCH   7  12
TORSDOF 3
ENDMDL
MODEL 3
REMARK VINA RESULT:      -7.7      1.513      6.005
REMARK  Name = 
REMARK  4 active torsions:
REMARK  status: ('A' for Active; 'I' for Inactive)
REMARK    1  A    between atoms: C_1  and  C_2
REMARK    2  A    between atoms: C_7  and  C_8
REMARK    3  A    between atoms: C_8  and  C_9
REMARK    4  A    between atoms: C_9  and  C_10
REMARK                            x       y       z     vdW  Elec       q    Type
REMARK                         _______ _______ _______ _____ _____    ______ ____
ROOT
ATOM      1  C   UNL     1       8.319   9.121  17.831  0.00  0.00    +0.000 C 
ATOM      2  C   UNL     1       7.683   7.768  17.967  0.00  0.00    +0.000 A 
ATOM      3  C   UNL     1       8.220   6.811  18.842  0.00  0.00    +0.000 A 
ATOM      4  C   UNL     1       7.653   5.540  18.979  0.00  0.00    +0.000 A 
ATOM      5  C   UNL     1       6.523   5.275  18.206  0.00  0.00    +0.000 A 
ATOM      6  N   UNL     1       5.739   4.161  18.079  0.00  0.00    +0.000 N 
ATOM      7  C   UNL     1       4.720   4.437  17.201  0.00  0.00    +0.000 A 
ATOM      8  N   UNL     1       4.839   5.664  16.728  0.00  0.00    +0.000 NA
ATOM      9  C   UNL     1       5.950   6.195  17.339  0.00  0.00    +0.000 A 
ATOM     10  C   UNL     1       6.537   7.463  17.208  0.00  0.00    +0.000 A 
ATOM     11  H   UNL     1       5.884   3.292  18.569  0.00  0.00    +0.000 HD
ENDROOT
BRANCH   7  12
ATOM     12  C   UNL     1       3.663   3.444  16.828  0.00  0.00    +0.000 C 
BRANCH  12  13
ATOM     13  C   UNL     1       3.606   2.248  17.781  0.00  0.00    +0.000 C 
BRANCH  13  14
ATOM     14  C   UNL     1       2.767   2.515  19.003  0.00  0.00    +0.000 A 
ATOM     15  C   UNL     1       3.342   2.467  20.281  0.00  0.00    +0.000 A 
ATOM     16  C   UNL     1       2.569   2.724  21.413  0.00  0.00    +0.000 A 
ATOM     17  C   UNL     1       1.215   3.025  21.279  0.00  0.00    +0.000 A 
ATOM     18  C   UNL     1       0.633   3.067  20.014  0.00  0.00    +0.000 A 
ATOM     19  C   UNL     1       1.404   2.810  18.879  0.00  0.00    +0.000 A 
ENDBRANCH  13  14
ENDBRANCH  12  13
ENDBRANCH   7  12
TORSDOF 3
ENDMDL
MODEL 4
REMARK VINA RESULT:      -7.6      1.212      5.883
REMARK  Name = 
REMARK  4 active torsions:
REMARK  status: ('A' for Active; 'I' for Inactive)
REMARK    1  A    between atoms: C_1  and  C_2
REMARK    2  A    between atoms: C_7  and  C_8
REMARK    3  A    between atoms: C_8  and  C_9
REMARK    4  A    between atoms: C_9  and  C_10
REMARK                            x       y       z     vdW  Elec       q    Type
REMARK                         _______ _______ _______ _____ _____    ______ ____
ROOT
ATOM      1  C   UNL     1       8.106   8.627  17.659  0.00  0.00    +0.000 C 
ATOM      2  C   UNL     1       7.420   7.301  17.820  0.00  0.00    +0.000 A 
ATOM      3  C   UNL     1       7.960   6.317  18.662  0.00  0.00    +0.000 A 
ATOM      4  C   UNL     1       7.347   5.069  18.821  0.00  0.00    +0.000 A 
ATOM      5  C   UNL     1       6.171   4.857  18.104  0.00  0.00    +0.000 A 
ATOM      6  N   UNL     1       5.335   3.777  18.011  0.00  0.00    +0.000 N 
ATOM      7  C   UNL     1       4.285   4.102  17.187  0.00  0.00    +0.000 A 
ATOM      8  N   UNL     1       4.433   5.326  16.715  0.00  0.00    +0.000 NA
ATOM      9  C   UNL     1       5.594   5.807  17.272  0.00  0.00    +0.000 A 
ATOM     10  C   UNL     1       6.227   7.049  17.118  0.00  0.00    +0.000 A 
ATOM     11  H   UNL     1       5.467   2.900  18.489  0.00  0.00    +0.000 HD
ENDROOT
BRANCH   7  12
ATOM     12  C   UNL     1       3.171   3.157  16.862  0.00  0.00    +0.000 C 
BRANCH  12  13
ATOM     13  C   UNL     1       1.838   3.568  17.493  0.00  0.00    +0.000 C 
BRANCH  13  14
ATOM     14  C   UNL     1       1.879   3.566  18.999  0.00  0.00    +0.000 A 
ATOM     15  C   UNL     1       2.093   4.760  19.702  0.00  0.00    +0.000 A 
ATOM     16  C   UNL     1       2.120   4.763  21.096  0.00  0.00    +0.000 A 
ATOM     17  C   UNL     1       1.941   3.573  21.800  0.00  0.00    +0.000 A 
ATOM     18  C   UNL     1       1.735   2.380  21.109  0.00  0.00    +0.000 A 
ATOM     19  C   UNL     1       1.708   2.374  19.713  0.00  0.00    +0.000 A 
ENDBRANCH  13  14
ENDBRANCH  12  13
ENDBRANCH   7  12
TORSDOF 3
ENDMDL
MODEL 5
REMARK VINA RESULT:      -7.5      0.235      1.162
REMARK  Name = 
REMARK  4 active torsions:
REMARK  status: ('A' for Active; 'I' for Inactive)
REMARK    1  A    between atoms: C_1  and  C_2
REMARK    2  A    between atoms: C_7  and  C_8
REMARK    3  A    between atoms: C_8  and  C_9
REMARK    4  A    between atoms: C_9  and  C_10
REMARK                            x       y       z     vdW  Elec       q    Type
REMARK                         _______ _______ _______ _____ _____    ______ ____
ROOT
ATOM      1  C   UNL     1       1.299   2.377  21.871  0.00  0.00    +0.000 C 
ATOM      2  C   UNL     1       1.958   3.221  20.819  0.00  0.00    +0.000 A 
ATOM      3  C   UNL     1       1.955   4.620  20.922  0.00  0.00    +0.000 A 
ATOM      4  C   UNL     1       2.553   5.430  19.950  0.00  0.00    +0.000 A 
ATOM      5  C   UNL     1       3.154   4.775  18.877  0.00  0.00    +0.000 A 
ATOM      6  N   UNL     1       3.803   5.239  17.766  0.00  0.00    +0.000 N 
ATOM      7  C   UNL     1       4.242   4.165  17.030  0.00  0.00    +0.000 A 
ATOM      8  N   UNL     1       3.868   3.034  17.599  0.00  0.00    +0.000 NA
ATOM      9  C   UNL     1       3.193   3.394  18.742  0.00  0.00    +0.000 A 
ATOM     10  C   UNL     1       2.582   2.597  19.722  0.00  0.00    +0.000 A 
ATOM     11  H   UNL     1       3.947   6.212  17.543  0.00  0.00    +0.000 HD
ENDROOT
BRANCH   7  12
ATOM     12  C   UNL     1       5.001   4.301  15.747  0.00  0.00    +0.000 C 
BRANCH  12  13
ATOM     13  C   UNL     1       6.514   4.162  15.933  0.00  0.00    +0.000 C 
BRANCH  13  14
ATOM     14  C   UNL     1       7.080   5.169  16.899  0.00  0.00    +0.000 A 
ATOM     15  C   UNL     1       7.060   6.537  16.590  0.00  0.00    +0.000 A 
ATOM     16  C   UNL     1       7.573   7.471  17.489  0.00  0.00    +0.000 A 
ATOM     17  C   UNL     1       8.115   7.048  18.701  0.00  0.00    +0.000 A 
ATOM     18  C   UNL     1       8.145   5.691  19.014  0.00  0.00    +0.000 A 
ATOM     19  C   UNL     1       7.633   4.753  18.117  0.00  0.00    +0.000 A 
ENDBRANCH  13  14
ENDBRANCH  12  13
ENDBRANCH   7  12
TORSDOF 3
ENDMDL
MODEL 6
REMARK VINA RESULT:      -7.3      1.999      3.483
REMARK  Name = 
REMARK  4 active torsions:
REMARK  status: ('A' for Active; 'I' for Inactive)
REMARK    1  A    between atoms: C_1  and  C_2
REMARK    2  A    between atoms: C_7  and  C_8
REMARK    3  A    between atoms: C_8  and  C_9
REMARK    4  A    between atoms: C_9  and  C_10
REMARK                            x       y       z     vdW  Elec       q    Type
REMARK                         _______ _______ _______ _____ _____    ______ ____
ROOT
ATOM      1  C   UNL     1       1.484   2.667  21.732  0.00  0.00    +0.000 C 
ATOM      2  C   UNL     1       2.002   2.941  20.350  0.00  0.00    +0.000 A 
ATOM      3  C   UNL     1       1.633   2.118  19.274  0.00  0.00    +0.000 A 
ATOM      4  C   UNL     1       2.110   2.346  17.978  0.00  0.00    +0.000 A 
ATOM      5  C   UNL     1       2.965   3.434  17.811  0.00  0.00    +0.000 A 
ATOM      6  N   UNL     1       3.615   3.929  16.714  0.00  0.00    +0.000 N 
ATOM      7  C   UNL     1       4.314   5.053  17.086  0.00  0.00    +0.000 A 
ATOM      8  N   UNL     1       4.174   5.274  18.379  0.00  0.00    +0.000 NA
ATOM      9  C   UNL     1       3.344   4.281  18.843  0.00  0.00    +0.000 A 
ATOM     10  C   UNL     1       2.862   4.034  20.137  0.00  0.00    +0.000 A 
ATOM     11  H   UNL     1       3.566   3.539  15.786  0.00  0.00    +0.000 HD
ENDROOT
BRANCH   7  12
ATOM     12  C   UNL     1       5.139   5.861  16.133  0.00  0.00    +0.000 C 
BRANCH  12  13
ATOM     13  C   UNL     1       6.520   5.253  15.876  0.00  0.00    +0.000 C 
BRANCH  13  14
ATOM     14  C   UNL     1       6.713   4.823  14.446  0.00  0.00    +0.000 A 
ATOM     15  C   UNL     1       5.961   3.764  13.917  0.00  0.00    +0.000 A 
ATOM     16  C   UNL     1       6.130   3.373  12.590  0.00  0.00    +0.000 A 
ATOM     17  C   UNL     1       7.055   4.031  11.780  0.00  0.00    +0.000 A 
ATOM     18  C   UNL     1       7.812   5.079  12.300  0.00  0.00    +0.000 A 
ATOM     19  C   UNL     1       7.646   5.474  13.628  0.00  0.00    +0.000 A 
ENDBRANCH  13  14
ENDBRANCH  12  13
ENDBRANCH   7  12
TORSDOF 3
ENDMDL
MODEL 7
REMARK VINA RESULT:      -7.2      1.938      3.306
REMARK  Name = 
REMARK  4 active torsions:
REMARK  status: ('A' for Active; 'I' for Inactive)
REMARK    1  A    between atoms: C_1  and  C_2
REMARK    2  A    between atoms: C_7  and  C_8
REMARK    3  A    between atoms: C_8  and  C_9
REMARK    4  A    between atoms: C_9  and  C_10
REMARK                            x       y       z     vdW  Elec       q    Type
REMARK                         _______ _______ _______ _____ _____    ______ ____
ROOT
ATOM      1  C   UNL     1       1.270   2.748  21.258  0.00  0.00    +0.000 C 
ATOM      2  C   UNL     1       1.893   3.845  20.443  0.00  0.00    +0.000 A 
ATOM      3  C   UNL     1       1.614   5.190  20.728  0.00  0.00    +0.000 A 
ATOM      4  C   UNL     1       2.172   6.231  19.977  0.00  0.00    +0.000 A 
ATOM      5  C   UNL     1       3.023   5.862  18.937  0.00  0.00    +0.000 A 
ATOM      6  N   UNL     1       3.714   6.597  18.012  0.00  0.00    +0.000 N 
ATOM      7  C   UNL     1       4.440   5.739  17.221  0.00  0.00    +0.000 A 
ATOM      8  N   UNL     1       4.212   4.487  17.570  0.00  0.00    +0.000 NA
ATOM      9  C   UNL     1       3.337   4.545  18.629  0.00  0.00    +0.000 A 
ATOM     10  C   UNL     1       2.762   3.514  19.387  0.00  0.00    +0.000 A 
ATOM     11  H   UNL     1       3.701   7.602  17.945  0.00  0.00    +0.000 HD
ENDROOT
BRANCH   7  12
ATOM     12  C   UNL     1       5.323   6.200  16.103  0.00  0.00    +0.000 C 
BRANCH  12  13
ATOM     13  C   UNL     1       6.536   5.291  15.889  0.00  0.00    +0.000 C 
BRANCH  13  14
ATOM     14  C   UNL     1       6.660   4.807  14.468  0.00  0.00    +0.000 A 
ATOM     15  C   UNL     1       5.801   3.811  13.982  0.00  0.00    +0.000 A 
ATOM     16  C   UNL     1       5.907   3.370  12.664  0.00  0.00    +0.000 A 
ATOM     17  C   UNL     1       6.875   3.914  11.822  0.00  0.00    +0.000 A 
ATOM     18  C   UNL     1       7.738   4.899  12.298  0.00  0.00    +0.000 A 
ATOM     19  C   UNL     1       7.634   5.343  13.617  0.00  0.00    +0.000 A 
ENDBRANCH  13  14
ENDBRANCH  12  13
ENDBRANCH   7  12
TORSDOF 3
ENDMDL
MODEL 8
REMARK VINA RESULT:      -7.1      1.823      3.259
REMARK  Name = 
REMARK  4 active torsions:
REMARK  status: ('A' for Active; 'I' for Inactive)
REMARK    1  A    between atoms: C_1  and  C_2
REMARK    2  A    between atoms: C_7  and  C_8
REMARK    3  A    between atoms: C_8  and  C_9
REMARK    4  A    between atoms: C_9  and  C_10
REMARK                            x       y       z     vdW  Elec       q    Type
REMARK                         _______ _______ _______ _____ _____    ______ ____
ROOT
ATOM      1  C   UNL     1       1.302   2.803  21.448  0.00  0.00    +0.000 C 
ATOM      2  C   UNL     1       2.149   3.551  20.459  0.00  0.00    +0.000 A 
ATOM      3  C   UNL     1       1.670   4.720  19.849  0.00  0.00    +0.000 A 
ATOM      4  C   UNL     1       2.434   5.429  18.916  0.00  0.00    +0.000 A 
ATOM      5  C   UNL     1       3.698   4.917  18.628  0.00  0.00    +0.000 A 
ATOM      6  N   UNL     1       4.684   5.333  17.775  0.00  0.00    +0.000 N 
ATOM      7  C   UNL     1       5.758   4.485  17.896  0.00  0.00    +0.000 A 
ATOM      8  N   UNL     1       5.488   3.521  18.756  0.00  0.00    +0.000 NA
ATOM      9  C   UNL     1       4.218   3.773  19.217  0.00  0.00    +0.000 A 
ATOM     10  C   UNL     1       3.434   3.070  20.145  0.00  0.00    +0.000 A 
ATOM     11  H   UNL     1       4.629   6.142  17.177  0.00  0.00    +0.000 HD
ENDROOT
BRANCH   7  12
ATOM     12  C   UNL     1       7.024   4.644  17.114  0.00  0.00    +0.000 C 
BRANCH  12  13
ATOM     13  C   UNL     1       6.894   5.651  15.968  0.00  0.00    +0.000 C 
BRANCH  13  14
ATOM     14  C   UNL     1       6.785   4.990  14.619  0.00  0.00    +0.000 A 
ATOM     15  C   UNL     1       5.754   4.077  14.358  0.00  0.00    +0.000 A 
ATOM     16  C   UNL     1       5.645   3.474  13.106  0.00  0.00    +0.000 A 
ATOM     17  C   UNL     1       6.569   3.771  12.106  0.00  0.00    +0.000 A 
ATOM     18  C   UNL     1       7.602   4.671  12.358  0.00  0.00    +0.000 A 
ATOM     19  C   UNL     1       7.714   5.277  13.610  0.00  0.00    +0.000 A 
ENDBRANCH  13  14
ENDBRANCH  12  13
ENDBRANCH   7  12
TORSDOF 3
ENDMDL
MODEL 9
REMARK VINA RESULT:      -7.0      1.481      2.711
REMARK  Name = 
REMARK  4 active torsions:
REMARK  status: ('A' for Active; 'I' for Inactive)
REMARK    1  A    between atoms: C_1  and  C_2
REMARK    2  A    between atoms: C_7  and  C_8
REMARK    3  A    between atoms: C_8  and  C_9
REMARK    4  A    between atoms: C_9  and  C_10
REMARK                            x       y       z     vdW  Elec       q    Type
REMARK                         _______ _______ _______ _____ _____    ______ ____
ROOT
ATOM      1  C   UNL     1       0.703   1.951  19.026  0.00  0.00    +0.000 C 
ATOM      2  C   UNL     1       1.704   3.049  19.239  0.00  0.00    +0.000 A 
ATOM      3  C   UNL     1       1.286   4.330  19.629  0.00  0.00    +0.000 A 
ATOM      4  C   UNL     1       2.198   5.374  19.823  0.00  0.00    +0.000 A 
ATOM      5  C   UNL     1       3.543   5.073  19.613  0.00  0.00    +0.000 A 
ATOM      6  N   UNL     1       4.677   5.834  19.694  0.00  0.00    +0.000 N 
ATOM      7  C   UNL     1       5.763   5.038  19.421  0.00  0.00    +0.000 A 
ATOM      8  N   UNL     1       5.372   3.812  19.127  0.00  0.00    +0.000 NA
ATOM      9  C   UNL     1       4.002   3.817  19.241  0.00  0.00    +0.000 A 
ATOM     10  C   UNL     1       3.073   2.784  19.043  0.00  0.00    +0.000 A 
ATOM     11  H   UNL     1       4.701   6.813  19.936  0.00  0.00    +0.000 HD
ENDROOT
BRANCH   7  12
ATOM     12  C   UNL     1       7.173   5.541  19.426  0.00  0.00    +0.000 C 
BRANCH  12  13
ATOM     13  C   UNL     1       7.510   6.384  18.194  0.00  0.00    +0.000 C 
BRANCH  13  14
ATOM     14  C   UNL     1       6.865   5.865  16.936  0.00  0.00    +0.000 A 
ATOM     15  C   UNL     1       7.366   4.718  16.305  0.00  0.00    +0.000 A 
ATOM     16  C   UNL     1       6.763   4.230  15.146  0.00  0.00    +0.000 A 
ATOM     17  C   UNL     1       5.659   4.886  14.604  0.00  0.00    +0.000 A 
ATOM     18  C   UNL     1       5.159   6.031  15.220  0.00  0.00    +0.000 A 
ATOM     19  C   UNL     1       5.760   6.523  16.380  0.00  0.00    +0.000 A 
ENDBRANCH  13  14
ENDBRANCH  12  13
ENDBRANCH   7  12
TORSDOF 3
ENDMDL
