MODEL 1
REMARK VINA RESULT:      -8.6      0.000      0.000
REMARK  Name = 
REMARK  8 active torsions:
REMARK  status: ('A' for Active; 'I' for Inactive)
REMARK    1  A    between atoms: C_1  and  C_2
REMARK    2  A    between atoms: C_2  and  O_3
REMARK    3  A    between atoms: C_2  and  C_4
REMARK    4  A    between atoms: C_4  and  N_5
REMARK    5  A    between atoms: N_5  and  C_6
REMARK    6  A    between atoms: C_8  and  C_9
REMARK    7  A    between atoms: N_20  and  C_21
REMARK    8  A    between atoms: C_21  and  C_22
REMARK                            x       y       z     vdW  Elec       q    Type
REMARK                         _______ _______ _______ _____ _____    ______ ____
ROOT
ATOM      1  C   UNL     1       7.390   6.305  17.669  0.00  0.00    +0.000 A 
ATOM      2  N   UNL     1       7.389   6.018  16.340  0.00  0.00    +0.000 NA
ATOM      3  C   UNL     1       6.616   5.012  15.860  0.00  0.00    +0.000 A 
ATOM      4  N   UNL     1       5.794   4.217  16.569  0.00  0.00    +0.000 NA
ATOM      5  C   UNL     1       5.842   4.515  17.878  0.00  0.00    +0.000 A 
ATOM      6  C   UNL     1       6.587   5.501  18.496  0.00  0.00    +0.000 A 
ATOM      7  N   UNL     1       6.366   5.450  19.849  0.00  0.00    +0.000 NA
ATOM      8  N   UNL     1       5.542   4.433  20.098  0.00  0.00    +0.000 NA
ATOM      9  N   UNL     1       5.220   3.870  18.910  0.00  0.00    +0.000 N 
ENDROOT
BRANCH   3  10
ATOM     10  C   UNL     1       6.731   4.726  14.423  0.00  0.00    +0.000 A 
ATOM     11  C   UNL     1       7.664   5.412  13.624  0.00  0.00    +0.000 A 
ATOM     12  C   UNL     1       7.802   5.124  12.265  0.00  0.00    +0.000 A 
ATOM     13  C   UNL     1       6.997   4.151  11.677  0.00  0.00    +0.000 A 
ATOM     14  C   UNL     1       6.063   3.462  12.447  0.00  0.00    +0.000 A 
ATOM     15  C   UNL     1       5.936   3.742  13.809  0.00  0.00    +0.000 A 
ENDBRANCH   3  10
BRANCH   1  16
ATOM     16  N   UNL     1       8.206   7.333  18.148  0.00  0.00    +0.000 N 
ATOM     17  H   UNL     1       8.409   7.253  19.143  0.00  0.00    +0.000 HD
BRANCH  16  18
ATOM     18  C   UNL     1       7.818   8.673  17.711  0.00  0.00    +0.000 C 
BRANCH  18  20
ATOM     19  C   UNL     1       8.367  11.127  17.930  0.00  0.00    +0.000 C 
ATOM     20  C   UNL     1       8.864   9.706  18.166  0.00  0.00    +0.000 C 
BRANCH  20  21
ATOM     21  O   UNL     1       9.152   9.543  19.561  0.00  0.00    +0.000 OA
ATOM     22  H   UNL     1       8.573  10.146  20.058  0.00  0.00    +0.000 HD
ENDBRANCH  20  21
ENDBRANCH  18  20
ENDBRANCH  16  18
ENDBRANCH   1  16
BRANCH   9  23
ATOM     23  C   UNL     1       4.554   2.585  18.839  0.00  0.00    +0.000 C 
BRANCH  23  24
ATOM     24  C   UNL     1       3.113   2.630  19.277  0.00  0.00    +0.000 A 
ATOM     25  C   UNL     1       2.774   2.757  20.634  0.00  0.00    +0.000 A 
ATOM     26  C   UNL     1       1.441   2.907  21.022  0.00  0.00    +0.000 A 
ATOM     27  C   UNL     1       0.432   2.923  20.058  0.00  0.00    +0.000 A 
ATOM     28  C   UNL     1       0.753   2.762  18.712  0.00  0.00    +0.000 A 
ATOM     29  C   UNL     1       2.084   2.608  18.324  0.00  0.00    +0.000 A 
ENDBRANCH  23  24
ENDBRANCH   9  23
TORSDOF 7
ENDMDL
MODEL 2
REMARK VINA RESULT:      -8.1      5.395      7.001
REMARK  Name = 
REMARK  8 active torsions:
REMARK  status: ('A' for Active; 'I' for Inactive)
REMARK    1  A    between atoms: C_1  and  C_2
REMARK    2  A    between atoms: C_2  and  O_3
REMARK    3  A    between atoms: C_2  and  C_4
REMARK    4  A    between atoms: C_4  and  N_5
REMARK    5  A    between atoms: N_5  and  C_6
REMARK    6  A    between atoms: C_8  and  C_9
REMARK    7  A    between atoms: N_20  and  C_21
REMARK    8  A    between atoms: C_21  and  C_22
REMARK                            x       y       z     vdW  Elec       q    Type
REMARK                         _______ _______ _______ _____ _____    ______ ____
ROOT
ATOM      1  C   UNL     1       2.551   5.687  20.232  0.00  0.00    +0.000 A 
ATOM      2  N   UNL     1       3.333   5.305  19.187  0.00  0.00    +0.000 NA
ATOM      3  C   UNL     1       3.565   6.161  18.161  0.00  0.00    +0.000 A 
ATOM      4  N   UNL     1       3.101   7.419  18.037  0.00  0.00    +0.000 NA
ATOM      5  C   UNL     1       2.316   7.748  19.075  0.00  0.00    +0.000 A 
ATOM      6  C   UNL     1       1.992   6.975  20.173  0.00  0.00    +0.000 A 
ATOM      7  N   UNL     1       1.140   7.680  20.986  0.00  0.00    +0.000 NA
ATOM      8  N   UNL     1       0.887   8.853  20.404  0.00  0.00    +0.000 NA
ATOM      9  N   UNL     1       1.599   8.898  19.254  0.00  0.00    +0.000 N 
ENDROOT
BRANCH   3  10
ATOM     10  C   UNL     1       4.361   5.640  17.041  0.00  0.00    +0.000 A 
ATOM     11  C   UNL     1       4.968   6.514  16.120  0.00  0.00    +0.000 A 
ATOM     12  C   UNL     1       5.752   6.029  15.072  0.00  0.00    +0.000 A 
ATOM     13  C   UNL     1       5.932   4.656  14.917  0.00  0.00    +0.000 A 
ATOM     14  C   UNL     1       5.336   3.772  15.813  0.00  0.00    +0.000 A 
ATOM     15  C   UNL     1       4.563   4.259  16.869  0.00  0.00    +0.000 A 
ENDBRANCH   3  10
BRANCH   1  16
ATOM     16  N   UNL     1       2.308   4.786  21.271  0.00  0.00    +0.000 N 
ATOM     17  H   UNL     1       3.160   4.423  21.695  0.00  0.00    +0.000 HD
BRANCH  16  18
ATOM     18  C   UNL     1       1.297   3.772  20.976  0.00  0.00    +0.000 C 
BRANCH  18  20
ATOM     19  C   UNL     1       1.681   2.073  19.147  0.00  0.00    +0.000 C 
ATOM     20  C   UNL     1       1.971   2.440  20.598  0.00  0.00    +0.000 C 
BRANCH  20  21
ATOM     21  O   UNL     1       3.390   2.531  20.776  0.00  0.00    +0.000 OA
ATOM     22  H   UNL     1       3.711   1.662  21.070  0.00  0.00    +0.000 HD
ENDBRANCH  20  21
ENDBRANCH  18  20
ENDBRANCH  16  18
ENDBRANCH   1  16
BRANCH   9  23
ATOM     23  C   UNL     1       1.353   9.918  18.254  0.00  0.00    +0.000 C 
BRANCH  23  24
ATOM     24  C   UNL     1      -0.059  10.442  18.264  0.00  0.00    +0.000 A 
ATOM     25  C   UNL     1      -0.371  11.667  18.874  0.00  0.00    +0.000 A 
ATOM     26  C   UNL     1      -1.660  12.198  18.785  0.00  0.00    +0.000 A 
ATOM     27  C   UNL     1      -2.652  11.505  18.092  0.00  0.00    +0.000 A 
ATOM     28  C   UNL     1      -2.365  10.271  17.513  0.00  0.00    +0.000 A 
ATOM     29  C   UNL     1      -1.078   9.738  17.604  0.00  0.00    +0.000 A 
ENDBRANCH  23  24
ENDBRANCH   9  23
TORSDOF 7
ENDMDL
MODEL 3
REMARK VINA RESULT:      -8.1      5.382      7.080
REMARK  Name = 
REMARK  8 active torsions:
REMARK  status: ('A' for Active; 'I' for Inactive)
REMARK    1  A    between atoms: C_1  and  C_2
REMARK    2  A    between atoms: C_2  and  O_3
REMARK    3  A    between atoms: C_2  and  C_4
REMARK    4  A    between atoms: C_4  and  N_5
REMARK    5  A    between atoms: N_5  and  C_6
REMARK    6  A    between atoms: C_8  and  C_9
REMARK    7  A    between atoms: N_20  and  C_21
REMARK    8  A    between atoms: C_21  and  C_22
REMARK                            x       y       z     vdW  Elec       q    Type
REMARK                         _______ _______ _______ _____ _____    ______ ____
ROOT
ATOM      1  C   UNL     1       2.528   5.711  20.228  0.00  0.00    +0.000 A 
ATOM      2  N   UNL     1       3.322   5.332  19.190  0.00  0.00    +0.000 NA
ATOM      3  C   UNL     1       3.571   6.192  18.172  0.00  0.00    +0.000 A 
ATOM      4  N   UNL     1       3.115   7.453  18.050  0.00  0.00    +0.000 NA
ATOM      5  C   UNL     1       2.317   7.781  19.079  0.00  0.00    +0.000 A 
ATOM      6  C   UNL     1       1.976   7.003  20.169  0.00  0.00    +0.000 A 
ATOM      7  N   UNL     1       1.117   7.707  20.975  0.00  0.00    +0.000 NA
ATOM      8  N   UNL     1       0.878   8.884  20.397  0.00  0.00    +0.000 NA
ATOM      9  N   UNL     1       1.604   8.933  19.256  0.00  0.00    +0.000 N 
ENDROOT
BRANCH   3  10
ATOM     10  C   UNL     1       4.379   5.674  17.059  0.00  0.00    +0.000 A 
ATOM     11  C   UNL     1       4.586   4.292  16.902  0.00  0.00    +0.000 A 
ATOM     12  C   UNL     1       5.326   3.789  15.830  0.00  0.00    +0.000 A 
ATOM     13  C   UNL     1       5.885   4.664  14.902  0.00  0.00    +0.000 A 
ATOM     14  C   UNL     1       5.698   6.037  15.040  0.00  0.00    +0.000 A 
ATOM     15  C   UNL     1       4.946   6.538  16.105  0.00  0.00    +0.000 A 
ENDBRANCH   3  10
BRANCH   1  16
ATOM     16  N   UNL     1       2.268   4.806  21.258  0.00  0.00    +0.000 N 
ATOM     17  H   UNL     1       3.113   4.441  21.694  0.00  0.00    +0.000 HD
BRANCH  16  18
ATOM     18  C   UNL     1       1.261   3.794  20.942  0.00  0.00    +0.000 C 
BRANCH  18  20
ATOM     19  C   UNL     1       1.675   2.086  19.130  0.00  0.00    +0.000 C 
ATOM     20  C   UNL     1       1.939   2.460  20.583  0.00  0.00    +0.000 C 
BRANCH  20  21
ATOM     21  O   UNL     1       3.355   2.549  20.787  0.00  0.00    +0.000 OA
ATOM     22  H   UNL     1       3.648   1.728  21.217  0.00  0.00    +0.000 HD
ENDBRANCH  20  21
ENDBRANCH  18  20
ENDBRANCH  16  18
ENDBRANCH   1  16
BRANCH   9  23
ATOM     23  C   UNL     1       1.376   9.960  18.259  0.00  0.00    +0.000 C 
BRANCH  23  24
ATOM     24  C   UNL     1      -0.037  10.483  18.246  0.00  0.00    +0.000 A 
ATOM     25  C   UNL     1      -1.072   9.754  17.638  0.00  0.00    +0.000 A 
ATOM     26  C   UNL     1      -2.395  10.192  17.725  0.00  0.00    +0.000 A 
ATOM     27  C   UNL     1      -2.697  11.367  18.414  0.00  0.00    +0.000 A 
ATOM     28  C   UNL     1      -1.674  12.118  18.990  0.00  0.00    +0.000 A 
ATOM     29  C   UNL     1      -0.352  11.683  18.901  0.00  0.00    +0.000 A 
ENDBRANCH  23  24
ENDBRANCH   9  23
TORSDOF 7
ENDMDL
MODEL 4
REMARK VINA RESULT:      -7.9      4.621      6.142
REMARK  Name = 
REMARK  8 active torsions:
REMARK  status: ('A' for Active; 'I' for Inactive)
REMARK    1  A    between atoms: C_1  and  C_2
REMARK    2  A    between atoms: C_2  and  O_3
REMARK    3  A    between atoms: C_2  and  C_4
REMARK    4  A    between atoms: C_4  and  N_5
REMARK    5  A    between atoms: N_5  and  C_6
REMARK    6  A    between atoms: C_8  and  C_9
REMARK    7  A    between atoms: N_20  and  C_21
REMARK    8  A    between atoms: C_21  and  C_22
REMARK                            x       y       z     vdW  Elec       q    Type
REMARK                         _______ _______ _______ _____ _____    ______ ____
ROOT
ATOM      1  C   UNL     1       3.770   4.296  18.860  0.00  0.00    +0.000 A 
ATOM      2  N   UNL     1       4.537   4.154  17.747  0.00  0.00    +0.000 NA
ATOM      3  C   UNL     1       4.711   5.199  16.900  0.00  0.00    +0.000 A 
ATOM      4  N   UNL     1       4.198   6.437  17.029  0.00  0.00    +0.000 NA
ATOM      5  C   UNL     1       3.428   6.529  18.126  0.00  0.00    +0.000 A 
ATOM      6  C   UNL     1       3.162   5.548  19.061  0.00  0.00    +0.000 A 
ATOM      7  N   UNL     1       2.307   6.048  20.010  0.00  0.00    +0.000 NA
ATOM      8  N   UNL     1       1.996   7.299  19.669  0.00  0.00    +0.000 NA
ATOM      9  N   UNL     1       2.675   7.593  18.536  0.00  0.00    +0.000 N 
ENDROOT
BRANCH   3  10
ATOM     10  C   UNL     1       5.495   4.935  15.686  0.00  0.00    +0.000 A 
ATOM     11  C   UNL     1       6.798   5.447  15.544  0.00  0.00    +0.000 A 
ATOM     12  C   UNL     1       7.562   5.176  14.408  0.00  0.00    +0.000 A 
ATOM     13  C   UNL     1       7.029   4.396  13.384  0.00  0.00    +0.000 A 
ATOM     14  C   UNL     1       5.740   3.883  13.499  0.00  0.00    +0.000 A 
ATOM     15  C   UNL     1       4.982   4.144  14.643  0.00  0.00    +0.000 A 
ENDBRANCH   3  10
BRANCH   1  16
ATOM     16  N   UNL     1       3.588   3.204  19.711  0.00  0.00    +0.000 N 
ATOM     17  H   UNL     1       4.438   2.661  19.854  0.00  0.00    +0.000 HD
BRANCH  16  18
ATOM     18  C   UNL     1       2.396   2.405  19.433  0.00  0.00    +0.000 C 
BRANCH  18  20
ATOM     19  C   UNL     1       2.075   2.873  21.893  0.00  0.00    +0.000 C 
ATOM     20  C   UNL     1       1.377   2.547  20.578  0.00  0.00    +0.000 C 
BRANCH  20  21
ATOM     21  O   UNL     1       0.438   3.590  20.283  0.00  0.00    +0.000 OA
ATOM     22  H   UNL     1       0.665   4.360  20.831  0.00  0.00    +0.000 HD
ENDBRANCH  20  21
ENDBRANCH  18  20
ENDBRANCH  16  18
ENDBRANCH   1  16
BRANCH   9  23
ATOM     23  C   UNL     1       2.365   8.775  17.756  0.00  0.00    +0.000 C 
BRANCH  23  24
ATOM     24  C   UNL     1       1.188   9.553  18.283  0.00  0.00    +0.000 A 
ATOM     25  C   UNL     1       1.345  10.487  19.320  0.00  0.00    +0.000 A 
ATOM     26  C   UNL     1       0.271  11.281  19.729  0.00  0.00    +0.000 A 
ATOM     27  C   UNL     1      -0.972  11.144  19.112  0.00  0.00    +0.000 A 
ATOM     28  C   UNL     1      -1.150  10.195  18.107  0.00  0.00    +0.000 A 
ATOM     29  C   UNL     1      -0.079   9.399  17.700  0.00  0.00    +0.000 A 
ENDBRANCH  23  24
ENDBRANCH   9  23
TORSDOF 7
ENDMDL
MODEL 5
REMARK VINA RESULT:      -7.9      3.225      5.175
REMARK  Name = 
REMARK  8 active torsions:
REMARK  status: ('A' for Active; 'I' for Inactive)
REMARK    1  A    between atoms: C_1  and  C_2
REMARK    2  A    between atoms: C_2  and  O_3
REMARK    3  A    between atoms: C_2  and  C_4
REMARK    4  A    between atoms: C_4  and  N_5
REMARK    5  A    between atoms: N_5  and  C_6
REMARK    6  A    between atoms: C_8  and  C_9
REMARK    7  A    between atoms: N_20  and  C_21
REMARK    8  A    between atoms: C_21  and  C_22
REMARK                            x       y       z     vdW  Elec       q    Type
REMARK                         _______ _______ _______ _____ _____    ______ ____
ROOT
ATOM      1  C   UNL     1       5.271   6.646  16.911  0.00  0.00    +0.000 A 
ATOM      2  N   UNL     1       4.357   7.454  17.513  0.00  0.00    +0.000 NA
ATOM      3  C   UNL     1       3.262   6.919  18.108  0.00  0.00    +0.000 A 
ATOM      4  N   UNL     1       2.945   5.613  18.193  0.00  0.00    +0.000 NA
ATOM      5  C   UNL     1       3.857   4.853  17.567  0.00  0.00    +0.000 A 
ATOM      6  C   UNL     1       5.005   5.266  16.918  0.00  0.00    +0.000 A 
ATOM      7  N   UNL     1       5.644   4.172  16.391  0.00  0.00    +0.000 NA
ATOM      8  N   UNL     1       4.904   3.094  16.652  0.00  0.00    +0.000 NA
ATOM      9  N   UNL     1       3.829   3.501  17.365  0.00  0.00    +0.000 N 
ENDROOT
BRANCH   3  10
ATOM     10  C   UNL     1       2.292   7.869  18.671  0.00  0.00    +0.000 A 
ATOM     11  C   UNL     1       1.920   7.802  20.026  0.00  0.00    +0.000 A 
ATOM     12  C   UNL     1       1.023   8.720  20.576  0.00  0.00    +0.000 A 
ATOM     13  C   UNL     1       0.471   9.716  19.773  0.00  0.00    +0.000 A 
ATOM     14  C   UNL     1       0.820   9.799  18.428  0.00  0.00    +0.000 A 
ATOM     15  C   UNL     1       1.727   8.887  17.883  0.00  0.00    +0.000 A 
ENDBRANCH   3  10
BRANCH   1  16
ATOM     16  N   UNL     1       6.383   7.216  16.288  0.00  0.00    +0.000 N 
ATOM     17  H   UNL     1       6.341   7.169  15.271  0.00  0.00    +0.000 HD
BRANCH  16  18
ATOM     18  C   UNL     1       7.670   6.827  16.862  0.00  0.00    +0.000 C 
BRANCH  18  20
ATOM     19  C   UNL     1       7.956   5.720  19.113  0.00  0.00    +0.000 C 
ATOM     20  C   UNL     1       7.657   7.026  18.388  0.00  0.00    +0.000 C 
BRANCH  20  21
ATOM     21  O   UNL     1       8.636   8.001  18.771  0.00  0.00    +0.000 OA
ATOM     22  H   UNL     1       8.450   8.820  18.281  0.00  0.00    +0.000 HD
ENDBRANCH  20  21
ENDBRANCH  18  20
ENDBRANCH  16  18
ENDBRANCH   1  16
BRANCH   9  23
ATOM     23  C   UNL     1       2.695   2.626  17.587  0.00  0.00    +0.000 C 
BRANCH  23  24
ATOM     24  C   UNL     1       2.226   2.600  19.019  0.00  0.00    +0.000 A 
ATOM     25  C   UNL     1       3.126   2.359  20.069  0.00  0.00    +0.000 A 
ATOM     26  C   UNL     1       2.704   2.444  21.398  0.00  0.00    +0.000 A 
ATOM     27  C   UNL     1       1.378   2.763  21.690  0.00  0.00    +0.000 A 
ATOM     28  C   UNL     1       0.468   2.970  20.656  0.00  0.00    +0.000 A 
ATOM     29  C   UNL     1       0.887   2.882  19.328  0.00  0.00    +0.000 A 
ENDBRANCH  23  24
ENDBRANCH   9  23
TORSDOF 7
ENDMDL
MODEL 6
REMARK VINA RESULT:      -7.8      0.615      1.483
REMARK  Name = 
REMARK  8 active torsions:
REMARK  status: ('A' for Active; 'I' for Inactive)
REMARK    1  A    between atoms: C_1  and  C_2
REMARK    2  A    between atoms: C_2  and  O_3
REMARK    3  A    between atoms: C_2  and  C_4
REMARK    4  A    between atoms: C_4  and  N_5
REMARK    5  A    between atoms: N_5  and  C_6
REMARK    6  A    between atoms: C_8  and  C_9
REMARK    7  A    between atoms: N_20  and  C_21
REMARK    8  A    between atoms: C_21  and  C_22
REMARK                            x       y       z     vdW  Elec       q    Type
REMARK                         _______ _______ _______ _____ _____    ______ ____
ROOT
ATOM      1  C   UNL     1       7.387   6.435  17.628  0.00  0.00    +0.000 A 
ATOM      2  N   UNL     1       7.401   6.109  16.308  0.00  0.00    +0.000 NA
ATOM      3  C   UNL     1       6.646   5.078  15.852  0.00  0.00    +0.000 A 
ATOM      4  N   UNL     1       5.827   4.294  16.578  0.00  0.00    +0.000 NA
ATOM      5  C   UNL     1       5.860   4.632  17.877  0.00  0.00    +0.000 A 
ATOM      6  C   UNL     1       6.586   5.646  18.472  0.00  0.00    +0.000 A 
ATOM      7  N   UNL     1       6.353   5.634  19.824  0.00  0.00    +0.000 NA
ATOM      8  N   UNL     1       5.539   4.614  20.096  0.00  0.00    +0.000 NA
ATOM      9  N   UNL     1       5.236   4.011  18.923  0.00  0.00    +0.000 N 
ENDROOT
BRANCH   3  10
ATOM     10  C   UNL     1       6.778   4.750  14.426  0.00  0.00    +0.000 A 
ATOM     11  C   UNL     1       5.964   3.767  13.834  0.00  0.00    +0.000 A 
ATOM     12  C   UNL     1       6.061   3.471  12.474  0.00  0.00    +0.000 A 
ATOM     13  C   UNL     1       6.988   4.146  11.681  0.00  0.00    +0.000 A 
ATOM     14  C   UNL     1       7.809   5.118  12.246  0.00  0.00    +0.000 A 
ATOM     15  C   UNL     1       7.701   5.423  13.605  0.00  0.00    +0.000 A 
ENDBRANCH   3  10
BRANCH   1  16
ATOM     16  N   UNL     1       8.185   7.487  18.083  0.00  0.00    +0.000 N 
ATOM     17  H   UNL     1       8.187   7.580  19.097  0.00  0.00    +0.000 HD
BRANCH  16  18
ATOM     18  C   UNL     1       8.008   8.745  17.358  0.00  0.00    +0.000 C 
BRANCH  18  20
ATOM     19  C   UNL     1       9.420   9.803  19.164  0.00  0.00    +0.000 C 
ATOM     20  C   UNL     1       8.161   9.940  18.317  0.00  0.00    +0.000 C 
BRANCH  20  21
ATOM     21  O   UNL     1       8.234  11.166  17.577  0.00  0.00    +0.000 OA
ATOM     22  H   UNL     1       9.129  11.527  17.685  0.00  0.00    +0.000 HD
ENDBRANCH  20  21
ENDBRANCH  18  20
ENDBRANCH  16  18
ENDBRANCH   1  16
BRANCH   9  23
ATOM     23  C   UNL     1       4.586   2.716  18.885  0.00  0.00    +0.000 C 
BRANCH  23  24
ATOM     24  C   UNL     1       3.128   2.764  19.258  0.00  0.00    +0.000 A 
ATOM     25  C   UNL     1       2.129   2.552  18.295  0.00  0.00    +0.000 A 
ATOM     26  C   UNL     1       0.784   2.490  18.668  0.00  0.00    +0.000 A 
ATOM     27  C   UNL     1       0.424   2.648  20.006  0.00  0.00    +0.000 A 
ATOM     28  C   UNL     1       1.403   2.895  20.966  0.00  0.00    +0.000 A 
ATOM     29  C   UNL     1       2.746   2.960  20.594  0.00  0.00    +0.000 A 
ENDBRANCH  23  24
ENDBRANCH   9  23
TORSDOF 7
ENDMDL
MODEL 7
REMARK VINA RESULT:      -7.8      4.682      6.351
REMARK  Name = 
REMARK  8 active torsions:
REMARK  status: ('A' for Active; 'I' for Inactive)
REMARK    1  A    between atoms: C_1  and  C_2
REMARK    2  A    between atoms: C_2  and  O_3
REMARK    3  A    between atoms: C_2  and  C_4
REMARK    4  A    between atoms: C_4  and  N_5
REMARK    5  A    between atoms: N_5  and  C_6
REMARK    6  A    between atoms: C_8  and  C_9
REMARK    7  A    between atoms: N_20  and  C_21
REMARK    8  A    between atoms: C_21  and  C_22
REMARK                            x       y       z     vdW  Elec       q    Type
REMARK                         _______ _______ _______ _____ _____    ______ ____
ROOT
ATOM      1  C   UNL     1       3.677   4.454  19.082  0.00  0.00    +0.000 A 
ATOM      2  N   UNL     1       4.469   4.285  17.990  0.00  0.00    +0.000 NA
ATOM      3  C   UNL     1       4.653   5.305  17.115  0.00  0.00    +0.000 A 
ATOM      4  N   UNL     1       4.129   6.543  17.196  0.00  0.00    +0.000 NA
ATOM      5  C   UNL     1       3.335   6.662  18.272  0.00  0.00    +0.000 A 
ATOM      6  C   UNL     1       3.056   5.707  19.231  0.00  0.00    +0.000 A 
ATOM      7  N   UNL     1       2.176   6.229  20.146  0.00  0.00    +0.000 NA
ATOM      8  N   UNL     1       1.864   7.467  19.761  0.00  0.00    +0.000 NA
ATOM      9  N   UNL     1       2.565   7.731  18.634  0.00  0.00    +0.000 N 
ENDROOT
BRANCH   3  10
ATOM     10  C   UNL     1       5.466   5.011  15.927  0.00  0.00    +0.000 A 
ATOM     11  C   UNL     1       4.943   4.248  14.867  0.00  0.00    +0.000 A 
ATOM     12  C   UNL     1       5.697   3.990  13.721  0.00  0.00    +0.000 A 
ATOM     13  C   UNL     1       6.997   4.481  13.621  0.00  0.00    +0.000 A 
ATOM     14  C   UNL     1       7.538   5.234  14.660  0.00  0.00    +0.000 A 
ATOM     15  C   UNL     1       6.777   5.502  15.800  0.00  0.00    +0.000 A 
ENDBRANCH   3  10
BRANCH   1  16
ATOM     16  N   UNL     1       3.484   3.387  19.962  0.00  0.00    +0.000 N 
ATOM     17  H   UNL     1       4.354   2.939  20.245  0.00  0.00    +0.000 HD
BRANCH  16  18
ATOM     18  C   UNL     1       2.422   2.461  19.575  0.00  0.00    +0.000 C 
BRANCH  18  20
ATOM     19  C   UNL     1       1.725   2.779  21.981  0.00  0.00    +0.000 C 
ATOM     20  C   UNL     1       1.237   2.568  20.553  0.00  0.00    +0.000 C 
BRANCH  20  21
ATOM     21  O   UNL     1       0.388   3.665  20.189  0.00  0.00    +0.000 OA
ATOM     22  H   UNL     1       0.161   4.149  21.000  0.00  0.00    +0.000 HD
ENDBRANCH  20  21
ENDBRANCH  18  20
ENDBRANCH  16  18
ENDBRANCH   1  16
BRANCH   9  23
ATOM     23  C   UNL     1       2.263   8.886  17.811  0.00  0.00    +0.000 C 
BRANCH  23  24
ATOM     24  C   UNL     1       1.105   9.703  18.323  0.00  0.00    +0.000 A 
ATOM     25  C   UNL     1      -0.181   9.552  17.781  0.00  0.00    +0.000 A 
ATOM     26  C   UNL     1      -1.268  10.233  18.332  0.00  0.00    +0.000 A 
ATOM     27  C   UNL     1      -1.080  11.078  19.426  0.00  0.00    +0.000 A 
ATOM     28  C   UNL     1       0.198  11.264  19.949  0.00  0.00    +0.000 A 
ATOM     29  C   UNL     1       1.285  10.587  19.398  0.00  0.00    +0.000 A 
ENDBRANCH  23  24
ENDBRANCH   9  23
TORSDOF 7
ENDMDL
MODEL 8
REMARK VINA RESULT:      -7.7      5.332      7.269
REMARK  Name = 
REMARK  8 active torsions:
REMARK  status: ('A' for Active; 'I' for Inactive)
REMARK    1  A    between atoms: C_1  and  C_2
REMARK    2  A    between atoms: C_2  and  O_3
REMARK    3  A    between atoms: C_2  and  C_4
REMARK    4  A    between atoms: C_4  and  N_5
REMARK    5  A    between atoms: N_5  and  C_6
REMARK    6  A    between atoms: C_8  and  C_9
REMARK    7  A    between atoms: N_20  and  C_21
REMARK    8  A    between atoms: C_21  and  C_22
REMARK                            x       y       z     vdW  Elec       q    Type
REMARK                         _______ _______ _______ _____ _____    ______ ____
ROOT
ATOM      1  C   UNL     1       2.673   5.712  20.150  0.00  0.00    +0.000 A 
ATOM      2  N   UNL     1       3.465   5.279  19.132  0.00  0.00    +0.000 NA
ATOM      3  C   UNL     1       3.719   6.088  18.073  0.00  0.00    +0.000 A 
ATOM      4  N   UNL     1       3.268   7.343  17.890  0.00  0.00    +0.000 NA
ATOM      5  C   UNL     1       2.471   7.723  18.902  0.00  0.00    +0.000 A 
ATOM      6  C   UNL     1       2.126   7.001  20.028  0.00  0.00    +0.000 A 
ATOM      7  N   UNL     1       1.270   7.747  20.798  0.00  0.00    +0.000 NA
ATOM      8  N   UNL     1       1.036   8.896  20.163  0.00  0.00    +0.000 NA
ATOM      9  N   UNL     1       1.763   8.886  19.022  0.00  0.00    +0.000 N 
ENDROOT
BRANCH   3  10
ATOM     10  C   UNL     1       4.524   5.513  16.988  0.00  0.00    +0.000 A 
ATOM     11  C   UNL     1       4.738   4.125  16.906  0.00  0.00    +0.000 A 
ATOM     12  C   UNL     1       5.476   3.567  15.861  0.00  0.00    +0.000 A 
ATOM     13  C   UNL     1       6.026   4.392  14.883  0.00  0.00    +0.000 A 
ATOM     14  C   UNL     1       5.833   5.770  14.945  0.00  0.00    +0.000 A 
ATOM     15  C   UNL     1       5.083   6.325  15.985  0.00  0.00    +0.000 A 
ENDBRANCH   3  10
BRANCH   1  16
ATOM     16  N   UNL     1       2.409   4.858  21.223  0.00  0.00    +0.000 N 
ATOM     17  H   UNL     1       3.244   4.404  21.590  0.00  0.00    +0.000 HD
BRANCH  16  18
ATOM     18  C   UNL     1       1.268   3.966  21.026  0.00  0.00    +0.000 C 
BRANCH  18  20
ATOM     19  C   UNL     1       2.093   2.011  19.657  0.00  0.00    +0.000 C 
ATOM     20  C   UNL     1       1.728   2.497  21.054  0.00  0.00    +0.000 C 
BRANCH  20  21
ATOM     21  O   UNL     1       2.871   2.349  21.907  0.00  0.00    +0.000 OA
ATOM     22  H   UNL     1       3.591   2.887  21.538  0.00  0.00    +0.000 HD
ENDBRANCH  20  21
ENDBRANCH  18  20
ENDBRANCH  16  18
ENDBRANCH   1  16
BRANCH   9  23
ATOM     23  C   UNL     1       1.539   9.864  17.976  0.00  0.00    +0.000 C 
BRANCH  23  24
ATOM     24  C   UNL     1       0.819  11.099  18.451  0.00  0.00    +0.000 A 
ATOM     25  C   UNL     1       1.530  12.242  18.847  0.00  0.00    +0.000 A 
ATOM     26  C   UNL     1       0.855  13.418  19.183  0.00  0.00    +0.000 A 
ATOM     27  C   UNL     1      -0.538  13.460  19.134  0.00  0.00    +0.000 A 
ATOM     28  C   UNL     1      -1.257  12.321  18.777  0.00  0.00    +0.000 A 
ATOM     29  C   UNL     1      -0.584  11.145  18.445  0.00  0.00    +0.000 A 
ENDBRANCH  23  24
ENDBRANCH   9  23
TORSDOF 7
ENDMDL
MODEL 9
REMARK VINA RESULT:      -7.7      4.870      6.544
REMARK  Name = 
REMARK  8 active torsions:
REMARK  status: ('A' for Active; 'I' for Inactive)
REMARK    1  A    between atoms: C_1  and  C_2
REMARK    2  A    between atoms: C_2  and  O_3
REMARK    3  A    between atoms: C_2  and  C_4
REMARK    4  A    between atoms: C_4  and  N_5
REMARK    5  A    between atoms: N_5  and  C_6
REMARK    6  A    between atoms: C_8  and  C_9
REMARK    7  A    between atoms: N_20  and  C_21
REMARK    8  A    between atoms: C_21  and  C_22
REMARK                            x       y       z     vdW  Elec       q    Type
REMARK                         _______ _______ _______ _____ _____    ______ ____
ROOT
ATOM      1  C   UNL     1       3.363   4.778  19.409  0.00  0.00    +0.000 A 
ATOM      2  N   UNL     1       4.191   4.541  18.357  0.00  0.00    +0.000 NA
ATOM      3  C   UNL     1       4.438   5.519  17.449  0.00  0.00    +0.000 A 
ATOM      4  N   UNL     1       3.948   6.772  17.460  0.00  0.00    +0.000 NA
ATOM      5  C   UNL     1       3.117   6.959  18.498  0.00  0.00    +0.000 A 
ATOM      6  C   UNL     1       2.774   6.052  19.483  0.00  0.00    +0.000 A 
ATOM      7  N   UNL     1       1.876   6.637  20.340  0.00  0.00    +0.000 NA
ATOM      8  N   UNL     1       1.615   7.866  19.894  0.00  0.00    +0.000 NA
ATOM      9  N   UNL     1       2.366   8.063  18.785  0.00  0.00    +0.000 N 
ENDROOT
BRANCH   3  10
ATOM     10  C   UNL     1       5.286   5.153  16.307  0.00  0.00    +0.000 A 
ATOM     11  C   UNL     1       4.757   4.440  15.215  0.00  0.00    +0.000 A 
ATOM     12  C   UNL     1       5.548   4.116  14.112  0.00  0.00    +0.000 A 
ATOM     13  C   UNL     1       6.890   4.488  14.087  0.00  0.00    +0.000 A 
ATOM     14  C   UNL     1       7.438   5.188  15.159  0.00  0.00    +0.000 A 
ATOM     15  C   UNL     1       6.642   5.524  16.256  0.00  0.00    +0.000 A 
ENDBRANCH   3  10
BRANCH   1  16
ATOM     16  N   UNL     1       3.106   3.754  20.323  0.00  0.00    +0.000 N 
ATOM     17  H   UNL     1       3.555   3.900  21.226  0.00  0.00    +0.000 HD
BRANCH  16  18
ATOM     18  C   UNL     1       3.251   2.404  19.784  0.00  0.00    +0.000 C 
BRANCH  18  20
ATOM     19  C   UNL     1       0.766   2.801  19.583  0.00  0.00    +0.000 C 
ATOM     20  C   UNL     1       1.941   1.952  19.113  0.00  0.00    +0.000 C 
BRANCH  20  21
ATOM     21  O   UNL     1       2.047   2.061  17.688  0.00  0.00    +0.000 OA
ATOM     22  H   UNL     1       2.918   1.716  17.426  0.00  0.00    +0.000 HD
ENDBRANCH  20  21
ENDBRANCH  18  20
ENDBRANCH  16  18
ENDBRANCH   1  16
BRANCH   9  23
ATOM     23  C   UNL     1       2.130   9.191  17.905  0.00  0.00    +0.000 C 
BRANCH  23  24
ATOM     24  C   UNL     1       0.951  10.035  18.312  0.00  0.00    +0.000 A 
ATOM     25  C   UNL     1      -0.345   9.727  17.868  0.00  0.00    +0.000 A 
ATOM     26  C   UNL     1      -1.446  10.448  18.336  0.00  0.00    +0.000 A 
ATOM     27  C   UNL     1      -1.262  11.489  19.246  0.00  0.00    +0.000 A 
ATOM     28  C   UNL     1       0.023  11.828  19.666  0.00  0.00    +0.000 A 
ATOM     29  C   UNL     1       1.123  11.110  19.197  0.00  0.00    +0.000 A 
ENDBRANCH  23  24
ENDBRANCH   9  23
TORSDOF 7
ENDMDL
