MODEL 1
REMARK VINA RESULT:      -6.6      0.000      0.000
REMARK  Name = 
REMARK  8 active torsions:
REMARK  status: ('A' for Active; 'I' for Inactive)
REMARK    1  A    between atoms: C_1  and  C_2
REMARK    2  A    between atoms: C_2  and  N_3
REMARK    3  A    between atoms: N_3  and  C_4
REMARK    4  A    between atoms: N_3  and  C_6
REMARK    5  A    between atoms: C_4  and  C_5
REMARK    6  A    between atoms: C_6  and  C_7
REMARK    7  A    between atoms: C_7  and  N_8
REMARK    8  A    between atoms: C_16  and  C_17
REMARK                            x       y       z     vdW  Elec       q    Type
REMARK                         _______ _______ _______ _____ _____    ______ ____
ROOT
ATOM      1  N   UNL     1       5.162   4.309  17.577  0.00  0.00    +0.000 NA
ATOM      2  C   UNL     1       5.977   5.560  17.511  0.00  0.00    +0.000 C 
ATOM      3  C   UNL     1       5.151   6.832  17.215  0.00  0.00    +0.000 C 
ATOM      4  N   UNL     1       4.024   6.886  18.123  0.00  0.00    +0.000 N 
ATOM      5  C   UNL     1       3.672   5.802  18.861  0.00  0.00    +0.000 A 
ATOM      6  C   UNL     1       2.684   6.167  19.739  0.00  0.00    +0.000 A 
ATOM      7  C   UNL     1       2.221   7.435  19.318  0.00  0.00    +0.000 A 
ATOM      8  C   UNL     1       1.091   8.207  19.647  0.00  0.00    +0.000 A 
ATOM      9  C   UNL     1       0.794   9.349  18.903  0.00  0.00    +0.000 A 
ATOM     10  C   UNL     1      -0.486  10.093  19.147  0.00  0.00    +0.000 C 
ATOM     11  C   UNL     1       1.683   9.782  17.907  0.00  0.00    +0.000 A 
ATOM     12  C   UNL     1       2.845   9.066  17.604  0.00  0.00    +0.000 A 
ATOM     13  C   UNL     1       3.075   7.867  18.289  0.00  0.00    +0.000 A 
ATOM     14  C   UNL     1       2.146   5.140  20.663  0.00  0.00    +0.000 C 
ATOM     15  C   UNL     1       1.849   3.907  19.791  0.00  0.00    +0.000 C 
ATOM     16  C   UNL     1       3.072   3.397  18.945  0.00  0.00    +0.000 C 
ATOM     17  C   UNL     1       4.235   4.431  18.727  0.00  0.00    +0.000 C 
ENDROOT
BRANCH   1  18
ATOM     18  C   UNL     1       4.585   3.931  16.257  0.00  0.00    +0.000 C 
BRANCH  18  19
ATOM     19  C   UNL     1       5.736   3.547  15.273  0.00  0.00    +0.000 C 
BRANCH  19  20
ATOM     20  N   UNL     1       5.939   4.242  13.980  0.00  0.00    +0.000 NA
BRANCH  20  22
ATOM     21  C   UNL     1       7.959   5.331  12.836  0.00  0.00    +0.000 C 
ATOM     22  C   UNL     1       7.176   5.051  14.114  0.00  0.00    +0.000 C 
ENDBRANCH  20  22
BRANCH  20  23
ATOM     23  C   UNL     1       5.938   3.358  12.811  0.00  0.00    +0.000 C 
ATOM     24  C   UNL     1       4.738   3.469  11.878  0.00  0.00    +0.000 C 
ENDBRANCH  20  23
ENDBRANCH  19  20
ENDBRANCH  18  19
ENDBRANCH   1  18
TORSDOF 5
ENDMDL
MODEL 2
REMARK VINA RESULT:      -6.5      3.587      6.364
REMARK  Name = 
REMARK  8 active torsions:
REMARK  status: ('A' for Active; 'I' for Inactive)
REMARK    1  A    between atoms: C_1  and  C_2
REMARK    2  A    between atoms: C_2  and  N_3
REMARK    3  A    between atoms: N_3  and  C_4
REMARK    4  A    between atoms: N_3  and  C_6
REMARK    5  A    between atoms: C_4  and  C_5
REMARK    6  A    between atoms: C_6  and  C_7
REMARK    7  A    between atoms: C_7  and  N_8
REMARK    8  A    between atoms: C_16  and  C_17
REMARK                            x       y       z     vdW  Elec       q    Type
REMARK                         _______ _______ _______ _____ _____    ______ ____
ROOT
ATOM      1  N   UNL     1       1.888   8.473  20.150  0.00  0.00    +0.000 NA
ATOM      2  C   UNL     1       2.178   8.792  18.719  0.00  0.00    +0.000 C 
ATOM      3  C   UNL     1       0.916   8.922  17.837  0.00  0.00    +0.000 C 
ATOM      4  N   UNL     1      -0.022   9.817  18.482  0.00  0.00    +0.000 N 
ATOM      5  C   UNL     1       0.144  10.182  19.780  0.00  0.00    +0.000 A 
ATOM      6  C   UNL     1      -0.783  11.145  20.089  0.00  0.00    +0.000 A 
ATOM      7  C   UNL     1      -1.724  11.150  19.036  0.00  0.00    +0.000 A 
ATOM      8  C   UNL     1      -3.002  11.720  18.887  0.00  0.00    +0.000 A 
ATOM      9  C   UNL     1      -3.789  11.377  17.788  0.00  0.00    +0.000 A 
ATOM     10  C   UNL     1      -5.206  11.860  17.698  0.00  0.00    +0.000 C 
ATOM     11  C   UNL     1      -3.259  10.555  16.782  0.00  0.00    +0.000 A 
ATOM     12  C   UNL     1      -1.968  10.025  16.876  0.00  0.00    +0.000 A 
ATOM     13  C   UNL     1      -1.230  10.296  18.035  0.00  0.00    +0.000 A 
ATOM     14  C   UNL     1      -0.783  11.707  21.462  0.00  0.00    +0.000 C 
ATOM     15  C   UNL     1      -0.727  10.497  22.410  0.00  0.00    +0.000 C 
ATOM     16  C   UNL     1       0.473   9.516  22.146  0.00  0.00    +0.000 C 
ATOM     17  C   UNL     1       1.142   9.617  20.728  0.00  0.00    +0.000 C 
ENDROOT
BRANCH   1  18
ATOM     18  C   UNL     1       1.316   7.111  20.329  0.00  0.00    +0.000 C 
BRANCH  18  19
ATOM     19  C   UNL     1       2.435   6.041  20.117  0.00  0.00    +0.000 C 
BRANCH  19  20
ATOM     20  N   UNL     1       2.156   4.704  19.543  0.00  0.00    +0.000 NA
BRANCH  20  22
ATOM     21  C   UNL     1       1.313   2.906  21.164  0.00  0.00    +0.000 C 
ATOM     22  C   UNL     1       1.021   4.133  20.309  0.00  0.00    +0.000 C 
ENDBRANCH  20  22
BRANCH  20  23
ATOM     23  C   UNL     1       1.947   4.701  18.092  0.00  0.00    +0.000 C 
ATOM     24  C   UNL     1       2.362   3.435  17.350  0.00  0.00    +0.000 C 
ENDBRANCH  20  23
ENDBRANCH  19  20
ENDBRANCH  18  19
ENDBRANCH   1  18
TORSDOF 5
ENDMDL
MODEL 3
REMARK VINA RESULT:      -6.3      3.317      6.343
REMARK  Name = 
REMARK  8 active torsions:
REMARK  status: ('A' for Active; 'I' for Inactive)
REMARK    1  A    between atoms: C_1  and  C_2
REMARK    2  A    between atoms: C_2  and  N_3
REMARK    3  A    between atoms: N_3  and  C_4
REMARK    4  A    between atoms: N_3  and  C_6
REMARK    5  A    between atoms: C_4  and  C_5
REMARK    6  A    between atoms: C_6  and  C_7
REMARK    7  A    between atoms: C_7  and  N_8
REMARK    8  A    between atoms: C_16  and  C_17
REMARK                            x       y       z     vdW  Elec       q    Type
REMARK                         _______ _______ _______ _____ _____    ______ ____
ROOT
ATOM      1  N   UNL     1       1.876   8.419  20.338  0.00  0.00    +0.000 NA
ATOM      2  C   UNL     1       2.206   8.780  18.926  0.00  0.00    +0.000 C 
ATOM      3  C   UNL     1       0.969   8.946  18.015  0.00  0.00    +0.000 C 
ATOM      4  N   UNL     1       0.021   9.828  18.662  0.00  0.00    +0.000 N 
ATOM      5  C   UNL     1       0.154  10.152  19.974  0.00  0.00    +0.000 A 
ATOM      6  C   UNL     1      -0.774  11.112  20.289  0.00  0.00    +0.000 A 
ATOM      7  C   UNL     1      -1.687  11.157  19.211  0.00  0.00    +0.000 A 
ATOM      8  C   UNL     1      -2.956  11.741  19.046  0.00  0.00    +0.000 A 
ATOM      9  C   UNL     1      -3.716  11.439  17.916  0.00  0.00    +0.000 A 
ATOM     10  C   UNL     1      -5.126  11.935  17.803  0.00  0.00    +0.000 C 
ATOM     11  C   UNL     1      -3.164  10.643  16.900  0.00  0.00    +0.000 A 
ATOM     12  C   UNL     1      -1.880  10.101  17.011  0.00  0.00    +0.000 A 
ATOM     13  C   UNL     1      -1.172  10.331  18.198  0.00  0.00    +0.000 A 
ATOM     14  C   UNL     1      -0.807  11.632  21.677  0.00  0.00    +0.000 C 
ATOM     15  C   UNL     1      -0.786  10.393  22.589  0.00  0.00    +0.000 C 
ATOM     16  C   UNL     1       0.415   9.412  22.327  0.00  0.00    +0.000 C 
ATOM     17  C   UNL     1       1.122   9.551  20.931  0.00  0.00    +0.000 C 
ENDROOT
BRANCH   1  18
ATOM     18  C   UNL     1       1.289   7.056  20.460  0.00  0.00    +0.000 C 
BRANCH  18  19
ATOM     19  C   UNL     1       2.282   6.005  19.869  0.00  0.00    +0.000 C 
BRANCH  19  20
ATOM     20  N   UNL     1       1.860   4.632  19.505  0.00  0.00    +0.000 NA
BRANCH  20  22
ATOM     21  C   UNL     1       3.505   3.957  17.657  0.00  0.00    +0.000 C 
ATOM     22  C   UNL     1       3.086   3.890  19.121  0.00  0.00    +0.000 C 
ENDBRANCH  20  22
BRANCH  20  23
ATOM     23  C   UNL     1       1.057   3.955  20.528  0.00  0.00    +0.000 C 
ATOM     24  C   UNL     1       1.824   3.124  21.550  0.00  0.00    +0.000 C 
ENDBRANCH  20  23
ENDBRANCH  19  20
ENDBRANCH  18  19
ENDBRANCH   1  18
TORSDOF 5
ENDMDL
MODEL 4
REMARK VINA RESULT:      -6.2      3.344      6.261
REMARK  Name = 
REMARK  8 active torsions:
REMARK  status: ('A' for Active; 'I' for Inactive)
REMARK    1  A    between atoms: C_1  and  C_2
REMARK    2  A    between atoms: C_2  and  N_3
REMARK    3  A    between atoms: N_3  and  C_4
REMARK    4  A    between atoms: N_3  and  C_6
REMARK    5  A    between atoms: C_4  and  C_5
REMARK    6  A    between atoms: C_6  and  C_7
REMARK    7  A    between atoms: C_7  and  N_8
REMARK    8  A    between atoms: C_16  and  C_17
REMARK                            x       y       z     vdW  Elec       q    Type
REMARK                         _______ _______ _______ _____ _____    ______ ____
ROOT
ATOM      1  N   UNL     1       7.840   6.519  17.562  0.00  0.00    +0.000 NA
ATOM      2  C   UNL     1       8.004   5.931  18.926  0.00  0.00    +0.000 C 
ATOM      3  C   UNL     1       6.668   5.614  19.636  0.00  0.00    +0.000 C 
ATOM      4  N   UNL     1       5.826   4.849  18.741  0.00  0.00    +0.000 N 
ATOM      5  C   UNL     1       6.127   4.747  17.421  0.00  0.00    +0.000 A 
ATOM      6  C   UNL     1       5.266   3.851  16.840  0.00  0.00    +0.000 A 
ATOM      7  C   UNL     1       4.229   3.627  17.774  0.00  0.00    +0.000 A 
ATOM      8  C   UNL     1       2.962   3.021  17.682  0.00  0.00    +0.000 A 
ATOM      9  C   UNL     1       2.063   3.132  18.743  0.00  0.00    +0.000 A 
ATOM     10  C   UNL     1       0.661   2.621  18.597  0.00  0.00    +0.000 C 
ATOM     11  C   UNL     1       2.468   3.749  19.936  0.00  0.00    +0.000 A 
ATOM     12  C   UNL     1       3.744   4.305  20.075  0.00  0.00    +0.000 A 
ATOM     13  C   UNL     1       4.597   4.275  18.965  0.00  0.00    +0.000 A 
ATOM     14  C   UNL     1       5.414   3.567  15.392  0.00  0.00    +0.000 C 
ATOM     15  C   UNL     1       5.519   4.940  14.705  0.00  0.00    +0.000 C 
ATOM     16  C   UNL     1       6.656   5.866  15.272  0.00  0.00    +0.000 C 
ATOM     17  C   UNL     1       7.191   5.500  16.703  0.00  0.00    +0.000 C 
ENDROOT
BRANCH   1  18
ATOM     18  C   UNL     1       7.243   7.883  17.594  0.00  0.00    +0.000 C 
BRANCH  18  19
ATOM     19  C   UNL     1       8.382   8.952  17.613  0.00  0.00    +0.000 C 
BRANCH  19  20
ATOM     20  N   UNL     1       8.323  10.158  18.472  0.00  0.00    +0.000 NA
BRANCH  20  22
ATOM     21  C   UNL     1       9.237  10.904  20.748  0.00  0.00    +0.000 C 
ATOM     22  C   UNL     1       9.333   9.975  19.544  0.00  0.00    +0.000 C 
ENDBRANCH  20  22
BRANCH  20  23
ATOM     23  C   UNL     1       8.457  11.425  17.747  0.00  0.00    +0.000 C 
ATOM     24  C   UNL     1       9.867  11.993  17.630  0.00  0.00    +0.000 C 
ENDBRANCH  20  23
ENDBRANCH  19  20
ENDBRANCH  18  19
ENDBRANCH   1  18
TORSDOF 5
ENDMDL
MODEL 5
REMARK VINA RESULT:      -6.1      2.579      5.654
REMARK  Name = 
REMARK  8 active torsions:
REMARK  status: ('A' for Active; 'I' for Inactive)
REMARK    1  A    between atoms: C_1  and  C_2
REMARK    2  A    between atoms: C_2  and  N_3
REMARK    3  A    between atoms: N_3  and  C_4
REMARK    4  A    between atoms: N_3  and  C_6
REMARK    5  A    between atoms: C_4  and  C_5
REMARK    6  A    between atoms: C_6  and  C_7
REMARK    7  A    between atoms: C_7  and  N_8
REMARK    8  A    between atoms: C_16  and  C_17
REMARK                            x       y       z     vdW  Elec       q    Type
REMARK                         _______ _______ _______ _____ _____    ______ ____
ROOT
ATOM      1  N   UNL     1       2.168   8.087  19.689  0.00  0.00    +0.000 NA
ATOM      2  C   UNL     1       2.392   8.622  18.312  0.00  0.00    +0.000 C 
ATOM      3  C   UNL     1       1.090   8.904  17.529  0.00  0.00    +0.000 C 
ATOM      4  N   UNL     1       0.204   9.698  18.354  0.00  0.00    +0.000 N 
ATOM      5  C   UNL     1       0.442   9.853  19.682  0.00  0.00    +0.000 A 
ATOM      6  C   UNL     1      -0.449  10.766  20.186  0.00  0.00    +0.000 A 
ATOM      7  C   UNL     1      -1.443  10.947  19.197  0.00  0.00    +0.000 A 
ATOM      8  C   UNL     1      -2.715  11.548  19.207  0.00  0.00    +0.000 A 
ATOM      9  C   UNL     1      -3.562  11.392  18.110  0.00  0.00    +0.000 A 
ATOM     10  C   UNL     1      -4.972  11.899  18.171  0.00  0.00    +0.000 C 
ATOM     11  C   UNL     1      -3.100  10.730  16.962  0.00  0.00    +0.000 A 
ATOM     12  C   UNL     1      -1.817  10.178  16.904  0.00  0.00    +0.000 A 
ATOM     13  C   UNL     1      -1.016  10.255  18.051  0.00  0.00    +0.000 A 
ATOM     14  C   UNL     1      -0.370  11.106  21.627  0.00  0.00    +0.000 C 
ATOM     15  C   UNL     1      -0.291   9.761  22.372  0.00  0.00    +0.000 C 
ATOM     16  C   UNL     1       0.875   8.820  21.895  0.00  0.00    +0.000 C 
ATOM     17  C   UNL     1       1.474   9.134  20.477  0.00  0.00    +0.000 C 
ENDROOT
BRANCH   1  18
ATOM     18  C   UNL     1       1.578   6.720  19.683  0.00  0.00    +0.000 C 
BRANCH  18  19
ATOM     19  C   UNL     1       2.721   5.656  19.749  0.00  0.00    +0.000 C 
BRANCH  19  20
ATOM     20  N   UNL     1       2.984   4.705  18.644  0.00  0.00    +0.000 NA
BRANCH  20  22
ATOM     21  C   UNL     1       1.114   2.952  18.609  0.00  0.00    +0.000 C 
ATOM     22  C   UNL     1       1.664   4.283  18.113  0.00  0.00    +0.000 C 
ENDBRANCH  20  22
BRANCH  20  23
ATOM     23  C   UNL     1       3.898   5.211  17.615  0.00  0.00    +0.000 C 
ATOM     24  C   UNL     1       4.533   4.169  16.702  0.00  0.00    +0.000 C 
ENDBRANCH  20  23
ENDBRANCH  19  20
ENDBRANCH  18  19
ENDBRANCH   1  18
TORSDOF 5
ENDMDL
MODEL 6
REMARK VINA RESULT:      -6.1      0.973      1.102
REMARK  Name = 
REMARK  8 active torsions:
REMARK  status: ('A' for Active; 'I' for Inactive)
REMARK    1  A    between atoms: C_1  and  C_2
REMARK    2  A    between atoms: C_2  and  N_3
REMARK    3  A    between atoms: N_3  and  C_4
REMARK    4  A    between atoms: N_3  and  C_6
REMARK    5  A    between atoms: C_4  and  C_5
REMARK    6  A    between atoms: C_6  and  C_7
REMARK    7  A    between atoms: C_7  and  N_8
REMARK    8  A    between atoms: C_16  and  C_17
REMARK                            x       y       z     vdW  Elec       q    Type
REMARK                         _______ _______ _______ _____ _____    ______ ____
ROOT
ATOM      1  N   UNL     1       5.785   4.298  16.509  0.00  0.00    +0.000 NA
ATOM      2  C   UNL     1       6.540   5.584  16.604  0.00  0.00    +0.000 C 
ATOM      3  C   UNL     1       5.642   6.841  16.586  0.00  0.00    +0.000 C 
ATOM      4  N   UNL     1       4.586   6.682  17.563  0.00  0.00    +0.000 N 
ATOM      5  C   UNL     1       4.336   5.472  18.127  0.00  0.00    +0.000 A 
ATOM      6  C   UNL     1       3.402   5.633  19.119  0.00  0.00    +0.000 A 
ATOM      7  C   UNL     1       2.857   6.926  18.954  0.00  0.00    +0.000 A 
ATOM      8  C   UNL     1       1.724   7.570  19.484  0.00  0.00    +0.000 A 
ATOM      9  C   UNL     1       1.325   8.804  18.969  0.00  0.00    +0.000 A 
ATOM     10  C   UNL     1       0.038   9.426  19.421  0.00  0.00    +0.000 C 
ATOM     11  C   UNL     1       2.117   9.444  18.003  0.00  0.00    +0.000 A 
ATOM     12  C   UNL     1       3.282   8.852  17.504  0.00  0.00    +0.000 A 
ATOM     13  C   UNL     1       3.613   7.569  17.958  0.00  0.00    +0.000 A 
ATOM     14  C   UNL     1       2.979   4.438  19.888  0.00  0.00    +0.000 C 
ATOM     15  C   UNL     1       2.668   3.354  18.841  0.00  0.00    +0.000 C 
ATOM     16  C   UNL     1       3.844   3.058  17.840  0.00  0.00    +0.000 C 
ATOM     17  C   UNL     1       4.943   4.175  17.724  0.00  0.00    +0.000 C 
ENDROOT
BRANCH   1  18
ATOM     18  C   UNL     1       5.126   4.116  15.187  0.00  0.00    +0.000 C 
BRANCH  18  19
ATOM     19  C   UNL     1       6.192   3.698  14.124  0.00  0.00    +0.000 C 
BRANCH  19  20
ATOM     20  N   UNL     1       6.005   3.942  12.675  0.00  0.00    +0.000 NA
BRANCH  20  22
ATOM     21  C   UNL     1       8.045   5.491  12.776  0.00  0.00    +0.000 C 
ATOM     22  C   UNL     1       7.331   4.314  12.123  0.00  0.00    +0.000 C 
ENDBRANCH  20  22
BRANCH  20  23
ATOM     23  C   UNL     1       5.356   2.841  11.955  0.00  0.00    +0.000 C 
ATOM     24  C   UNL     1       4.037   3.168  11.264  0.00  0.00    +0.000 C 
ENDBRANCH  20  23
ENDBRANCH  19  20
ENDBRANCH  18  19
ENDBRANCH   1  18
TORSDOF 5
ENDMDL
MODEL 7
REMARK VINA RESULT:      -6.0      0.914      1.651
REMARK  Name = 
REMARK  8 active torsions:
REMARK  status: ('A' for Active; 'I' for Inactive)
REMARK    1  A    between atoms: C_1  and  C_2
REMARK    2  A    between atoms: C_2  and  N_3
REMARK    3  A    between atoms: N_3  and  C_4
REMARK    4  A    between atoms: N_3  and  C_6
REMARK    5  A    between atoms: C_4  and  C_5
REMARK    6  A    between atoms: C_6  and  C_7
REMARK    7  A    between atoms: C_7  and  N_8
REMARK    8  A    between atoms: C_16  and  C_17
REMARK                            x       y       z     vdW  Elec       q    Type
REMARK                         _______ _______ _______ _____ _____    ______ ____
ROOT
ATOM      1  N   UNL     1       5.327   4.244  16.687  0.00  0.00    +0.000 NA
ATOM      2  C   UNL     1       6.210   5.389  17.063  0.00  0.00    +0.000 C 
ATOM      3  C   UNL     1       5.521   6.769  16.970  0.00  0.00    +0.000 C 
ATOM      4  N   UNL     1       4.259   6.717  17.676  0.00  0.00    +0.000 N 
ATOM      5  C   UNL     1       3.722   5.529  18.056  0.00  0.00    +0.000 A 
ATOM      6  C   UNL     1       2.618   5.771  18.833  0.00  0.00    +0.000 A 
ATOM      7  C   UNL     1       2.309   7.141  18.676  0.00  0.00    +0.000 A 
ATOM      8  C   UNL     1       1.185   7.920  19.007  0.00  0.00    +0.000 A 
ATOM      9  C   UNL     1       1.087   9.230  18.536  0.00  0.00    +0.000 A 
ATOM     10  C   UNL     1      -0.171  10.016  18.755  0.00  0.00    +0.000 C 
ATOM     11  C   UNL     1       2.159   9.796  17.829  0.00  0.00    +0.000 A 
ATOM     12  C   UNL     1       3.314   9.063  17.541  0.00  0.00    +0.000 A 
ATOM     13  C   UNL     1       3.353   7.718  17.932  0.00  0.00    +0.000 A 
ATOM     14  C   UNL     1       1.870   4.612  19.376  0.00  0.00    +0.000 C 
ATOM     15  C   UNL     1       1.660   3.655  18.189  0.00  0.00    +0.000 C 
ATOM     16  C   UNL     1       2.981   3.242  17.443  0.00  0.00    +0.000 C 
ATOM     17  C   UNL     1       4.221   4.180  17.673  0.00  0.00    +0.000 C 
ENDROOT
BRANCH   1  18
ATOM     18  C   UNL     1       4.968   4.247  15.242  0.00  0.00    +0.000 C 
BRANCH  18  19
ATOM     19  C   UNL     1       6.254   4.028  14.383  0.00  0.00    +0.000 C 
BRANCH  19  20
ATOM     20  N   UNL     1       6.201   3.529  12.989  0.00  0.00    +0.000 NA
BRANCH  20  22
ATOM     21  C   UNL     1       4.417   2.982  11.230  0.00  0.00    +0.000 C 
ATOM     22  C   UNL     1       4.800   3.687  12.526  0.00  0.00    +0.000 C 
ENDBRANCH  20  22
BRANCH  20  23
ATOM     23  C   UNL     1       7.189   4.135  12.091  0.00  0.00    +0.000 C 
ATOM     24  C   UNL     1       7.927   5.358  12.622  0.00  0.00    +0.000 C 
ENDBRANCH  20  23
ENDBRANCH  19  20
ENDBRANCH  18  19
ENDBRANCH   1  18
TORSDOF 5
ENDMDL
MODEL 8
REMARK VINA RESULT:      -6.0      3.271      6.840
REMARK  Name = 
REMARK  8 active torsions:
REMARK  status: ('A' for Active; 'I' for Inactive)
REMARK    1  A    between atoms: C_1  and  C_2
REMARK    2  A    between atoms: C_2  and  N_3
REMARK    3  A    between atoms: N_3  and  C_4
REMARK    4  A    between atoms: N_3  and  C_6
REMARK    5  A    between atoms: C_4  and  C_5
REMARK    6  A    between atoms: C_6  and  C_7
REMARK    7  A    between atoms: C_7  and  N_8
REMARK    8  A    between atoms: C_16  and  C_17
REMARK                            x       y       z     vdW  Elec       q    Type
REMARK                         _______ _______ _______ _____ _____    ______ ____
ROOT
ATOM      1  N   UNL     1       1.633   9.527  20.129  0.00  0.00    +0.000 NA
ATOM      2  C   UNL     1       1.835   9.872  18.689  0.00  0.00    +0.000 C 
ATOM      3  C   UNL     1       0.554   9.760  17.831  0.00  0.00    +0.000 C 
ATOM      4  N   UNL     1      -0.518  10.479  18.485  0.00  0.00    +0.000 N 
ATOM      5  C   UNL     1      -0.398  10.886  19.775  0.00  0.00    +0.000 A 
ATOM      6  C   UNL     1      -1.478  11.670  20.093  0.00  0.00    +0.000 A 
ATOM      7  C   UNL     1      -2.424  11.490  19.059  0.00  0.00    +0.000 A 
ATOM      8  C   UNL     1      -3.786  11.818  18.930  0.00  0.00    +0.000 A 
ATOM      9  C   UNL     1      -4.518  11.323  17.850  0.00  0.00    +0.000 A 
ATOM     10  C   UNL     1      -6.000  11.540  17.783  0.00  0.00    +0.000 C 
ATOM     11  C   UNL     1      -3.865  10.595  16.843  0.00  0.00    +0.000 A 
ATOM     12  C   UNL     1      -2.498  10.309  16.916  0.00  0.00    +0.000 A 
ATOM     13  C   UNL     1      -1.801  10.726  18.057  0.00  0.00    +0.000 A 
ATOM     14  C   UNL     1      -1.556  12.242  21.459  0.00  0.00    +0.000 C 
ATOM     15  C   UNL     1      -1.265  11.076  22.420  0.00  0.00    +0.000 C 
ATOM     16  C   UNL     1       0.088  10.325  22.142  0.00  0.00    +0.000 C 
ATOM     17  C   UNL     1       0.702  10.525  20.710  0.00  0.00    +0.000 C 
ENDROOT
BRANCH   1  18
ATOM     18  C   UNL     1       1.320   8.086  20.334  0.00  0.00    +0.000 C 
BRANCH  18  19
ATOM     19  C   UNL     1       2.344   7.210  19.543  0.00  0.00    +0.000 C 
BRANCH  19  20
ATOM     20  N   UNL     1       2.330   5.729  19.598  0.00  0.00    +0.000 NA
BRANCH  20  22
ATOM     21  C   UNL     1       4.242   4.701  18.234  0.00  0.00    +0.000 C 
ATOM     22  C   UNL     1       3.744   5.282  19.552  0.00  0.00    +0.000 C 
ENDBRANCH  20  22
BRANCH  20  23
ATOM     23  C   UNL     1       1.573   5.173  20.723  0.00  0.00    +0.000 C 
ATOM     24  C   UNL     1       1.051   3.751  20.552  0.00  0.00    +0.000 C 
ENDBRANCH  20  23
ENDBRANCH  19  20
ENDBRANCH  18  19
ENDBRANCH   1  18
TORSDOF 5
ENDMDL
MODEL 9
REMARK VINA RESULT:      -5.9      1.182      1.821
REMARK  Name = 
REMARK  8 active torsions:
REMARK  status: ('A' for Active; 'I' for Inactive)
REMARK    1  A    between atoms: C_1  and  C_2
REMARK    2  A    between atoms: C_2  and  N_3
REMARK    3  A    between atoms: N_3  and  C_4
REMARK    4  A    between atoms: N_3  and  C_6
REMARK    5  A    between atoms: C_4  and  C_5
REMARK    6  A    between atoms: C_6  and  C_7
REMARK    7  A    between atoms: C_7  and  N_8
REMARK    8  A    between atoms: C_16  and  C_17
REMARK                            x       y       z     vdW  Elec       q    Type
REMARK                         _______ _______ _______ _____ _____    ______ ____
ROOT
ATOM      1  N   UNL     1       5.778   4.298  16.313  0.00  0.00    +0.000 NA
ATOM      2  C   UNL     1       6.509   5.600  16.352  0.00  0.00    +0.000 C 
ATOM      3  C   UNL     1       5.584   6.838  16.390  0.00  0.00    +0.000 C 
ATOM      4  N   UNL     1       4.600   6.661  17.437  0.00  0.00    +0.000 N 
ATOM      5  C   UNL     1       4.414   5.448  18.020  0.00  0.00    +0.000 A 
ATOM      6  C   UNL     1       3.546   5.593  19.072  0.00  0.00    +0.000 A 
ATOM      7  C   UNL     1       2.963   6.873  18.939  0.00  0.00    +0.000 A 
ATOM      8  C   UNL     1       1.854   7.495  19.542  0.00  0.00    +0.000 A 
ATOM      9  C   UNL     1       1.394   8.717  19.050  0.00  0.00    +0.000 A 
ATOM     10  C   UNL     1       0.126   9.314  19.586  0.00  0.00    +0.000 C 
ATOM     11  C   UNL     1       2.106   9.370  18.032  0.00  0.00    +0.000 A 
ATOM     12  C   UNL     1       3.247   8.801  17.458  0.00  0.00    +0.000 A 
ATOM     13  C   UNL     1       3.636   7.528  17.893  0.00  0.00    +0.000 A 
ATOM     14  C   UNL     1       3.202   4.393  19.872  0.00  0.00    +0.000 C 
ATOM     15  C   UNL     1       2.846   3.297  18.852  0.00  0.00    +0.000 C 
ATOM     16  C   UNL     1       3.958   3.023  17.775  0.00  0.00    +0.000 C 
ATOM     17  C   UNL     1       5.022   4.163  17.581  0.00  0.00    +0.000 C 
ENDROOT
BRANCH   1  18
ATOM     18  C   UNL     1       5.036   4.095  15.038  0.00  0.00    +0.000 C 
BRANCH  18  19
ATOM     19  C   UNL     1       6.045   4.049  13.847  0.00  0.00    +0.000 C 
BRANCH  19  20
ATOM     20  N   UNL     1       5.784   3.265  12.617  0.00  0.00    +0.000 NA
BRANCH  20  22
ATOM     21  C   UNL     1       3.798   3.012  11.016  0.00  0.00    +0.000 C 
ATOM     22  C   UNL     1       4.628   3.899  11.936  0.00  0.00    +0.000 C 
ENDBRANCH  20  22
BRANCH  20  23
ATOM     23  C   UNL     1       6.955   3.092  11.750  0.00  0.00    +0.000 C 
ATOM     24  C   UNL     1       7.157   1.704  11.153  0.00  0.00    +0.000 C 
ENDBRANCH  20  23
ENDBRANCH  19  20
ENDBRANCH  18  19
ENDBRANCH   1  18
TORSDOF 5
ENDMDL
