MODEL 1
REMARK VINA RESULT:     -10.2      0.000      0.000
REMARK  Name = 
REMARK  6 active torsions:
REMARK  status: ('A' for Active; 'I' for Inactive)
REMARK    1  A    between atoms: N_1  and  C_2
REMARK    2  A    between atoms: C_7  and  C_8
REMARK    3  A    between atoms: C_12  and  N_13
REMARK    4  A    between atoms: N_16  and  C_17
REMARK    5  A    between atoms: C_19  and  C_20
REMARK    6  A    between atoms: C_25  and  C_26
REMARK                            x       y       z     vdW  Elec       q    Type
REMARK                         _______ _______ _______ _____ _____    ______ ____
ROOT
ATOM      1  N   UNL     1       1.395   9.485  19.500  0.00  0.00    +0.000 N 
ATOM      2  C   UNL     1       1.949   8.523  18.671  0.00  0.00    +0.000 C 
ATOM      3  O   UNL     1       2.037   8.613  17.450  0.00  0.00    +0.000 OA
ATOM      4  N   UNL     1       2.362   7.397  19.380  0.00  0.00    +0.000 N 
ATOM      5  H   UNL     1       1.758   9.512  20.442  0.00  0.00    +0.000 HD
ATOM      6  H   UNL     1       1.790   7.193  20.188  0.00  0.00    +0.000 HD
ENDROOT
BRANCH   1  11
ATOM      7  C   UNL     1      -1.359  11.770  18.387  0.00  0.00    +0.000 A 
ATOM      8  C   UNL     1      -0.641  12.976  18.328  0.00  0.00    +0.000 A 
ATOM      9  C   UNL     1       0.742  13.010  18.490  0.00  0.00    +0.000 A 
ATOM     10  C   UNL     1       1.429  11.850  18.825  0.00  0.00    +0.000 A 
ATOM     11  C   UNL     1       0.744  10.651  19.022  0.00  0.00    +0.000 A 
ATOM     12  C   UNL     1      -0.632  10.606  18.742  0.00  0.00    +0.000 A 
BRANCH   7  18
ATOM     13  C   UNL     1      -6.192  12.216  19.741  0.00  0.00    +0.000 A 
ATOM     14  C   UNL     1      -5.867  12.661  21.025  0.00  0.00    +0.000 A 
ATOM     15  C   UNL     1      -4.540  12.830  21.380  0.00  0.00    +0.000 A 
ATOM     16  C   UNL     1      -3.540  12.578  20.442  0.00  0.00    +0.000 A 
ATOM     17  C   UNL     1      -3.822  12.088  19.137  0.00  0.00    +0.000 A 
ATOM     18  C   UNL     1      -2.835  11.735  18.152  0.00  0.00    +0.000 A 
ATOM     19  C   UNL     1      -3.294  11.292  16.901  0.00  0.00    +0.000 A 
ATOM     20  C   UNL     1      -4.650  11.220  16.657  0.00  0.00    +0.000 A 
ATOM     21  N   UNL     1      -5.588  11.529  17.565  0.00  0.00    +0.000 NA
ATOM     22  C   UNL     1      -5.191  11.947  18.785  0.00  0.00    +0.000 A 
BRANCH  13  23
ATOM     23  N   UNL     1      -7.560  12.228  19.354  0.00  0.00    +0.000 N 
ATOM     24  H   UNL     1      -7.701  12.292  18.354  0.00  0.00    +0.000 HD
ATOM     25  H   UNL     1      -8.048  12.952  19.886  0.00  0.00    +0.000 HD
ENDBRANCH  13  23
ENDBRANCH   7  18
ENDBRANCH   1  11
BRANCH   4  26
ATOM     26  C   UNL     1       2.898   6.283  18.685  0.00  0.00    +0.000 A 
ATOM     27  C   UNL     1       3.884   6.445  17.703  0.00  0.00    +0.000 A 
ATOM     28  C   UNL     1       4.314   5.360  16.926  0.00  0.00    +0.000 A 
ATOM     29  C   UNL     1       3.740   4.100  17.152  0.00  0.00    +0.000 A 
ATOM     30  C   UNL     1       2.761   3.919  18.143  0.00  0.00    +0.000 A 
ATOM     31  C   UNL     1       2.373   5.015  18.934  0.00  0.00    +0.000 A 
BRANCH  28  32
ATOM     32  C   UNL     1       5.335   5.541  15.829  0.00  0.00    +0.000 C 
ATOM     33  F   UNL     1       6.622   5.569  16.265  0.00  0.00    +0.000 F 
ATOM     34  F   UNL     1       5.276   4.539  14.905  0.00  0.00    +0.000 F 
ATOM     35  F   UNL     1       5.145   6.695  15.133  0.00  0.00    +0.000 F 
ENDBRANCH  28  32
BRANCH  30  36
ATOM     36  C   UNL     1       2.072   2.587  18.318  0.00  0.00    +0.000 C 
ATOM     37  F   UNL     1       2.431   1.933  19.457  0.00  0.00    +0.000 F 
ATOM     38  F   UNL     1       0.718   2.705  18.361  0.00  0.00    +0.000 F 
ATOM     39  F   UNL     1       2.341   1.730  17.294  0.00  0.00    +0.000 F 
ENDBRANCH  30  36
ENDBRANCH   4  26
TORSDOF 6
ENDMDL
MODEL 2
REMARK VINA RESULT:     -10.2      0.371      2.967
REMARK  Name = 
REMARK  6 active torsions:
REMARK  status: ('A' for Active; 'I' for Inactive)
REMARK    1  A    between atoms: N_1  and  C_2
REMARK    2  A    between atoms: C_7  and  C_8
REMARK    3  A    between atoms: C_12  and  N_13
REMARK    4  A    between atoms: N_16  and  C_17
REMARK    5  A    between atoms: C_19  and  C_20
REMARK    6  A    between atoms: C_25  and  C_26
REMARK                            x       y       z     vdW  Elec       q    Type
REMARK                         _______ _______ _______ _____ _____    ______ ____
ROOT
ATOM      1  N   UNL     1       1.478   9.579  19.368  0.00  0.00    +0.000 N 
ATOM      2  C   UNL     1       1.929   8.600  18.497  0.00  0.00    +0.000 C 
ATOM      3  O   UNL     1       1.892   8.676  17.272  0.00  0.00    +0.000 OA
ATOM      4  N   UNL     1       2.397   7.475  19.173  0.00  0.00    +0.000 N 
ATOM      5  H   UNL     1       1.937   9.610  20.267  0.00  0.00    +0.000 HD
ATOM      6  H   UNL     1       1.909   7.289  20.038  0.00  0.00    +0.000 HD
ENDROOT
BRANCH   1  11
ATOM      7  C   UNL     1      -1.335  11.855  18.393  0.00  0.00    +0.000 A 
ATOM      8  C   UNL     1      -0.639  13.075  18.365  0.00  0.00    +0.000 A 
ATOM      9  C   UNL     1       0.746  13.127  18.502  0.00  0.00    +0.000 A 
ATOM     10  C   UNL     1       1.459  11.967  18.780  0.00  0.00    +0.000 A 
ATOM     11  C   UNL     1       0.798  10.750  18.946  0.00  0.00    +0.000 A 
ATOM     12  C   UNL     1      -0.582  10.691  18.690  0.00  0.00    +0.000 A 
BRANCH   7  18
ATOM     13  C   UNL     1      -6.148  12.197  19.845  0.00  0.00    +0.000 A 
ATOM     14  C   UNL     1      -5.806  12.618  21.133  0.00  0.00    +0.000 A 
ATOM     15  C   UNL     1      -4.475  12.800  21.467  0.00  0.00    +0.000 A 
ATOM     16  C   UNL     1      -3.489  12.583  20.505  0.00  0.00    +0.000 A 
ATOM     17  C   UNL     1      -3.789  12.118  19.194  0.00  0.00    +0.000 A 
ATOM     18  C   UNL     1      -2.815  11.802  18.184  0.00  0.00    +0.000 A 
ATOM     19  C   UNL     1      -3.291  11.379  16.933  0.00  0.00    +0.000 A 
ATOM     20  C   UNL     1      -4.650  11.292  16.712  0.00  0.00    +0.000 A 
ATOM     21  N   UNL     1      -5.575  11.567  17.644  0.00  0.00    +0.000 NA
ATOM     22  C   UNL     1      -5.161  11.963  18.865  0.00  0.00    +0.000 A 
BRANCH  13  23
ATOM     23  N   UNL     1      -7.523  12.196  19.484  0.00  0.00    +0.000 N 
ATOM     24  H   UNL     1      -8.100  11.609  20.074  0.00  0.00    +0.000 HD
ATOM     25  H   UNL     1      -7.603  11.981  18.487  0.00  0.00    +0.000 HD
ENDBRANCH  13  23
ENDBRANCH   7  18
ENDBRANCH   1  11
BRANCH   4  26
ATOM     26  C   UNL     1       2.841   6.346  18.439  0.00  0.00    +0.000 A 
ATOM     27  C   UNL     1       2.253   5.087  18.615  0.00  0.00    +0.000 A 
ATOM     28  C   UNL     1       2.781   3.949  17.989  0.00  0.00    +0.000 A 
ATOM     29  C   UNL     1       3.914   4.092  17.175  0.00  0.00    +0.000 A 
ATOM     30  C   UNL     1       4.507   5.351  16.977  0.00  0.00    +0.000 A 
ATOM     31  C   UNL     1       3.937   6.483  17.586  0.00  0.00    +0.000 A 
BRANCH  28  32
ATOM     32  C   UNL     1       2.184   2.582  18.222  0.00  0.00    +0.000 C 
ATOM     33  F   UNL     1       2.654   1.951  19.331  0.00  0.00    +0.000 F 
ATOM     34  F   UNL     1       0.829   2.634  18.369  0.00  0.00    +0.000 F 
ATOM     35  F   UNL     1       2.409   1.736  17.180  0.00  0.00    +0.000 F 
ENDBRANCH  28  32
BRANCH  30  36
ATOM     36  C   UNL     1       5.784   5.490  16.184  0.00  0.00    +0.000 C 
ATOM     37  F   UNL     1       5.582   5.840  14.884  0.00  0.00    +0.000 F 
ATOM     38  F   UNL     1       6.618   6.431  16.703  0.00  0.00    +0.000 F 
ATOM     39  F   UNL     1       6.499   4.331  16.152  0.00  0.00    +0.000 F 
ENDBRANCH  30  36
ENDBRANCH   4  26
TORSDOF 6
ENDMDL
MODEL 3
REMARK VINA RESULT:     -10.1      0.648      1.173
REMARK  Name = 
REMARK  6 active torsions:
REMARK  status: ('A' for Active; 'I' for Inactive)
REMARK    1  A    between atoms: N_1  and  C_2
REMARK    2  A    between atoms: C_7  and  C_8
REMARK    3  A    between atoms: C_12  and  N_13
REMARK    4  A    between atoms: N_16  and  C_17
REMARK    5  A    between atoms: C_19  and  C_20
REMARK    6  A    between atoms: C_25  and  C_26
REMARK                            x       y       z     vdW  Elec       q    Type
REMARK                         _______ _______ _______ _____ _____    ______ ____
ROOT
ATOM      1  N   UNL     1       1.346   9.558  19.837  0.00  0.00    +0.000 N 
ATOM      2  C   UNL     1       1.785   8.472  19.095  0.00  0.00    +0.000 C 
ATOM      3  O   UNL     1       1.783   8.411  17.869  0.00  0.00    +0.000 OA
ATOM      4  N   UNL     1       2.192   7.416  19.907  0.00  0.00    +0.000 N 
ATOM      5  H   UNL     1       1.781   9.675  20.741  0.00  0.00    +0.000 HD
ATOM      6  H   UNL     1       1.673   7.345  20.772  0.00  0.00    +0.000 HD
ENDROOT
BRANCH   1  11
ATOM      7  C   UNL     1      -1.352  11.794  18.506  0.00  0.00    +0.000 A 
ATOM      8  C   UNL     1      -0.617  12.984  18.383  0.00  0.00    +0.000 A 
ATOM      9  C   UNL     1       0.762  13.013  18.575  0.00  0.00    +0.000 A 
ATOM     10  C   UNL     1       1.426  11.870  19.004  0.00  0.00    +0.000 A 
ATOM     11  C   UNL     1       0.721  10.696  19.265  0.00  0.00    +0.000 A 
ATOM     12  C   UNL     1      -0.649  10.648  18.956  0.00  0.00    +0.000 A 
BRANCH   7  18
ATOM     13  C   UNL     1      -6.213  12.232  19.757  0.00  0.00    +0.000 A 
ATOM     14  C   UNL     1      -5.916  12.671  21.050  0.00  0.00    +0.000 A 
ATOM     15  C   UNL     1      -4.597  12.838  21.435  0.00  0.00    +0.000 A 
ATOM     16  C   UNL     1      -3.577  12.590  20.517  0.00  0.00    +0.000 A 
ATOM     17  C   UNL     1      -3.831  12.107  19.204  0.00  0.00    +0.000 A 
ATOM     18  C   UNL     1      -2.823  11.759  18.239  0.00  0.00    +0.000 A 
ATOM     19  C   UNL     1      -3.254  11.322  16.977  0.00  0.00    +0.000 A 
ATOM     20  C   UNL     1      -4.604  11.251  16.702  0.00  0.00    +0.000 A 
ATOM     21  N   UNL     1      -5.562  11.556  17.592  0.00  0.00    +0.000 NA
ATOM     22  C   UNL     1      -5.191  11.967  18.821  0.00  0.00    +0.000 A 
BRANCH  13  23
ATOM     23  N   UNL     1      -7.572  12.245  19.341  0.00  0.00    +0.000 N 
ATOM     24  H   UNL     1      -7.693  12.199  18.337  0.00  0.00    +0.000 HD
ATOM     25  H   UNL     1      -8.043  13.042  19.775  0.00  0.00    +0.000 HD
ENDBRANCH  13  23
ENDBRANCH   7  18
ENDBRANCH   1  11
BRANCH   4  26
ATOM     26  C   UNL     1       2.615   6.197  19.318  0.00  0.00    +0.000 A 
ATOM     27  C   UNL     1       3.601   6.173  18.325  0.00  0.00    +0.000 A 
ATOM     28  C   UNL     1       3.920   4.985  17.652  0.00  0.00    +0.000 A 
ATOM     29  C   UNL     1       3.234   3.811  17.996  0.00  0.00    +0.000 A 
ATOM     30  C   UNL     1       2.253   3.816  19.001  0.00  0.00    +0.000 A 
ATOM     31  C   UNL     1       1.977   5.012  19.687  0.00  0.00    +0.000 A 
BRANCH  28  32
ATOM     32  C   UNL     1       4.942   4.967  16.540  0.00  0.00    +0.000 C 
ATOM     33  F   UNL     1       4.938   6.083  15.763  0.00  0.00    +0.000 F 
ATOM     34  F   UNL     1       6.215   4.850  17.017  0.00  0.00    +0.000 F 
ATOM     35  F   UNL     1       4.767   3.916  15.695  0.00  0.00    +0.000 F 
ENDBRANCH  28  32
BRANCH  30  36
ATOM     36  C   UNL     1       1.445   2.576  19.302  0.00  0.00    +0.000 C 
ATOM     37  F   UNL     1       0.308   2.474  18.561  0.00  0.00    +0.000 F 
ATOM     38  F   UNL     1       2.146   1.432  19.079  0.00  0.00    +0.000 F 
ATOM     39  F   UNL     1       1.049   2.524  20.605  0.00  0.00    +0.000 F 
ENDBRANCH  30  36
ENDBRANCH   4  26
TORSDOF 6
ENDMDL
MODEL 4
REMARK VINA RESULT:      -9.8      1.061      1.442
REMARK  Name = 
REMARK  6 active torsions:
REMARK  status: ('A' for Active; 'I' for Inactive)
REMARK    1  A    between atoms: N_1  and  C_2
REMARK    2  A    between atoms: C_7  and  C_8
REMARK    3  A    between atoms: C_12  and  N_13
REMARK    4  A    between atoms: N_16  and  C_17
REMARK    5  A    between atoms: C_19  and  C_20
REMARK    6  A    between atoms: C_25  and  C_26
REMARK                            x       y       z     vdW  Elec       q    Type
REMARK                         _______ _______ _______ _____ _____    ______ ____
ROOT
ATOM      1  N   UNL     1       1.110   9.189  20.103  0.00  0.00    +0.000 N 
ATOM      2  C   UNL     1       1.851   8.222  19.444  0.00  0.00    +0.000 C 
ATOM      3  O   UNL     1       2.239   8.303  18.283  0.00  0.00    +0.000 OA
ATOM      4  N   UNL     1       2.074   7.102  20.242  0.00  0.00    +0.000 N 
ATOM      5  H   UNL     1       1.228   9.224  21.106  0.00  0.00    +0.000 HD
ATOM      6  H   UNL     1       1.320   6.904  20.884  0.00  0.00    +0.000 HD
ENDROOT
BRANCH   1  11
ATOM      7  C   UNL     1      -1.347  11.564  18.562  0.00  0.00    +0.000 A 
ATOM      8  C   UNL     1      -0.527  12.700  18.457  0.00  0.00    +0.000 A 
ATOM      9  C   UNL     1       0.837  12.642  18.732  0.00  0.00    +0.000 A 
ATOM     10  C   UNL     1       1.395  11.469  19.226  0.00  0.00    +0.000 A 
ATOM     11  C   UNL     1       0.598  10.351  19.470  0.00  0.00    +0.000 A 
ATOM     12  C   UNL     1      -0.751  10.386  19.079  0.00  0.00    +0.000 A 
BRANCH   7  18
ATOM     13  C   UNL     1      -6.235  12.338  19.510  0.00  0.00    +0.000 A 
ATOM     14  C   UNL     1      -5.987  12.779  20.813  0.00  0.00    +0.000 A 
ATOM     15  C   UNL     1      -4.685  12.868  21.274  0.00  0.00    +0.000 A 
ATOM     16  C   UNL     1      -3.631  12.538  20.424  0.00  0.00    +0.000 A 
ATOM     17  C   UNL     1      -3.837  12.049  19.104  0.00  0.00    +0.000 A 
ATOM     18  C   UNL     1      -2.798  11.619  18.207  0.00  0.00    +0.000 A 
ATOM     19  C   UNL     1      -3.182  11.189  16.927  0.00  0.00    +0.000 A 
ATOM     20  C   UNL     1      -4.515  11.201  16.572  0.00  0.00    +0.000 A 
ATOM     21  N   UNL     1      -5.502  11.583  17.398  0.00  0.00    +0.000 NA
ATOM     22  C   UNL     1      -5.179  11.991  18.642  0.00  0.00    +0.000 A 
BRANCH  13  23
ATOM     23  N   UNL     1      -7.563  12.432  19.012  0.00  0.00    +0.000 N 
ATOM     24  H   UNL     1      -7.906  13.381  18.938  0.00  0.00    +0.000 HD
ATOM     25  H   UNL     1      -8.167  11.819  19.565  0.00  0.00    +0.000 HD
ENDBRANCH  13  23
ENDBRANCH   7  18
ENDBRANCH   1  11
BRANCH   4  26
ATOM     26  C   UNL     1       2.765   5.984  19.710  0.00  0.00    +0.000 A 
ATOM     27  C   UNL     1       4.109   6.074  19.328  0.00  0.00    +0.000 A 
ATOM     28  C   UNL     1       4.749   5.008  18.680  0.00  0.00    +0.000 A 
ATOM     29  C   UNL     1       4.018   3.839  18.422  0.00  0.00    +0.000 A 
ATOM     30  C   UNL     1       2.672   3.728  18.812  0.00  0.00    +0.000 A 
ATOM     31  C   UNL     1       2.064   4.796  19.494  0.00  0.00    +0.000 A 
BRANCH  28  32
ATOM     32  C   UNL     1       6.181   5.122  18.215  0.00  0.00    +0.000 C 
ATOM     33  F   UNL     1       6.613   4.064  17.479  0.00  0.00    +0.000 F 
ATOM     34  F   UNL     1       6.379   6.224  17.435  0.00  0.00    +0.000 F 
ATOM     35  F   UNL     1       7.053   5.244  19.253  0.00  0.00    +0.000 F 
ENDBRANCH  28  32
BRANCH  30  36
ATOM     36  C   UNL     1       1.857   2.511  18.446  0.00  0.00    +0.000 C 
ATOM     37  F   UNL     1       0.531   2.772  18.286  0.00  0.00    +0.000 F 
ATOM     38  F   UNL     1       2.272   1.937  17.286  0.00  0.00    +0.000 F 
ATOM     39  F   UNL     1       1.934   1.537  19.395  0.00  0.00    +0.000 F 
ENDBRANCH  30  36
ENDBRANCH   4  26
TORSDOF 6
ENDMDL
MODEL 5
REMARK VINA RESULT:      -9.7      2.182      4.235
REMARK  Name = 
REMARK  6 active torsions:
REMARK  status: ('A' for Active; 'I' for Inactive)
REMARK    1  A    between atoms: N_1  and  C_2
REMARK    2  A    between atoms: C_7  and  C_8
REMARK    3  A    between atoms: C_12  and  N_13
REMARK    4  A    between atoms: N_16  and  C_17
REMARK    5  A    between atoms: C_19  and  C_20
REMARK    6  A    between atoms: C_25  and  C_26
REMARK                            x       y       z     vdW  Elec       q    Type
REMARK                         _______ _______ _______ _____ _____    ______ ____
ROOT
ATOM      1  N   UNL     1       1.101   9.694  21.650  0.00  0.00    +0.000 N 
ATOM      2  C   UNL     1       1.309   8.776  20.633  0.00  0.00    +0.000 C 
ATOM      3  O   UNL     1       1.013   8.952  19.455  0.00  0.00    +0.000 OA
ATOM      4  N   UNL     1       1.857   7.586  21.108  0.00  0.00    +0.000 N 
ATOM      5  H   UNL     1       1.743   9.639  22.427  0.00  0.00    +0.000 HD
ATOM      6  H   UNL     1       1.557   7.346  22.043  0.00  0.00    +0.000 HD
ENDROOT
BRANCH   1  11
ATOM      7  C   UNL     1      -1.613  12.265  21.915  0.00  0.00    +0.000 A 
ATOM      8  C   UNL     1      -0.930  13.371  21.382  0.00  0.00    +0.000 A 
ATOM      9  C   UNL     1       0.329  13.238  20.801  0.00  0.00    +0.000 A 
ATOM     10  C   UNL     1       0.984  12.013  20.839  0.00  0.00    +0.000 A 
ATOM     11  C   UNL     1       0.401  10.916  21.472  0.00  0.00    +0.000 A 
ATOM     12  C   UNL     1      -0.915  11.032  21.949  0.00  0.00    +0.000 A 
BRANCH   7  18
ATOM     13  C   UNL     1      -6.579  13.080  21.655  0.00  0.00    +0.000 A 
ATOM     14  C   UNL     1      -6.566  13.159  20.259  0.00  0.00    +0.000 A 
ATOM     15  C   UNL     1      -5.381  12.968  19.569  0.00  0.00    +0.000 A 
ATOM     16  C   UNL     1      -4.215  12.676  20.275  0.00  0.00    +0.000 A 
ATOM     17  C   UNL     1      -4.173  12.624  21.696  0.00  0.00    +0.000 A 
ATOM     18  C   UNL     1      -2.990  12.405  22.482  0.00  0.00    +0.000 A 
ATOM     19  C   UNL     1      -3.137  12.357  23.878  0.00  0.00    +0.000 A 
ATOM     20  C   UNL     1      -4.388  12.508  24.439  0.00  0.00    +0.000 A 
ATOM     21  N   UNL     1      -5.503  12.729  23.725  0.00  0.00    +0.000 NA
ATOM     22  C   UNL     1      -5.404  12.796  22.382  0.00  0.00    +0.000 A 
BRANCH  13  23
ATOM     23  N   UNL     1      -7.837  13.100  22.316  0.00  0.00    +0.000 N 
ATOM     24  H   UNL     1      -7.769  13.172  23.323  0.00  0.00    +0.000 HD
ATOM     25  H   UNL     1      -8.391  12.302  21.996  0.00  0.00    +0.000 HD
ENDBRANCH  13  23
ENDBRANCH   7  18
ENDBRANCH   1  11
BRANCH   4  26
ATOM     26  C   UNL     1       2.080   6.508  20.215  0.00  0.00    +0.000 A 
ATOM     27  C   UNL     1       1.496   5.253  20.430  0.00  0.00    +0.000 A 
ATOM     28  C   UNL     1       1.824   4.155  19.623  0.00  0.00    +0.000 A 
ATOM     29  C   UNL     1       2.752   4.334  18.587  0.00  0.00    +0.000 A 
ATOM     30  C   UNL     1       3.336   5.590  18.349  0.00  0.00    +0.000 A 
ATOM     31  C   UNL     1       2.962   6.684  19.148  0.00  0.00    +0.000 A 
BRANCH  28  32
ATOM     32  C   UNL     1       1.240   2.788  19.888  0.00  0.00    +0.000 C 
ATOM     33  F   UNL     1       0.897   2.572  21.186  0.00  0.00    +0.000 F 
ATOM     34  F   UNL     1       0.107   2.567  19.161  0.00  0.00    +0.000 F 
ATOM     35  F   UNL     1       2.096   1.786  19.550  0.00  0.00    +0.000 F 
ENDBRANCH  28  32
BRANCH  30  36
ATOM     36  C   UNL     1       4.408   5.761  17.299  0.00  0.00    +0.000 C 
ATOM     37  F   UNL     1       4.419   4.771  16.365  0.00  0.00    +0.000 F 
ATOM     38  F   UNL     1       4.280   6.927  16.611  0.00  0.00    +0.000 F 
ATOM     39  F   UNL     1       5.658   5.779  17.840  0.00  0.00    +0.000 F 
ENDBRANCH  30  36
ENDBRANCH   4  26
TORSDOF 6
ENDMDL
MODEL 6
REMARK VINA RESULT:      -9.7      0.969      3.524
REMARK  Name = 
REMARK  6 active torsions:
REMARK  status: ('A' for Active; 'I' for Inactive)
REMARK    1  A    between atoms: N_1  and  C_2
REMARK    2  A    between atoms: C_7  and  C_8
REMARK    3  A    between atoms: C_12  and  N_13
REMARK    4  A    between atoms: N_16  and  C_17
REMARK    5  A    between atoms: C_19  and  C_20
REMARK    6  A    between atoms: C_25  and  C_26
REMARK                            x       y       z     vdW  Elec       q    Type
REMARK                         _______ _______ _______ _____ _____    ______ ____
ROOT
ATOM      1  N   UNL     1       1.485   9.579  19.983  0.00  0.00    +0.000 N 
ATOM      2  C   UNL     1       1.721   8.517  19.124  0.00  0.00    +0.000 C 
ATOM      3  O   UNL     1       1.469   8.514  17.923  0.00  0.00    +0.000 OA
ATOM      4  N   UNL     1       2.241   7.411  19.793  0.00  0.00    +0.000 N 
ATOM      5  H   UNL     1       2.098   9.639  20.783  0.00  0.00    +0.000 HD
ATOM      6  H   UNL     1       1.906   7.315  20.741  0.00  0.00    +0.000 HD
ENDROOT
BRANCH   1  11
ATOM      7  C   UNL     1      -1.252  12.120  19.674  0.00  0.00    +0.000 A 
ATOM      8  C   UNL     1      -0.520  13.170  19.095  0.00  0.00    +0.000 A 
ATOM      9  C   UNL     1       0.793  12.994  18.668  0.00  0.00    +0.000 A 
ATOM     10  C   UNL     1       1.446  11.792  18.910  0.00  0.00    +0.000 A 
ATOM     11  C   UNL     1       0.804  10.762  19.597  0.00  0.00    +0.000 A 
ATOM     12  C   UNL     1      -0.556  10.910  19.918  0.00  0.00    +0.000 A 
BRANCH   7  18
ATOM     13  C   UNL     1      -6.227  12.165  18.878  0.00  0.00    +0.000 A 
ATOM     14  C   UNL     1      -6.095  11.701  17.567  0.00  0.00    +0.000 A 
ATOM     15  C   UNL     1      -4.840  11.404  17.064  0.00  0.00    +0.000 A 
ATOM     16  C   UNL     1      -3.720  11.550  17.882  0.00  0.00    +0.000 A 
ATOM     17  C   UNL     1      -3.804  12.054  19.210  0.00  0.00    +0.000 A 
ATOM     18  C   UNL     1      -2.682  12.300  20.075  0.00  0.00    +0.000 A 
ATOM     19  C   UNL     1      -2.950  12.775  21.368  0.00  0.00    +0.000 A 
ATOM     20  C   UNL     1      -4.255  12.979  21.765  0.00  0.00    +0.000 A 
ATOM     21  N   UNL     1      -5.316  12.771  20.969  0.00  0.00    +0.000 NA
ATOM     22  C   UNL     1      -5.103  12.327  19.714  0.00  0.00    +0.000 A 
BRANCH  13  23
ATOM     23  N   UNL     1      -7.537  12.286  19.418  0.00  0.00    +0.000 N 
ATOM     24  H   UNL     1      -8.273  12.212  18.726  0.00  0.00    +0.000 HD
ATOM     25  H   UNL     1      -7.586  13.138  19.980  0.00  0.00    +0.000 HD
ENDBRANCH  13  23
ENDBRANCH   7  18
ENDBRANCH   1  11
BRANCH   4  26
ATOM     26  C   UNL     1       2.487   6.209  19.082  0.00  0.00    +0.000 A 
ATOM     27  C   UNL     1       1.838   5.016  19.424  0.00  0.00    +0.000 A 
ATOM     28  C   UNL     1       2.182   3.804  18.809  0.00  0.00    +0.000 A 
ATOM     29  C   UNL     1       3.190   3.806  17.834  0.00  0.00    +0.000 A 
ATOM     30  C   UNL     1       3.839   4.997  17.468  0.00  0.00    +0.000 A 
ATOM     31  C   UNL     1       3.451   6.205  18.073  0.00  0.00    +0.000 A 
BRANCH  28  32
ATOM     32  C   UNL     1       1.525   2.507  19.217  0.00  0.00    +0.000 C 
ATOM     33  F   UNL     1       1.234   2.424  20.542  0.00  0.00    +0.000 F 
ATOM     34  F   UNL     1       0.346   2.303  18.563  0.00  0.00    +0.000 F 
ATOM     35  F   UNL     1       2.298   1.424  18.930  0.00  0.00    +0.000 F 
ENDBRANCH  28  32
BRANCH  30  36
ATOM     36  C   UNL     1       4.992   4.984  16.493  0.00  0.00    +0.000 C 
ATOM     37  F   UNL     1       4.979   3.917  15.648  0.00  0.00    +0.000 F 
ATOM     38  F   UNL     1       5.016   6.091  15.703  0.00  0.00    +0.000 F 
ATOM     39  F   UNL     1       6.199   4.947  17.124  0.00  0.00    +0.000 F 
ENDBRANCH  30  36
ENDBRANCH   4  26
TORSDOF 6
ENDMDL
MODEL 7
REMARK VINA RESULT:      -9.7      0.781      1.824
REMARK  Name = 
REMARK  6 active torsions:
REMARK  status: ('A' for Active; 'I' for Inactive)
REMARK    1  A    between atoms: N_1  and  C_2
REMARK    2  A    between atoms: C_7  and  C_8
REMARK    3  A    between atoms: C_12  and  N_13
REMARK    4  A    between atoms: N_16  and  C_17
REMARK    5  A    between atoms: C_19  and  C_20
REMARK    6  A    between atoms: C_25  and  C_26
REMARK                            x       y       z     vdW  Elec       q    Type
REMARK                         _______ _______ _______ _____ _____    ______ ____
ROOT
ATOM      1  N   UNL     1       1.319   9.436  19.939  0.00  0.00    +0.000 N 
ATOM      2  C   UNL     1       1.858   8.523  19.048  0.00  0.00    +0.000 C 
ATOM      3  O   UNL     1       1.930   8.683  17.833  0.00  0.00    +0.000 OA
ATOM      4  N   UNL     1       2.275   7.356  19.685  0.00  0.00    +0.000 N 
ATOM      5  H   UNL     1       1.694   9.408  20.877  0.00  0.00    +0.000 HD
ATOM      6  H   UNL     1       1.713   7.108  20.488  0.00  0.00    +0.000 HD
ENDROOT
BRANCH   1  11
ATOM      7  C   UNL     1      -1.349  12.047  19.610  0.00  0.00    +0.000 A 
ATOM      8  C   UNL     1      -0.595  13.066  19.003  0.00  0.00    +0.000 A 
ATOM      9  C   UNL     1       0.709  12.845  18.567  0.00  0.00    +0.000 A 
ATOM     10  C   UNL     1       1.330  11.629  18.825  0.00  0.00    +0.000 A 
ATOM     11  C   UNL     1       0.667  10.631  19.538  0.00  0.00    +0.000 A 
ATOM     12  C   UNL     1      -0.685  10.823  19.870  0.00  0.00    +0.000 A 
BRANCH   7  18
ATOM     13  C   UNL     1      -6.325  12.272  18.848  0.00  0.00    +0.000 A 
ATOM     14  C   UNL     1      -6.218  11.812  17.533  0.00  0.00    +0.000 A 
ATOM     15  C   UNL     1      -4.978  11.475  17.020  0.00  0.00    +0.000 A 
ATOM     16  C   UNL     1      -3.848  11.575  17.831  0.00  0.00    +0.000 A 
ATOM     17  C   UNL     1      -3.905  12.074  19.163  0.00  0.00    +0.000 A 
ATOM     18  C   UNL     1      -2.769  12.274  20.021  0.00  0.00    +0.000 A 
ATOM     19  C   UNL     1      -3.012  12.751  21.320  0.00  0.00    +0.000 A 
ATOM     20  C   UNL     1      -4.307  12.997  21.726  0.00  0.00    +0.000 A 
ATOM     21  N   UNL     1      -5.380  12.832  20.937  0.00  0.00    +0.000 NA
ATOM     22  C   UNL     1      -5.190  12.389  19.677  0.00  0.00    +0.000 A 
BRANCH  13  23
ATOM     23  N   UNL     1      -7.627  12.435  19.398  0.00  0.00    +0.000 N 
ATOM     24  H   UNL     1      -8.369  12.388  18.711  0.00  0.00    +0.000 HD
ATOM     25  H   UNL     1      -7.642  13.287  19.963  0.00  0.00    +0.000 HD
ENDBRANCH  13  23
ENDBRANCH   7  18
ENDBRANCH   1  11
BRANCH   4  26
ATOM     26  C   UNL     1       2.797   6.282  18.920  0.00  0.00    +0.000 A 
ATOM     27  C   UNL     1       3.771   6.496  17.937  0.00  0.00    +0.000 A 
ATOM     28  C   UNL     1       4.186   5.457  17.093  0.00  0.00    +0.000 A 
ATOM     29  C   UNL     1       3.609   4.188  17.252  0.00  0.00    +0.000 A 
ATOM     30  C   UNL     1       2.642   3.954  18.244  0.00  0.00    +0.000 A 
ATOM     31  C   UNL     1       2.269   5.003  19.102  0.00  0.00    +0.000 A 
BRANCH  28  32
ATOM     32  C   UNL     1       5.193   5.698  15.994  0.00  0.00    +0.000 C 
ATOM     33  F   UNL     1       6.480   5.775  16.427  0.00  0.00    +0.000 F 
ATOM     34  F   UNL     1       5.174   4.707  15.056  0.00  0.00    +0.000 F 
ATOM     35  F   UNL     1       4.952   6.852  15.315  0.00  0.00    +0.000 F 
ENDBRANCH  28  32
BRANCH  30  36
ATOM     36  C   UNL     1       1.948   2.617  18.351  0.00  0.00    +0.000 C 
ATOM     37  F   UNL     1       2.237   1.943  19.498  0.00  0.00    +0.000 F 
ATOM     38  F   UNL     1       0.594   2.729  18.309  0.00  0.00    +0.000 F 
ATOM     39  F   UNL     1       2.287   1.780  17.331  0.00  0.00    +0.000 F 
ENDBRANCH  30  36
ENDBRANCH   4  26
TORSDOF 6
ENDMDL
MODEL 8
REMARK VINA RESULT:      -9.7      1.078      2.126
REMARK  Name = 
REMARK  6 active torsions:
REMARK  status: ('A' for Active; 'I' for Inactive)
REMARK    1  A    between atoms: N_1  and  C_2
REMARK    2  A    between atoms: C_7  and  C_8
REMARK    3  A    between atoms: C_12  and  N_13
REMARK    4  A    between atoms: N_16  and  C_17
REMARK    5  A    between atoms: C_19  and  C_20
REMARK    6  A    between atoms: C_25  and  C_26
REMARK                            x       y       z     vdW  Elec       q    Type
REMARK                         _______ _______ _______ _____ _____    ______ ____
ROOT
ATOM      1  N   UNL     1       1.337   9.581  20.203  0.00  0.00    +0.000 N 
ATOM      2  C   UNL     1       1.701   8.505  19.410  0.00  0.00    +0.000 C 
ATOM      3  O   UNL     1       1.566   8.452  18.191  0.00  0.00    +0.000 OA
ATOM      4  N   UNL     1       2.203   7.447  20.163  0.00  0.00    +0.000 N 
ATOM      5  H   UNL     1       1.867   9.696  21.055  0.00  0.00    +0.000 HD
ATOM      6  H   UNL     1       1.783   7.365  21.079  0.00  0.00    +0.000 HD
ENDROOT
BRANCH   1  11
ATOM      7  C   UNL     1      -1.411  12.080  19.700  0.00  0.00    +0.000 A 
ATOM      8  C   UNL     1      -0.696  13.061  18.992  0.00  0.00    +0.000 A 
ATOM      9  C   UNL     1       0.605  12.838  18.550  0.00  0.00    +0.000 A 
ATOM     10  C   UNL     1       1.265  11.667  18.901  0.00  0.00    +0.000 A 
ATOM     11  C   UNL     1       0.643  10.718  19.712  0.00  0.00    +0.000 A 
ATOM     12  C   UNL     1      -0.707  10.901  20.053  0.00  0.00    +0.000 A 
BRANCH   7  18
ATOM     13  C   UNL     1      -6.390  12.308  18.960  0.00  0.00    +0.000 A 
ATOM     14  C   UNL     1      -6.288  11.855  17.642  0.00  0.00    +0.000 A 
ATOM     15  C   UNL     1      -5.049  11.522  17.122  0.00  0.00    +0.000 A 
ATOM     16  C   UNL     1      -3.916  11.618  17.929  0.00  0.00    +0.000 A 
ATOM     17  C   UNL     1      -3.968  12.109  19.263  0.00  0.00    +0.000 A 
ATOM     18  C   UNL     1      -2.829  12.305  20.118  0.00  0.00    +0.000 A 
ATOM     19  C   UNL     1      -3.066  12.773  21.420  0.00  0.00    +0.000 A 
ATOM     20  C   UNL     1      -4.360  13.017  21.834  0.00  0.00    +0.000 A 
ATOM     21  N   UNL     1      -5.436  12.856  21.048  0.00  0.00    +0.000 NA
ATOM     22  C   UNL     1      -5.251  12.420  19.785  0.00  0.00    +0.000 A 
BRANCH  13  23
ATOM     23  N   UNL     1      -7.689  12.467  19.515  0.00  0.00    +0.000 N 
ATOM     24  H   UNL     1      -7.687  12.820  20.464  0.00  0.00    +0.000 HD
ATOM     25  H   UNL     1      -8.206  11.592  19.403  0.00  0.00    +0.000 HD
ENDBRANCH  13  23
ENDBRANCH   7  18
ENDBRANCH   1  11
BRANCH   4  26
ATOM     26  C   UNL     1       2.569   6.236  19.523  0.00  0.00    +0.000 A 
ATOM     27  C   UNL     1       3.531   6.214  18.505  0.00  0.00    +0.000 A 
ATOM     28  C   UNL     1       3.793   5.040  17.785  0.00  0.00    +0.000 A 
ATOM     29  C   UNL     1       3.075   3.879  18.104  0.00  0.00    +0.000 A 
ATOM     30  C   UNL     1       2.117   3.881  19.132  0.00  0.00    +0.000 A 
ATOM     31  C   UNL     1       1.899   5.061  19.865  0.00  0.00    +0.000 A 
BRANCH  28  32
ATOM     32  C   UNL     1       4.788   5.027  16.649  0.00  0.00    +0.000 C 
ATOM     33  F   UNL     1       4.536   4.086  15.700  0.00  0.00    +0.000 F 
ATOM     34  F   UNL     1       4.826   6.220  15.988  0.00  0.00    +0.000 F 
ATOM     35  F   UNL     1       6.060   4.803  17.078  0.00  0.00    +0.000 F 
ENDBRANCH  28  32
BRANCH  30  36
ATOM     36  C   UNL     1       1.274   2.660  19.409  0.00  0.00    +0.000 C 
ATOM     37  F   UNL     1       0.738   2.640  20.660  0.00  0.00    +0.000 F 
ATOM     38  F   UNL     1       0.227   2.546  18.549  0.00  0.00    +0.000 F 
ATOM     39  F   UNL     1       1.986   1.505  19.288  0.00  0.00    +0.000 F 
ENDBRANCH  30  36
ENDBRANCH   4  26
TORSDOF 6
ENDMDL
MODEL 9
REMARK VINA RESULT:      -9.7      1.108      1.215
REMARK  Name = 
REMARK  6 active torsions:
REMARK  status: ('A' for Active; 'I' for Inactive)
REMARK    1  A    between atoms: N_1  and  C_2
REMARK    2  A    between atoms: C_7  and  C_8
REMARK    3  A    between atoms: C_12  and  N_13
REMARK    4  A    between atoms: N_16  and  C_17
REMARK    5  A    between atoms: C_19  and  C_20
REMARK    6  A    between atoms: C_25  and  C_26
REMARK                            x       y       z     vdW  Elec       q    Type
REMARK                         _______ _______ _______ _____ _____    ______ ____
ROOT
ATOM      1  N   UNL     1       1.078   9.466  20.825  0.00  0.00    +0.000 N 
ATOM      2  C   UNL     1       1.559   8.496  19.961  0.00  0.00    +0.000 C 
ATOM      3  O   UNL     1       1.641   8.617  18.742  0.00  0.00    +0.000 OA
ATOM      4  N   UNL     1       1.904   7.324  20.631  0.00  0.00    +0.000 N 
ATOM      5  H   UNL     1       1.451   9.441  21.763  0.00  0.00    +0.000 HD
ATOM      6  H   UNL     1       1.328   7.134  21.439  0.00  0.00    +0.000 HD
ENDROOT
BRANCH   1  11
ATOM      7  C   UNL     1      -1.436  11.864  19.419  0.00  0.00    +0.000 A 
ATOM      8  C   UNL     1      -0.801  13.074  19.745  0.00  0.00    +0.000 A 
ATOM      9  C   UNL     1       0.490  13.102  20.266  0.00  0.00    +0.000 A 
ATOM     10  C   UNL     1       1.138  11.912  20.575  0.00  0.00    +0.000 A 
ATOM     11  C   UNL     1       0.500  10.687  20.389  0.00  0.00    +0.000 A 
ATOM     12  C   UNL     1      -0.754  10.668  19.756  0.00  0.00    +0.000 A 
BRANCH   7  18
ATOM     13  C   UNL     1      -6.443  12.426  19.440  0.00  0.00    +0.000 A 
ATOM     14  C   UNL     1      -6.457  12.903  20.753  0.00  0.00    +0.000 A 
ATOM     15  C   UNL     1      -5.267  13.061  21.441  0.00  0.00    +0.000 A 
ATOM     16  C   UNL     1      -4.061  12.765  20.806  0.00  0.00    +0.000 A 
ATOM     17  C   UNL     1      -4.002  12.242  19.484  0.00  0.00    +0.000 A 
ATOM     18  C   UNL     1      -2.799  11.845  18.804  0.00  0.00    +0.000 A 
ATOM     19  C   UNL     1      -2.923  11.373  17.487  0.00  0.00    +0.000 A 
ATOM     20  C   UNL     1      -4.167  11.316  16.895  0.00  0.00    +0.000 A 
ATOM     21  N   UNL     1      -5.304  11.667  17.517  0.00  0.00    +0.000 NA
ATOM     22  C   UNL     1      -5.232  12.113  18.788  0.00  0.00    +0.000 A 
BRANCH  13  23
ATOM     23  N   UNL     1      -7.661  12.448  18.706  0.00  0.00    +0.000 N 
ATOM     24  H   UNL     1      -8.390  12.999  19.141  0.00  0.00    +0.000 HD
ATOM     25  H   UNL     1      -7.939  11.486  18.499  0.00  0.00    +0.000 HD
ENDBRANCH  13  23
ENDBRANCH   7  18
ENDBRANCH   1  11
BRANCH   4  26
ATOM     26  C   UNL     1       2.358   6.200  19.897  0.00  0.00    +0.000 A 
ATOM     27  C   UNL     1       3.325   6.330  18.892  0.00  0.00    +0.000 A 
ATOM     28  C   UNL     1       3.673   5.241  18.079  0.00  0.00    +0.000 A 
ATOM     29  C   UNL     1       3.037   4.010  18.293  0.00  0.00    +0.000 A 
ATOM     30  C   UNL     1       2.076   3.860  19.308  0.00  0.00    +0.000 A 
ATOM     31  C   UNL     1       1.771   4.956  20.133  0.00  0.00    +0.000 A 
BRANCH  28  32
ATOM     32  C   UNL     1       4.672   5.392  16.957  0.00  0.00    +0.000 C 
ATOM     33  F   UNL     1       5.970   5.383  17.363  0.00  0.00    +0.000 F 
ATOM     34  F   UNL     1       4.563   4.392  16.037  0.00  0.00    +0.000 F 
ATOM     35  F   UNL     1       4.500   6.551  16.264  0.00  0.00    +0.000 F 
ENDBRANCH  28  32
BRANCH  30  36
ATOM     36  C   UNL     1       1.319   2.564  19.473  0.00  0.00    +0.000 C 
ATOM     37  F   UNL     1       0.802   2.390  20.720  0.00  0.00    +0.000 F 
ATOM     38  F   UNL     1       0.272   2.460  18.612  0.00  0.00    +0.000 F 
ATOM     39  F   UNL     1       2.105   1.476  19.240  0.00  0.00    +0.000 F 
ENDBRANCH  30  36
ENDBRANCH   4  26
TORSDOF 6
ENDMDL
