MODEL 1
REMARK VINA RESULT:      -8.6      0.000      0.000
REMARK  Name = 
REMARK  6 active torsions:
REMARK  status: ('A' for Active; 'I' for Inactive)
REMARK    1  A    between atoms: C_2  and  O_3
REMARK    2  A    between atoms: C_2  and  C_21
REMARK    3  A    between atoms: O_3  and  C_4
REMARK    4  A    between atoms: N_6  and  C_7
REMARK    5  A    between atoms: C_7  and  C_8
REMARK    6  A    between atoms: C_21  and  C_22
REMARK                            x       y       z     vdW  Elec       q    Type
REMARK                         _______ _______ _______ _____ _____    ______ ____
ROOT
ATOM      1  C   UNL     1       1.785   8.883  20.478  0.00  0.00    +0.000 C 
ATOM      2  C   UNL     1       1.191  10.163  19.847  0.00  0.00    +0.000 C 
ATOM      3  N   UNL     1      -0.212  10.481  20.487  0.00  0.00    +0.000 N 
ATOM      4  C   UNL     1      -1.076   9.205  20.429  0.00  0.00    +0.000 C 
ATOM      5  C   UNL     1      -0.442   8.120  21.304  0.00  0.00    +0.000 C 
ATOM      6  C   UNL     1       0.964   8.557  21.757  0.00  0.00    +0.000 C 
ATOM      7  C   UNL     1       0.767   9.774  22.671  0.00  0.00    +0.000 C 
ATOM      8  C   UNL     1      -0.029  10.874  21.962  0.00  0.00    +0.000 C 
ENDROOT
BRANCH   1   9
ATOM      9  O   UNL     1       1.616   7.687  19.650  0.00  0.00    +0.000 OA
BRANCH   9  11
ATOM     10  O   UNL     1       2.578   8.075  17.622  0.00  0.00    +0.000 OA
ATOM     11  C   UNL     1       2.382   7.330  18.570  0.00  0.00    +0.000 C 
BRANCH  11  12
ATOM     12  C   UNL     1       2.851   5.826  18.739  0.00  0.00    +0.000 C 
ATOM     13  C   UNL     1       2.808   5.247  20.184  0.00  0.00    +0.000 C 
ATOM     14  C   UNL     1       1.498   4.683  20.735  0.00  0.00    +0.000 C 
ATOM     15  C   UNL     1       1.235   3.224  20.366  0.00  0.00    +0.000 C 
ATOM     16  C   UNL     1       0.829   3.008  18.919  0.00  0.00    +0.000 C 
ATOM     17  C   UNL     1       1.862   3.492  17.902  0.00  0.00    +0.000 C 
ATOM     18  C   UNL     1       1.934   5.014  17.775  0.00  0.00    +0.000 C 
BRANCH  12  19
ATOM     19  C   UNL     1       4.356   5.877  18.402  0.00  0.00    +0.000 C 
ATOM     20  C   UNL     1       5.018   6.323  17.308  0.00  0.00    +0.000 C 
ATOM     21  C   UNL     1       6.427   6.025  17.442  0.00  0.00    +0.000 C 
ATOM     22  C   UNL     1       6.658   5.419  18.619  0.00  0.00    +0.000 C 
ATOM     23  C   UNL     1       5.371   5.251  19.354  0.00  0.00    +0.000 C 
ENDBRANCH  12  19
ENDBRANCH  11  12
ENDBRANCH   9  11
ENDBRANCH   1   9
BRANCH   3  24
ATOM     24  C   UNL     1      -0.957  11.606  19.721  0.00  0.00    +0.000 C 
BRANCH  24  25
ATOM     25  C   UNL     1      -1.900  11.126  18.643  0.00  0.00    +0.000 A 
ATOM     26  C   UNL     1      -1.432  10.261  17.640  0.00  0.00    +0.000 A 
ATOM     27  C   UNL     1      -2.222   9.986  16.519  0.00  0.00    +0.000 A 
ATOM     28  C   UNL     1      -3.485  10.546  16.410  0.00  0.00    +0.000 A 
ATOM     29  F   UNL     1      -4.198  10.349  15.294  0.00  0.00    +0.000 F 
ATOM     30  C   UNL     1      -3.991  11.333  17.434  0.00  0.00    +0.000 A 
ATOM     31  F   UNL     1      -5.207  11.883  17.331  0.00  0.00    +0.000 F 
ATOM     32  C   UNL     1      -3.217  11.609  18.561  0.00  0.00    +0.000 A 
ENDBRANCH  24  25
ENDBRANCH   3  24
TORSDOF 6
ENDMDL
MODEL 2
REMARK VINA RESULT:      -8.1      0.724      1.316
REMARK  Name = 
REMARK  6 active torsions:
REMARK  status: ('A' for Active; 'I' for Inactive)
REMARK    1  A    between atoms: C_2  and  O_3
REMARK    2  A    between atoms: C_2  and  C_21
REMARK    3  A    between atoms: O_3  and  C_4
REMARK    4  A    between atoms: N_6  and  C_7
REMARK    5  A    between atoms: C_7  and  C_8
REMARK    6  A    between atoms: C_21  and  C_22
REMARK                            x       y       z     vdW  Elec       q    Type
REMARK                         _______ _______ _______ _____ _____    ______ ____
ROOT
ATOM      1  C   UNL     1       1.978   8.639  20.270  0.00  0.00    +0.000 C 
ATOM      2  C   UNL     1       1.649   9.994  19.601  0.00  0.00    +0.000 C 
ATOM      3  N   UNL     1       0.236  10.501  20.072  0.00  0.00    +0.000 N 
ATOM      4  C   UNL     1      -0.782   9.359  19.880  0.00  0.00    +0.000 C 
ATOM      5  C   UNL     1      -0.418   8.191  20.800  0.00  0.00    +0.000 C 
ATOM      6  C   UNL     1       0.969   8.423  21.431  0.00  0.00    +0.000 C 
ATOM      7  C   UNL     1       0.830   9.651  22.342  0.00  0.00    +0.000 C 
ATOM      8  C   UNL     1       0.288  10.856  21.567  0.00  0.00    +0.000 C 
ENDROOT
BRANCH   1   9
ATOM      9  O   UNL     1       1.750   7.484  19.400  0.00  0.00    +0.000 OA
BRANCH   9  11
ATOM     10  O   UNL     1       2.957   7.731  17.484  0.00  0.00    +0.000 OA
ATOM     11  C   UNL     1       2.588   7.029  18.413  0.00  0.00    +0.000 C 
BRANCH  11  12
ATOM     12  C   UNL     1       2.884   5.491  18.649  0.00  0.00    +0.000 C 
ATOM     13  C   UNL     1       3.001   5.029  20.132  0.00  0.00    +0.000 C 
ATOM     14  C   UNL     1       1.736   4.695  20.922  0.00  0.00    +0.000 C 
ATOM     15  C   UNL     1       1.235   3.264  20.735  0.00  0.00    +0.000 C 
ATOM     16  C   UNL     1       0.576   3.003  19.391  0.00  0.00    +0.000 C 
ATOM     17  C   UNL     1       1.485   3.264  18.191  0.00  0.00    +0.000 C 
ATOM     18  C   UNL     1       1.728   4.748  17.913  0.00  0.00    +0.000 C 
BRANCH  12  19
ATOM     19  C   UNL     1       4.308   5.307  18.087  0.00  0.00    +0.000 C 
ATOM     20  C   UNL     1       4.751   4.965  16.853  0.00  0.00    +0.000 C 
ATOM     21  C   UNL     1       6.188   4.804  16.884  0.00  0.00    +0.000 C 
ATOM     22  C   UNL     1       6.653   5.065  18.118  0.00  0.00    +0.000 C 
ATOM     23  C   UNL     1       5.513   5.405  19.018  0.00  0.00    +0.000 C 
ENDBRANCH  12  19
ENDBRANCH  11  12
ENDBRANCH   9  11
ENDBRANCH   1   9
BRANCH   3  24
ATOM     24  C   UNL     1      -0.246  11.723  19.248  0.00  0.00    +0.000 C 
BRANCH  24  25
ATOM     25  C   UNL     1      -1.648  11.607  18.696  0.00  0.00    +0.000 A 
ATOM     26  C   UNL     1      -2.726  12.163  19.405  0.00  0.00    +0.000 A 
ATOM     27  C   UNL     1      -4.042  11.875  19.028  0.00  0.00    +0.000 A 
ATOM     28  C   UNL     1      -4.285  11.061  17.934  0.00  0.00    +0.000 A 
ATOM     29  F   UNL     1      -5.545  10.719  17.635  0.00  0.00    +0.000 F 
ATOM     30  C   UNL     1      -3.229  10.575  17.176  0.00  0.00    +0.000 A 
ATOM     31  F   UNL     1      -3.457   9.781  16.123  0.00  0.00    +0.000 F 
ATOM     32  C   UNL     1      -1.912  10.860  17.535  0.00  0.00    +0.000 A 
ENDBRANCH  24  25
ENDBRANCH   3  24
TORSDOF 6
ENDMDL
MODEL 3
REMARK VINA RESULT:      -8.0      3.428      6.017
REMARK  Name = 
REMARK  6 active torsions:
REMARK  status: ('A' for Active; 'I' for Inactive)
REMARK    1  A    between atoms: C_2  and  O_3
REMARK    2  A    between atoms: C_2  and  C_21
REMARK    3  A    between atoms: O_3  and  C_4
REMARK    4  A    between atoms: N_6  and  C_7
REMARK    5  A    between atoms: C_7  and  C_8
REMARK    6  A    between atoms: C_21  and  C_22
REMARK                            x       y       z     vdW  Elec       q    Type
REMARK                         _______ _______ _______ _____ _____    ______ ____
ROOT
ATOM      1  C   UNL     1       4.265   3.219  19.465  0.00  0.00    +0.000 C 
ATOM      2  C   UNL     1       3.554   4.188  20.438  0.00  0.00    +0.000 C 
ATOM      3  N   UNL     1       2.056   4.394  20.000  0.00  0.00    +0.000 N 
ATOM      4  C   UNL     1       2.031   4.760  18.503  0.00  0.00    +0.000 C 
ATOM      5  C   UNL     1       2.560   3.582  17.680  0.00  0.00    +0.000 C 
ATOM      6  C   UNL     1       3.173   2.517  18.610  0.00  0.00    +0.000 C 
ATOM      7  C   UNL     1       2.017   1.959  19.452  0.00  0.00    +0.000 C 
ATOM      8  C   UNL     1       1.280   3.080  20.190  0.00  0.00    +0.000 C 
ENDROOT
BRANCH   1   9
ATOM      9  O   UNL     1       5.098   3.894  18.468  0.00  0.00    +0.000 OA
BRANCH   9  11
ATOM     10  O   UNL     1       6.414   5.147  19.840  0.00  0.00    +0.000 OA
ATOM     11  C   UNL     1       6.041   4.858  18.713  0.00  0.00    +0.000 C 
BRANCH  11  12
ATOM     12  C   UNL     1       6.453   5.545  17.347  0.00  0.00    +0.000 C 
ATOM     13  C   UNL     1       7.396   4.724  16.418  0.00  0.00    +0.000 C 
ATOM     14  C   UNL     1       6.805   3.676  15.475  0.00  0.00    +0.000 C 
ATOM     15  C   UNL     1       6.318   4.233  14.138  0.00  0.00    +0.000 C 
ATOM     16  C   UNL     1       5.023   5.021  14.224  0.00  0.00    +0.000 C 
ATOM     17  C   UNL     1       5.090   6.231  15.156  0.00  0.00    +0.000 C 
ATOM     18  C   UNL     1       5.100   5.865  16.641  0.00  0.00    +0.000 C 
BRANCH  12  19
ATOM     19  C   UNL     1       7.317   6.743  17.789  0.00  0.00    +0.000 C 
ATOM     20  C   UNL     1       8.246   6.869  18.767  0.00  0.00    +0.000 C 
ATOM     21  C   UNL     1       8.674   8.249  18.851  0.00  0.00    +0.000 C 
ATOM     22  C   UNL     1       8.041   8.983  17.921  0.00  0.00    +0.000 C 
ATOM     23  C   UNL     1       7.105   8.113  17.150  0.00  0.00    +0.000 C 
ENDBRANCH  12  19
ENDBRANCH  11  12
ENDBRANCH   9  11
ENDBRANCH   1   9
BRANCH   3  24
ATOM     24  C   UNL     1       1.373   5.540  20.791  0.00  0.00    +0.000 C 
BRANCH  24  25
ATOM     25  C   UNL     1       1.591   6.923  20.224  0.00  0.00    +0.000 A 
ATOM     26  C   UNL     1       1.013   8.036  20.855  0.00  0.00    +0.000 A 
ATOM     27  C   UNL     1       1.017   9.286  20.227  0.00  0.00    +0.000 A 
ATOM     28  C   UNL     1       1.620   9.434  18.988  0.00  0.00    +0.000 A 
ATOM     29  F   UNL     1       1.543  10.611  18.355  0.00  0.00    +0.000 F 
ATOM     30  C   UNL     1       2.269   8.361  18.394  0.00  0.00    +0.000 A 
ATOM     31  F   UNL     1       2.846   8.496  17.194  0.00  0.00    +0.000 F 
ATOM     32  C   UNL     1       2.279   7.111  19.013  0.00  0.00    +0.000 A 
ENDBRANCH  24  25
ENDBRANCH   3  24
TORSDOF 6
ENDMDL
MODEL 4
REMARK VINA RESULT:      -7.9      1.188      1.600
REMARK  Name = 
REMARK  6 active torsions:
REMARK  status: ('A' for Active; 'I' for Inactive)
REMARK    1  A    between atoms: C_2  and  O_3
REMARK    2  A    between atoms: C_2  and  C_21
REMARK    3  A    between atoms: O_3  and  C_4
REMARK    4  A    between atoms: N_6  and  C_7
REMARK    5  A    between atoms: C_7  and  C_8
REMARK    6  A    between atoms: C_21  and  C_22
REMARK                            x       y       z     vdW  Elec       q    Type
REMARK                         _______ _______ _______ _____ _____    ______ ____
ROOT
ATOM      1  C   UNL     1       1.994   8.688  20.261  0.00  0.00    +0.000 C 
ATOM      2  C   UNL     1       1.556  10.004  19.577  0.00  0.00    +0.000 C 
ATOM      3  N   UNL     1       0.151  10.457  20.123  0.00  0.00    +0.000 N 
ATOM      4  C   UNL     1      -0.818   9.261  20.029  0.00  0.00    +0.000 C 
ATOM      5  C   UNL     1      -0.338   8.141  20.955  0.00  0.00    +0.000 C 
ATOM      6  C   UNL     1       1.071   8.460  21.490  0.00  0.00    +0.000 C 
ATOM      7  C   UNL     1       0.927   9.707  22.374  0.00  0.00    +0.000 C 
ATOM      8  C   UNL     1       0.278  10.859  21.602  0.00  0.00    +0.000 C 
ENDROOT
BRANCH   1   9
ATOM      9  O   UNL     1       1.770   7.497  19.440  0.00  0.00    +0.000 OA
BRANCH   9  11
ATOM     10  O   UNL     1       2.927   7.734  17.492  0.00  0.00    +0.000 OA
ATOM     11  C   UNL     1       2.582   7.037  18.434  0.00  0.00    +0.000 C 
BRANCH  11  12
ATOM     12  C   UNL     1       2.883   5.500  18.669  0.00  0.00    +0.000 C 
ATOM     13  C   UNL     1       2.940   5.026  20.152  0.00  0.00    +0.000 C 
ATOM     14  C   UNL     1       1.646   4.673  20.884  0.00  0.00    +0.000 C 
ATOM     15  C   UNL     1       1.168   3.238  20.663  0.00  0.00    +0.000 C 
ATOM     16  C   UNL     1       0.571   2.983  19.289  0.00  0.00    +0.000 C 
ATOM     17  C   UNL     1       1.528   3.264  18.132  0.00  0.00    +0.000 C 
ATOM     18  C   UNL     1       1.767   4.752  17.877  0.00  0.00    +0.000 C 
BRANCH  12  19
ATOM     19  C   UNL     1       4.332   5.335  18.168  0.00  0.00    +0.000 C 
ATOM     20  C   UNL     1       4.832   5.036  16.946  0.00  0.00    +0.000 C 
ATOM     21  C   UNL     1       6.267   4.873  17.037  0.00  0.00    +0.000 C 
ATOM     22  C   UNL     1       6.673   5.091  18.300  0.00  0.00    +0.000 C 
ATOM     23  C   UNL     1       5.492   5.400  19.157  0.00  0.00    +0.000 C 
ENDBRANCH  12  19
ENDBRANCH  11  12
ENDBRANCH   9  11
ENDBRANCH   1   9
BRANCH   3  24
ATOM     24  C   UNL     1      -0.443  11.628  19.298  0.00  0.00    +0.000 C 
BRANCH  24  25
ATOM     25  C   UNL     1      -1.951  11.712  19.305  0.00  0.00    +0.000 A 
ATOM     26  C   UNL     1      -2.684  11.202  18.221  0.00  0.00    +0.000 A 
ATOM     27  C   UNL     1      -4.053  11.468  18.107  0.00  0.00    +0.000 A 
ATOM     28  C   UNL     1      -4.696  12.213  19.082  0.00  0.00    +0.000 A 
ATOM     29  F   UNL     1      -5.985  12.537  18.921  0.00  0.00    +0.000 F 
ATOM     30  C   UNL     1      -4.000  12.649  20.201  0.00  0.00    +0.000 A 
ATOM     31  F   UNL     1      -4.614  13.375  21.143  0.00  0.00    +0.000 F 
ATOM     32  C   UNL     1      -2.637  12.385  20.331  0.00  0.00    +0.000 A 
ENDBRANCH  24  25
ENDBRANCH   3  24
TORSDOF 6
ENDMDL
MODEL 5
REMARK VINA RESULT:      -7.8      2.469      3.815
REMARK  Name = 
REMARK  6 active torsions:
REMARK  status: ('A' for Active; 'I' for Inactive)
REMARK    1  A    between atoms: C_2  and  O_3
REMARK    2  A    between atoms: C_2  and  C_21
REMARK    3  A    between atoms: O_3  and  C_4
REMARK    4  A    between atoms: N_6  and  C_7
REMARK    5  A    between atoms: C_7  and  C_8
REMARK    6  A    between atoms: C_21  and  C_22
REMARK                            x       y       z     vdW  Elec       q    Type
REMARK                         _______ _______ _______ _____ _____    ______ ____
ROOT
ATOM      1  C   UNL     1       0.636   8.691  19.322  0.00  0.00    +0.000 C 
ATOM      2  C   UNL     1       0.275   9.098  20.769  0.00  0.00    +0.000 C 
ATOM      3  N   UNL     1       0.111  10.660  20.867  0.00  0.00    +0.000 N 
ATOM      4  C   UNL     1       1.355  11.322  20.242  0.00  0.00    +0.000 C 
ATOM      5  C   UNL     1       1.413  10.991  18.748  0.00  0.00    +0.000 C 
ATOM      6  C   UNL     1       0.366   9.914  18.402  0.00  0.00    +0.000 C 
ATOM      7  C   UNL     1      -1.009  10.554  18.639  0.00  0.00    +0.000 C 
ATOM      8  C   UNL     1      -1.125  11.100  20.065  0.00  0.00    +0.000 C 
ENDROOT
BRANCH   1   9
ATOM      9  O   UNL     1       2.061   8.422  19.125  0.00  0.00    +0.000 OA
BRANCH   9  11
ATOM     10  O   UNL     1       2.702   8.235  16.947  0.00  0.00    +0.000 OA
ATOM     11  C   UNL     1       2.626   7.755  18.068  0.00  0.00    +0.000 C 
BRANCH  11  12
ATOM     12  C   UNL     1       3.044   6.300  18.534  0.00  0.00    +0.000 C 
ATOM     13  C   UNL     1       2.970   6.016  20.063  0.00  0.00    +0.000 C 
ATOM     14  C   UNL     1       1.638   5.611  20.694  0.00  0.00    +0.000 C 
ATOM     15  C   UNL     1       1.330   4.117  20.614  0.00  0.00    +0.000 C 
ATOM     16  C   UNL     1       0.928   3.634  19.231  0.00  0.00    +0.000 C 
ATOM     17  C   UNL     1       1.985   3.879  18.155  0.00  0.00    +0.000 C 
ATOM     18  C   UNL     1       2.108   5.344  17.734  0.00  0.00    +0.000 C 
BRANCH  12  19
ATOM     19  C   UNL     1       4.552   6.237  18.215  0.00  0.00    +0.000 C 
ATOM     20  C   UNL     1       5.264   6.670  17.147  0.00  0.00    +0.000 C 
ATOM     21  C   UNL     1       6.642   6.250  17.283  0.00  0.00    +0.000 C 
ATOM     22  C   UNL     1       6.805   5.580  18.437  0.00  0.00    +0.000 C 
ATOM     23  C   UNL     1       5.498   5.491  19.151  0.00  0.00    +0.000 C 
ENDBRANCH  12  19
ENDBRANCH  11  12
ENDBRANCH   9  11
ENDBRANCH   1   9
BRANCH   3  24
ATOM     24  C   UNL     1      -0.006  11.140  22.338  0.00  0.00    +0.000 C 
BRANCH  24  25
ATOM     25  C   UNL     1      -1.153  12.084  22.610  0.00  0.00    +0.000 A 
ATOM     26  C   UNL     1      -1.008  13.455  22.342  0.00  0.00    +0.000 A 
ATOM     27  C   UNL     1      -1.969  14.368  22.791  0.00  0.00    +0.000 A 
ATOM     28  C   UNL     1      -3.083  13.915  23.479  0.00  0.00    +0.000 A 
ATOM     29  F   UNL     1      -3.952  14.802  23.982  0.00  0.00    +0.000 F 
ATOM     30  C   UNL     1      -3.280  12.556  23.675  0.00  0.00    +0.000 A 
ATOM     31  F   UNL     1      -4.350  12.113  24.345  0.00  0.00    +0.000 F 
ATOM     32  C   UNL     1      -2.334  11.634  23.226  0.00  0.00    +0.000 A 
ENDBRANCH  24  25
ENDBRANCH   3  24
TORSDOF 6
ENDMDL
MODEL 6
REMARK VINA RESULT:      -7.8      0.699      2.986
REMARK  Name = 
REMARK  6 active torsions:
REMARK  status: ('A' for Active; 'I' for Inactive)
REMARK    1  A    between atoms: C_2  and  O_3
REMARK    2  A    between atoms: C_2  and  C_21
REMARK    3  A    between atoms: O_3  and  C_4
REMARK    4  A    between atoms: N_6  and  C_7
REMARK    5  A    between atoms: C_7  and  C_8
REMARK    6  A    between atoms: C_21  and  C_22
REMARK                            x       y       z     vdW  Elec       q    Type
REMARK                         _______ _______ _______ _____ _____    ______ ____
ROOT
ATOM      1  C   UNL     1       2.025   8.521  20.365  0.00  0.00    +0.000 C 
ATOM      2  C   UNL     1       1.524   9.850  19.754  0.00  0.00    +0.000 C 
ATOM      3  N   UNL     1       0.122  10.230  20.361  0.00  0.00    +0.000 N 
ATOM      4  C   UNL     1      -0.810   9.007  20.241  0.00  0.00    +0.000 C 
ATOM      5  C   UNL     1      -0.265   7.864  21.102  0.00  0.00    +0.000 C 
ATOM      6  C   UNL     1       1.149   8.208  21.609  0.00  0.00    +0.000 C 
ATOM      7  C   UNL     1       0.991   9.409  22.552  0.00  0.00    +0.000 C 
ATOM      8  C   UNL     1       0.281  10.571  21.851  0.00  0.00    +0.000 C 
ENDROOT
BRANCH   1   9
ATOM      9  O   UNL     1       1.816   7.361  19.498  0.00  0.00    +0.000 OA
BRANCH   9  11
ATOM     10  O   UNL     1       2.424   7.736  17.335  0.00  0.00    +0.000 OA
ATOM     11  C   UNL     1       2.509   7.064  18.352  0.00  0.00    +0.000 C 
BRANCH  11  12
ATOM     12  C   UNL     1       3.312   5.716  18.563  0.00  0.00    +0.000 C 
ATOM     13  C   UNL     1       3.597   4.874  17.283  0.00  0.00    +0.000 C 
ATOM     14  C   UNL     1       4.802   5.213  16.406  0.00  0.00    +0.000 C 
ATOM     15  C   UNL     1       6.113   4.576  16.863  0.00  0.00    +0.000 C 
ATOM     16  C   UNL     1       6.719   5.211  18.103  0.00  0.00    +0.000 C 
ATOM     17  C   UNL     1       5.810   5.170  19.331  0.00  0.00    +0.000 C 
ATOM     18  C   UNL     1       4.637   6.148  19.263  0.00  0.00    +0.000 C 
BRANCH  12  19
ATOM     19  C   UNL     1       2.340   4.839  19.377  0.00  0.00    +0.000 C 
ATOM     20  C   UNL     1       2.217   4.633  20.711  0.00  0.00    +0.000 C 
ATOM     21  C   UNL     1       1.222   3.611  20.952  0.00  0.00    +0.000 C 
ATOM     22  C   UNL     1       0.703   3.191  19.784  0.00  0.00    +0.000 C 
ATOM     23  C   UNL     1       1.359   3.917  18.658  0.00  0.00    +0.000 C 
ENDBRANCH  12  19
ENDBRANCH  11  12
ENDBRANCH   9  11
ENDBRANCH   1   9
BRANCH   3  24
ATOM     24  C   UNL     1      -0.535  11.416  19.607  0.00  0.00    +0.000 C 
BRANCH  24  25
ATOM     25  C   UNL     1      -1.614  11.025  18.624  0.00  0.00    +0.000 A 
ATOM     26  C   UNL     1      -1.316  10.144  17.572  0.00  0.00    +0.000 A 
ATOM     27  C   UNL     1      -2.232   9.947  16.534  0.00  0.00    +0.000 A 
ATOM     28  C   UNL     1      -3.452  10.604  16.555  0.00  0.00    +0.000 A 
ATOM     29  F   UNL     1      -4.285  10.479  15.515  0.00  0.00    +0.000 F 
ATOM     30  C   UNL     1      -3.792  11.411  17.632  0.00  0.00    +0.000 A 
ATOM     31  F   UNL     1      -4.966  12.054  17.655  0.00  0.00    +0.000 F 
ATOM     32  C   UNL     1      -2.891  11.609  18.678  0.00  0.00    +0.000 A 
ENDBRANCH  24  25
ENDBRANCH   3  24
TORSDOF 6
ENDMDL
MODEL 7
REMARK VINA RESULT:      -7.8      0.848      1.440
REMARK  Name = 
REMARK  6 active torsions:
REMARK  status: ('A' for Active; 'I' for Inactive)
REMARK    1  A    between atoms: C_2  and  O_3
REMARK    2  A    between atoms: C_2  and  C_21
REMARK    3  A    between atoms: O_3  and  C_4
REMARK    4  A    between atoms: N_6  and  C_7
REMARK    5  A    between atoms: C_7  and  C_8
REMARK    6  A    between atoms: C_21  and  C_22
REMARK                            x       y       z     vdW  Elec       q    Type
REMARK                         _______ _______ _______ _____ _____    ______ ____
ROOT
ATOM      1  C   UNL     1       1.789   8.884  20.327  0.00  0.00    +0.000 C 
ATOM      2  C   UNL     1       1.247  10.287  19.968  0.00  0.00    +0.000 C 
ATOM      3  N   UNL     1      -0.117  10.547  20.711  0.00  0.00    +0.000 N 
ATOM      4  C   UNL     1      -1.050   9.348  20.452  0.00  0.00    +0.000 C 
ATOM      5  C   UNL     1      -0.451   8.089  21.084  0.00  0.00    +0.000 C 
ATOM      6  C   UNL     1       0.991   8.365  21.555  0.00  0.00    +0.000 C 
ATOM      7  C   UNL     1       0.887   9.397  22.686  0.00  0.00    +0.000 C 
ATOM      8  C   UNL     1       0.132  10.648  22.225  0.00  0.00    +0.000 C 
ENDROOT
BRANCH   1   9
ATOM      9  O   UNL     1       1.530   7.875  19.299  0.00  0.00    +0.000 OA
BRANCH   9  11
ATOM     10  O   UNL     1       2.629   8.299  17.349  0.00  0.00    +0.000 OA
ATOM     11  C   UNL     1       2.364   7.534  18.264  0.00  0.00    +0.000 C 
BRANCH  11  12
ATOM     12  C   UNL     1       2.807   6.023  18.428  0.00  0.00    +0.000 C 
ATOM     13  C   UNL     1       3.189   5.566  19.867  0.00  0.00    +0.000 C 
ATOM     14  C   UNL     1       2.092   5.134  20.840  0.00  0.00    +0.000 C 
ATOM     15  C   UNL     1       1.676   3.669  20.711  0.00  0.00    +0.000 C 
ATOM     16  C   UNL     1       0.837   3.363  19.483  0.00  0.00    +0.000 C 
ATOM     17  C   UNL     1       1.525   3.696  18.159  0.00  0.00    +0.000 C 
ATOM     18  C   UNL     1       1.609   5.195  17.869  0.00  0.00    +0.000 C 
BRANCH  12  19
ATOM     19  C   UNL     1       4.136   5.949  17.649  0.00  0.00    +0.000 C 
ATOM     20  C   UNL     1       5.219   6.763  17.638  0.00  0.00    +0.000 C 
ATOM     21  C   UNL     1       6.153   6.312  16.630  0.00  0.00    +0.000 C 
ATOM     22  C   UNL     1       5.678   5.210  16.025  0.00  0.00    +0.000 C 
ATOM     23  C   UNL     1       4.345   4.862  16.598  0.00  0.00    +0.000 C 
ENDBRANCH  12  19
ENDBRANCH  11  12
ENDBRANCH   9  11
ENDBRANCH   1   9
BRANCH   3  24
ATOM     24  C   UNL     1      -0.822  11.830  20.197  0.00  0.00    +0.000 C 
BRANCH  24  25
ATOM     25  C   UNL     1      -1.790  11.611  19.058  0.00  0.00    +0.000 A 
ATOM     26  C   UNL     1      -3.116  12.060  19.173  0.00  0.00    +0.000 A 
ATOM     27  C   UNL     1      -4.076  11.674  18.232  0.00  0.00    +0.000 A 
ATOM     28  C   UNL     1      -3.712  10.868  17.165  0.00  0.00    +0.000 A 
ATOM     29  F   UNL     1      -4.654  10.431  16.319  0.00  0.00    +0.000 F 
ATOM     30  C   UNL     1      -2.389  10.489  16.995  0.00  0.00    +0.000 A 
ATOM     31  F   UNL     1      -2.032   9.704  15.970  0.00  0.00    +0.000 F 
ATOM     32  C   UNL     1      -1.419  10.873  17.921  0.00  0.00    +0.000 A 
ENDBRANCH  24  25
ENDBRANCH   3  24
TORSDOF 6
ENDMDL
MODEL 8
REMARK VINA RESULT:      -7.6      3.261      6.076
REMARK  Name = 
REMARK  6 active torsions:
REMARK  status: ('A' for Active; 'I' for Inactive)
REMARK    1  A    between atoms: C_2  and  O_3
REMARK    2  A    between atoms: C_2  and  C_21
REMARK    3  A    between atoms: O_3  and  C_4
REMARK    4  A    between atoms: N_6  and  C_7
REMARK    5  A    between atoms: C_7  and  C_8
REMARK    6  A    between atoms: C_21  and  C_22
REMARK                            x       y       z     vdW  Elec       q    Type
REMARK                         _______ _______ _______ _____ _____    ______ ____
ROOT
ATOM      1  C   UNL     1       3.415   3.184  18.347  0.00  0.00    +0.000 C 
ATOM      2  C   UNL     1       3.510   4.133  19.563  0.00  0.00    +0.000 C 
ATOM      3  N   UNL     1       2.103   4.772  19.864  0.00  0.00    +0.000 N 
ATOM      4  C   UNL     1       1.546   5.364  18.554  0.00  0.00    +0.000 C 
ATOM      5  C   UNL     1       1.299   4.237  17.548  0.00  0.00    +0.000 C 
ATOM      6  C   UNL     1       1.910   2.920  18.066  0.00  0.00    +0.000 C 
ATOM      7  C   UNL     1       1.120   2.541  19.326  0.00  0.00    +0.000 C 
ATOM      8  C   UNL     1       1.136   3.680  20.351  0.00  0.00    +0.000 C 
ENDROOT
BRANCH   1   9
ATOM      9  O   UNL     1       3.896   3.778  17.099  0.00  0.00    +0.000 OA
BRANCH   9  11
ATOM     10  O   UNL     1       5.317   2.210  16.256  0.00  0.00    +0.000 OA
ATOM     11  C   UNL     1       4.994   3.382  16.378  0.00  0.00    +0.000 C 
BRANCH  11  12
ATOM     12  C   UNL     1       5.763   4.663  15.853  0.00  0.00    +0.000 C 
ATOM     13  C   UNL     1       4.961   5.998  15.849  0.00  0.00    +0.000 C 
ATOM     14  C   UNL     1       4.870   6.831  17.128  0.00  0.00    +0.000 C 
ATOM     15  C   UNL     1       6.046   7.782  17.346  0.00  0.00    +0.000 C 
ATOM     16  C   UNL     1       7.334   7.097  17.771  0.00  0.00    +0.000 C 
ATOM     17  C   UNL     1       7.845   6.058  16.774  0.00  0.00    +0.000 C 
ATOM     18  C   UNL     1       7.028   4.765  16.759  0.00  0.00    +0.000 C 
BRANCH  12  19
ATOM     19  C   UNL     1       5.991   4.361  14.358  0.00  0.00    +0.000 C 
ATOM     20  C   UNL     1       5.257   3.661  13.460  0.00  0.00    +0.000 C 
ATOM     21  C   UNL     1       5.981   3.569  12.211  0.00  0.00    +0.000 C 
ATOM     22  C   UNL     1       7.150   4.226  12.309  0.00  0.00    +0.000 C 
ATOM     23  C   UNL     1       7.289   4.793  13.682  0.00  0.00    +0.000 C 
ENDBRANCH  12  19
ENDBRANCH  11  12
ENDBRANCH   9  11
ENDBRANCH   1   9
BRANCH   3  24
ATOM     24  C   UNL     1       2.195   5.912  20.911  0.00  0.00    +0.000 C 
BRANCH  24  25
ATOM     25  C   UNL     1       1.858   7.288  20.386  0.00  0.00    +0.000 A 
ATOM     26  C   UNL     1       0.991   8.120  21.113  0.00  0.00    +0.000 A 
ATOM     27  C   UNL     1       0.496   9.296  20.540  0.00  0.00    +0.000 A 
ATOM     28  C   UNL     1       0.884   9.657  19.259  0.00  0.00    +0.000 A 
ATOM     29  F   UNL     1       0.337  10.736  18.686  0.00  0.00    +0.000 F 
ATOM     30  C   UNL     1       1.806   8.887  18.565  0.00  0.00    +0.000 A 
ATOM     31  F   UNL     1       2.178   9.227  17.325  0.00  0.00    +0.000 F 
ATOM     32  C   UNL     1       2.314   7.716  19.127  0.00  0.00    +0.000 A 
ENDBRANCH  24  25
ENDBRANCH   3  24
TORSDOF 6
ENDMDL
MODEL 9
REMARK VINA RESULT:      -7.6      2.268      2.942
REMARK  Name = 
REMARK  6 active torsions:
REMARK  status: ('A' for Active; 'I' for Inactive)
REMARK    1  A    between atoms: C_2  and  O_3
REMARK    2  A    between atoms: C_2  and  C_21
REMARK    3  A    between atoms: O_3  and  C_4
REMARK    4  A    between atoms: N_6  and  C_7
REMARK    5  A    between atoms: C_7  and  C_8
REMARK    6  A    between atoms: C_21  and  C_22
REMARK                            x       y       z     vdW  Elec       q    Type
REMARK                         _______ _______ _______ _____ _____    ______ ____
ROOT
ATOM      1  C   UNL     1       1.949   8.787  20.086  0.00  0.00    +0.000 C 
ATOM      2  C   UNL     1       1.126   9.913  19.417  0.00  0.00    +0.000 C 
ATOM      3  N   UNL     1      -0.224  10.133  20.196  0.00  0.00    +0.000 N 
ATOM      4  C   UNL     1      -0.917   8.767  20.368  0.00  0.00    +0.000 C 
ATOM      5  C   UNL     1      -0.053   7.865  21.254  0.00  0.00    +0.000 C 
ATOM      6  C   UNL     1       1.327   8.509  21.484  0.00  0.00    +0.000 C 
ATOM      7  C   UNL     1       1.080   9.788  22.296  0.00  0.00    +0.000 C 
ATOM      8  C   UNL     1       0.074  10.704  21.592  0.00  0.00    +0.000 C 
ENDROOT
BRANCH   1   9
ATOM      9  O   UNL     1       1.842   7.497  19.403  0.00  0.00    +0.000 OA
BRANCH   9  11
ATOM     10  O   UNL     1       3.056   7.721  17.489  0.00  0.00    +0.000 OA
ATOM     11  C   UNL     1       2.672   7.026  18.418  0.00  0.00    +0.000 C 
BRANCH  11  12
ATOM     12  C   UNL     1       2.939   5.483  18.653  0.00  0.00    +0.000 C 
ATOM     13  C   UNL     1       3.039   5.017  20.136  0.00  0.00    +0.000 C 
ATOM     14  C   UNL     1       1.764   4.706  20.920  0.00  0.00    +0.000 C 
ATOM     15  C   UNL     1       1.238   3.284  20.728  0.00  0.00    +0.000 C 
ATOM     16  C   UNL     1       0.582   3.036  19.380  0.00  0.00    +0.000 C 
ATOM     17  C   UNL     1       1.503   3.282  18.185  0.00  0.00    +0.000 C 
ATOM     18  C   UNL     1       1.774   4.761  17.910  0.00  0.00    +0.000 C 
BRANCH  12  19
ATOM     19  C   UNL     1       4.363   5.273  18.100  0.00  0.00    +0.000 C 
ATOM     20  C   UNL     1       4.806   4.898  16.876  0.00  0.00    +0.000 C 
ATOM     21  C   UNL     1       6.242   4.726  16.913  0.00  0.00    +0.000 C 
ATOM     22  C   UNL     1       6.706   5.012  18.142  0.00  0.00    +0.000 C 
ATOM     23  C   UNL     1       5.567   5.383  19.031  0.00  0.00    +0.000 C 
ENDBRANCH  12  19
ENDBRANCH  11  12
ENDBRANCH   9  11
ENDBRANCH   1   9
BRANCH   3  24
ATOM     24  C   UNL     1      -1.189  11.073  19.427  0.00  0.00    +0.000 C 
BRANCH  24  25
ATOM     25  C   UNL     1      -1.018  12.544  19.726  0.00  0.00    +0.000 A 
ATOM     26  C   UNL     1      -1.912  13.189  20.596  0.00  0.00    +0.000 A 
ATOM     27  C   UNL     1      -1.905  14.583  20.709  0.00  0.00    +0.000 A 
ATOM     28  C   UNL     1      -0.992  15.331  19.981  0.00  0.00    +0.000 A 
ATOM     29  F   UNL     1      -1.051  16.668  20.028  0.00  0.00    +0.000 F 
ATOM     30  C   UNL     1      -0.048  14.699  19.185  0.00  0.00    +0.000 A 
ATOM     31  F   UNL     1       0.830  15.416  18.473  0.00  0.00    +0.000 F 
ATOM     32  C   UNL     1      -0.039  13.309  19.068  0.00  0.00    +0.000 A 
ENDBRANCH  24  25
ENDBRANCH   3  24
TORSDOF 6
ENDMDL
