MODEL 1
REMARK VINA RESULT:      -7.8      0.000      0.000
REMARK  Name = 
REMARK  9 active torsions:
REMARK  status: ('A' for Active; 'I' for Inactive)
REMARK    1  A    between atoms: C_1  and  O_2
REMARK    2  A    between atoms: O_2  and  C_3
REMARK    3  A    between atoms: C_7  and  C_8
REMARK    4  A    between atoms: C_8  and  C_9
REMARK    5  A    between atoms: C_11  and  C_12
REMARK    6  A    between atoms: N_14  and  C_15
REMARK    7  A    between atoms: C_15  and  C_16
REMARK    8  A    between atoms: C_16  and  O_18
REMARK    9  A    between atoms: O_18  and  C_19
REMARK                            x       y       z     vdW  Elec       q    Type
REMARK                         _______ _______ _______ _____ _____    ______ ____
ROOT
ATOM      1  C   UNL     1       5.596   4.907  16.793  0.00  0.00    +0.000 A 
ATOM      2  C   UNL     1       6.599   5.519  17.431  0.00  0.00    +0.000 A 
ATOM      3  C   UNL     1       6.857   5.134  18.832  0.00  0.00    +0.000 A 
ATOM      4  C   UNL     1       8.120   5.649  19.474  0.00  0.00    +0.000 C 
ATOM      5  N   UNL     1       6.054   4.406  19.543  0.00  0.00    +0.000 NA
ATOM      6  N   UNL     1       4.962   3.857  18.895  0.00  0.00    +0.000 N 
ATOM      7  C   UNL     1       4.819   3.860  17.512  0.00  0.00    +0.000 A 
ATOM      8  O   UNL     1       4.032   3.132  16.913  0.00  0.00    +0.000 OA
ENDROOT
BRANCH   1   9
ATOM      9  C   UNL     1       5.067   5.358  15.464  0.00  0.00    +0.000 C 
BRANCH   9  14
ATOM     10  C   UNL     1       5.930   3.228  12.415  0.00  0.00    +0.000 A 
ATOM     11  C   UNL     1       7.224   3.678  12.144  0.00  0.00    +0.000 A 
ATOM     12  C   UNL     1       7.795   4.701  12.901  0.00  0.00    +0.000 A 
ATOM     13  C   UNL     1       7.078   5.269  13.951  0.00  0.00    +0.000 A 
ATOM     14  C   UNL     1       5.788   4.819  14.254  0.00  0.00    +0.000 A 
ATOM     15  C   UNL     1       5.207   3.812  13.459  0.00  0.00    +0.000 A 
BRANCH  10  17
ATOM     16  C   UNL     1       6.487   1.270  11.171  0.00  0.00    +0.000 C 
ATOM     17  O   UNL     1       5.510   2.202  11.614  0.00  0.00    +0.000 OA
ENDBRANCH  10  17
ENDBRANCH   9  14
ENDBRANCH   1   9
BRANCH   6  18
ATOM     18  C   UNL     1       4.071   3.017  19.689  0.00  0.00    +0.000 C 
BRANCH  18  19
ATOM     19  C   UNL     1       2.645   3.540  19.791  0.00  0.00    +0.000 C 
ATOM     20  O   UNL     1       1.688   3.018  19.215  0.00  0.00    +0.000 OA
BRANCH  19  21
ATOM     21  O   UNL     1       2.548   4.612  20.663  0.00  0.00    +0.000 OA
BRANCH  21  22
ATOM     22  C   UNL     1       2.240   5.842  20.063  0.00  0.00    +0.000 A 
ATOM     23  C   UNL     1       1.766   6.907  20.834  0.00  0.00    +0.000 A 
ATOM     24  C   UNL     1       1.579   8.154  20.248  0.00  0.00    +0.000 A 
ATOM     25  C   UNL     1       1.888   8.334  18.901  0.00  0.00    +0.000 A 
ATOM     26 BR   UNL     1       1.648  10.037  18.115  0.00  0.00    +0.000 Br
ATOM     27  C   UNL     1       2.383   7.277  18.134  0.00  0.00    +0.000 A 
ATOM     28  C   UNL     1       2.565   6.020  18.719  0.00  0.00    +0.000 A 
ENDBRANCH  21  22
ENDBRANCH  19  21
ENDBRANCH  18  19
ENDBRANCH   6  18
TORSDOF 7
ENDMDL
MODEL 2
REMARK VINA RESULT:      -7.7      5.257      8.053
REMARK  Name = 
REMARK  9 active torsions:
REMARK  status: ('A' for Active; 'I' for Inactive)
REMARK    1  A    between atoms: C_1  and  O_2
REMARK    2  A    between atoms: O_2  and  C_3
REMARK    3  A    between atoms: C_7  and  C_8
REMARK    4  A    between atoms: C_8  and  C_9
REMARK    5  A    between atoms: C_11  and  C_12
REMARK    6  A    between atoms: N_14  and  C_15
REMARK    7  A    between atoms: C_15  and  C_16
REMARK    8  A    between atoms: C_16  and  O_18
REMARK    9  A    between atoms: O_18  and  C_19
REMARK                            x       y       z     vdW  Elec       q    Type
REMARK                         _______ _______ _______ _____ _____    ______ ____
ROOT
ATOM      1  C   UNL     1       1.629   8.238  20.165  0.00  0.00    +0.000 A 
ATOM      2  C   UNL     1       1.250   8.368  21.440  0.00  0.00    +0.000 A 
ATOM      3  C   UNL     1       0.394   9.518  21.788  0.00  0.00    +0.000 A 
ATOM      4  C   UNL     1      -0.219   9.539  23.165  0.00  0.00    +0.000 C 
ATOM      5  N   UNL     1       0.161  10.515  20.992  0.00  0.00    +0.000 NA
ATOM      6  N   UNL     1       0.645  10.414  19.700  0.00  0.00    +0.000 N 
ATOM      7  C   UNL     1       1.149   9.234  19.168  0.00  0.00    +0.000 A 
ATOM      8  O   UNL     1       1.298   9.045  17.962  0.00  0.00    +0.000 OA
ENDROOT
BRANCH   1   9
ATOM      9  C   UNL     1       2.682   7.271  19.712  0.00  0.00    +0.000 C 
BRANCH   9  14
ATOM     10  C   UNL     1       1.420   3.674  19.934  0.00  0.00    +0.000 A 
ATOM     11  C   UNL     1       1.478   3.297  18.591  0.00  0.00    +0.000 A 
ATOM     12  C   UNL     1       1.866   4.210  17.612  0.00  0.00    +0.000 A 
ATOM     13  C   UNL     1       2.219   5.508  17.974  0.00  0.00    +0.000 A 
ATOM     14  C   UNL     1       2.188   5.902  19.317  0.00  0.00    +0.000 A 
ATOM     15  C   UNL     1       1.758   4.982  20.292  0.00  0.00    +0.000 A 
BRANCH  10  17
ATOM     16  C   UNL     1       1.784   2.537  21.999  0.00  0.00    +0.000 C 
ATOM     17  O   UNL     1       1.053   2.670  20.788  0.00  0.00    +0.000 OA
ENDBRANCH  10  17
ENDBRANCH   9  14
ENDBRANCH   1   9
BRANCH   6  18
ATOM     18  C   UNL     1       0.363  11.525  18.796  0.00  0.00    +0.000 C 
BRANCH  18  19
ATOM     19  C   UNL     1      -0.970  12.215  19.050  0.00  0.00    +0.000 C 
ATOM     20  O   UNL     1      -1.100  13.440  19.106  0.00  0.00    +0.000 OA
BRANCH  19  21
ATOM     21  O   UNL     1      -2.015  11.309  19.130  0.00  0.00    +0.000 OA
BRANCH  21  22
ATOM     22  C   UNL     1      -2.576  10.939  17.899  0.00  0.00    +0.000 A 
ATOM     23  C   UNL     1      -3.724  11.580  17.423  0.00  0.00    +0.000 A 
ATOM     24  C   UNL     1      -4.199  11.288  16.149  0.00  0.00    +0.000 A 
ATOM     25  C   UNL     1      -3.513  10.372  15.352  0.00  0.00    +0.000 A 
ATOM     26 BR   UNL     1      -4.156   9.993  13.615  0.00  0.00    +0.000 Br
ATOM     27  C   UNL     1      -2.355   9.747  15.818  0.00  0.00    +0.000 A 
ATOM     28  C   UNL     1      -1.879  10.034  17.100  0.00  0.00    +0.000 A 
ENDBRANCH  21  22
ENDBRANCH  19  21
ENDBRANCH  18  19
ENDBRANCH   6  18
TORSDOF 7
ENDMDL
MODEL 3
REMARK VINA RESULT:      -7.7      4.077      5.830
REMARK  Name = 
REMARK  9 active torsions:
REMARK  status: ('A' for Active; 'I' for Inactive)
REMARK    1  A    between atoms: C_1  and  O_2
REMARK    2  A    between atoms: O_2  and  C_3
REMARK    3  A    between atoms: C_7  and  C_8
REMARK    4  A    between atoms: C_8  and  C_9
REMARK    5  A    between atoms: C_11  and  C_12
REMARK    6  A    between atoms: N_14  and  C_15
REMARK    7  A    between atoms: C_15  and  C_16
REMARK    8  A    between atoms: C_16  and  O_18
REMARK    9  A    between atoms: O_18  and  C_19
REMARK                            x       y       z     vdW  Elec       q    Type
REMARK                         _______ _______ _______ _____ _____    ______ ____
ROOT
ATOM      1  C   UNL     1       2.882   5.631  18.411  0.00  0.00    +0.000 A 
ATOM      2  C   UNL     1       2.465   4.498  18.987  0.00  0.00    +0.000 A 
ATOM      3  C   UNL     1       1.594   4.613  20.172  0.00  0.00    +0.000 A 
ATOM      4  C   UNL     1       0.940   3.354  20.680  0.00  0.00    +0.000 C 
ATOM      5  N   UNL     1       1.381   5.722  20.810  0.00  0.00    +0.000 NA
ATOM      6  N   UNL     1       1.903   6.876  20.257  0.00  0.00    +0.000 N 
ATOM      7  C   UNL     1       2.428   6.932  18.971  0.00  0.00    +0.000 A 
ATOM      8  O   UNL     1       2.613   7.983  18.362  0.00  0.00    +0.000 OA
ENDROOT
BRANCH   1   9
ATOM      9  C   UNL     1       3.953   5.675  17.360  0.00  0.00    +0.000 C 
BRANCH   9  14
ATOM     10  C   UNL     1       7.331   7.424  17.676  0.00  0.00    +0.000 A 
ATOM     11  C   UNL     1       7.969   6.589  18.595  0.00  0.00    +0.000 A 
ATOM     12  C   UNL     1       7.298   5.502  19.154  0.00  0.00    +0.000 A 
ATOM     13  C   UNL     1       5.985   5.231  18.780  0.00  0.00    +0.000 A 
ATOM     14  C   UNL     1       5.332   6.043  17.845  0.00  0.00    +0.000 A 
ATOM     15  C   UNL     1       6.007   7.160  17.317  0.00  0.00    +0.000 A 
BRANCH  10  17
ATOM     16  C   UNL     1       8.429   9.506  18.064  0.00  0.00    +0.000 C 
ATOM     17  O   UNL     1       8.117   8.432  17.188  0.00  0.00    +0.000 OA
ENDBRANCH  10  17
ENDBRANCH   9  14
ENDBRANCH   1   9
BRANCH   6  18
ATOM     18  C   UNL     1       1.644   8.128  20.961  0.00  0.00    +0.000 C 
BRANCH  18  19
ATOM     19  C   UNL     1       0.181   8.552  20.965  0.00  0.00    +0.000 C 
ATOM     20  O   UNL     1      -0.613   8.238  21.854  0.00  0.00    +0.000 OA
BRANCH  19  21
ATOM     21  O   UNL     1      -0.118   9.388  19.902  0.00  0.00    +0.000 OA
BRANCH  21  22
ATOM     22  C   UNL     1       0.520  10.637  19.929  0.00  0.00    +0.000 A 
ATOM     23  C   UNL     1       1.271  11.071  18.833  0.00  0.00    +0.000 A 
ATOM     24  C   UNL     1       1.797  12.358  18.824  0.00  0.00    +0.000 A 
ATOM     25  C   UNL     1       1.552  13.210  19.900  0.00  0.00    +0.000 A 
ATOM     26 BR   UNL     1       2.256  14.964  19.873  0.00  0.00    +0.000 Br
ATOM     27  C   UNL     1       0.783  12.784  20.986  0.00  0.00    +0.000 A 
ATOM     28  C   UNL     1       0.259  11.489  21.001  0.00  0.00    +0.000 A 
ENDBRANCH  21  22
ENDBRANCH  19  21
ENDBRANCH  18  19
ENDBRANCH   6  18
TORSDOF 7
ENDMDL
MODEL 4
REMARK VINA RESULT:      -7.6      4.541      8.570
REMARK  Name = 
REMARK  9 active torsions:
REMARK  status: ('A' for Active; 'I' for Inactive)
REMARK    1  A    between atoms: C_1  and  O_2
REMARK    2  A    between atoms: O_2  and  C_3
REMARK    3  A    between atoms: C_7  and  C_8
REMARK    4  A    between atoms: C_8  and  C_9
REMARK    5  A    between atoms: C_11  and  C_12
REMARK    6  A    between atoms: N_14  and  C_15
REMARK    7  A    between atoms: C_15  and  C_16
REMARK    8  A    between atoms: C_16  and  O_18
REMARK    9  A    between atoms: O_18  and  C_19
REMARK                            x       y       z     vdW  Elec       q    Type
REMARK                         _______ _______ _______ _____ _____    ______ ____
ROOT
ATOM      1  C   UNL     1       0.534  10.707  19.467  0.00  0.00    +0.000 A 
ATOM      2  C   UNL     1       0.262  10.510  20.762  0.00  0.00    +0.000 A 
ATOM      3  C   UNL     1       0.859   9.330  21.417  0.00  0.00    +0.000 A 
ATOM      4  C   UNL     1       0.743   9.234  22.917  0.00  0.00    +0.000 C 
ATOM      5  N   UNL     1       1.449   8.369  20.779  0.00  0.00    +0.000 NA
ATOM      6  N   UNL     1       1.637   8.539  19.419  0.00  0.00    +0.000 N 
ATOM      7  C   UNL     1       1.438   9.752  18.770  0.00  0.00    +0.000 A 
ATOM      8  O   UNL     1       1.879   9.999  17.650  0.00  0.00    +0.000 OA
ENDROOT
BRANCH   1   9
ATOM      9  C   UNL     1      -0.184  11.713  18.617  0.00  0.00    +0.000 C 
BRANCH   9  14
ATOM     10  C   UNL     1      -3.003  10.197  16.535  0.00  0.00    +0.000 A 
ATOM     11  C   UNL     1      -4.117  10.753  17.166  0.00  0.00    +0.000 A 
ATOM     12  C   UNL     1      -3.968  11.565  18.290  0.00  0.00    +0.000 A 
ATOM     13  C   UNL     1      -2.694  11.843  18.780  0.00  0.00    +0.000 A 
ATOM     14  C   UNL     1      -1.561  11.313  18.151  0.00  0.00    +0.000 A 
ATOM     15  C   UNL     1      -1.727  10.464  17.040  0.00  0.00    +0.000 A 
BRANCH  10  17
ATOM     16  C   UNL     1      -3.579  10.140  14.221  0.00  0.00    +0.000 C 
ATOM     17  O   UNL     1      -3.295   9.447  15.429  0.00  0.00    +0.000 OA
ENDBRANCH  10  17
ENDBRANCH   9  14
ENDBRANCH   1   9
BRANCH   6  18
ATOM     18  C   UNL     1       2.323   7.467  18.703  0.00  0.00    +0.000 C 
BRANCH  18  19
ATOM     19  C   UNL     1       2.640   6.248  19.558  0.00  0.00    +0.000 C 
ATOM     20  O   UNL     1       1.787   5.623  20.191  0.00  0.00    +0.000 OA
BRANCH  19  21
ATOM     21  O   UNL     1       3.975   5.887  19.470  0.00  0.00    +0.000 OA
BRANCH  21  22
ATOM     22  C   UNL     1       4.411   5.527  18.187  0.00  0.00    +0.000 A 
ATOM     23  C   UNL     1       5.311   6.340  17.492  0.00  0.00    +0.000 A 
ATOM     24  C   UNL     1       5.827   5.912  16.273  0.00  0.00    +0.000 A 
ATOM     25  C   UNL     1       5.458   4.666  15.768  0.00  0.00    +0.000 A 
ATOM     26 BR   UNL     1       6.178   4.085  14.120  0.00  0.00    +0.000 Br
ATOM     27  C   UNL     1       4.576   3.844  16.472  0.00  0.00    +0.000 A 
ATOM     28  C   UNL     1       4.050   4.274  17.694  0.00  0.00    +0.000 A 
ENDBRANCH  21  22
ENDBRANCH  19  21
ENDBRANCH  18  19
ENDBRANCH   6  18
TORSDOF 7
ENDMDL
MODEL 5
REMARK VINA RESULT:      -7.6      4.175      7.129
REMARK  Name = 
REMARK  9 active torsions:
REMARK  status: ('A' for Active; 'I' for Inactive)
REMARK    1  A    between atoms: C_1  and  O_2
REMARK    2  A    between atoms: O_2  and  C_3
REMARK    3  A    between atoms: C_7  and  C_8
REMARK    4  A    between atoms: C_8  and  C_9
REMARK    5  A    between atoms: C_11  and  C_12
REMARK    6  A    between atoms: N_14  and  C_15
REMARK    7  A    between atoms: C_15  and  C_16
REMARK    8  A    between atoms: C_16  and  O_18
REMARK    9  A    between atoms: O_18  and  C_19
REMARK                            x       y       z     vdW  Elec       q    Type
REMARK                         _______ _______ _______ _____ _____    ______ ____
ROOT
ATOM      1  C   UNL     1       5.601   4.134  17.450  0.00  0.00    +0.000 A 
ATOM      2  C   UNL     1       5.695   4.138  16.116  0.00  0.00    +0.000 A 
ATOM      3  C   UNL     1       6.705   5.021  15.502  0.00  0.00    +0.000 A 
ATOM      4  C   UNL     1       6.968   4.857  14.027  0.00  0.00    +0.000 C 
ATOM      5  N   UNL     1       7.355   5.938  16.148  0.00  0.00    +0.000 NA
ATOM      6  N   UNL     1       7.174   5.989  17.519  0.00  0.00    +0.000 N 
ATOM      7  C   UNL     1       6.531   4.989  18.238  0.00  0.00    +0.000 A 
ATOM      8  O   UNL     1       6.623   4.868  19.457  0.00  0.00    +0.000 OA
ENDROOT
BRANCH   1   9
ATOM      9  C   UNL     1       4.476   3.480  18.196  0.00  0.00    +0.000 C 
BRANCH   9  14
ATOM     10  C   UNL     1       2.408   6.584  19.015  0.00  0.00    +0.000 A 
ATOM     11  C   UNL     1       1.893   6.229  20.263  0.00  0.00    +0.000 A 
ATOM     12  C   UNL     1       2.162   4.977  20.814  0.00  0.00    +0.000 A 
ATOM     13  C   UNL     1       2.968   4.074  20.124  0.00  0.00    +0.000 A 
ATOM     14  C   UNL     1       3.512   4.417  18.880  0.00  0.00    +0.000 A 
ATOM     15  C   UNL     1       3.202   5.669  18.317  0.00  0.00    +0.000 A 
BRANCH  10  17
ATOM     16  C   UNL     1       2.902   8.447  17.609  0.00  0.00    +0.000 C 
ATOM     17  O   UNL     1       2.089   7.852  18.611  0.00  0.00    +0.000 OA
ENDBRANCH  10  17
ENDBRANCH   9  14
ENDBRANCH   1   9
BRANCH   6  18
ATOM     18  C   UNL     1       7.924   7.005  18.251  0.00  0.00    +0.000 C 
BRANCH  18  19
ATOM     19  C   UNL     1       7.689   8.429  17.764  0.00  0.00    +0.000 C 
ATOM     20  O   UNL     1       6.567   8.905  17.579  0.00  0.00    +0.000 OA
BRANCH  19  21
ATOM     21  O   UNL     1       8.874   9.134  17.634  0.00  0.00    +0.000 OA
BRANCH  21  22
ATOM     22  C   UNL     1       8.996  10.251  18.474  0.00  0.00    +0.000 A 
ATOM     23  C   UNL     1       9.282  10.087  19.832  0.00  0.00    +0.000 A 
ATOM     24  C   UNL     1       9.519  11.204  20.627  0.00  0.00    +0.000 A 
ATOM     25  C   UNL     1       9.489  12.475  20.055  0.00  0.00    +0.000 A 
ATOM     26 BR   UNL     1       9.829  13.986  21.138  0.00  0.00    +0.000 Br
ATOM     27  C   UNL     1       9.225  12.638  18.693  0.00  0.00    +0.000 A 
ATOM     28  C   UNL     1       8.979  11.519  17.893  0.00  0.00    +0.000 A 
ENDBRANCH  21  22
ENDBRANCH  19  21
ENDBRANCH  18  19
ENDBRANCH   6  18
TORSDOF 7
ENDMDL
MODEL 6
REMARK VINA RESULT:      -7.5      0.812      1.275
REMARK  Name = 
REMARK  9 active torsions:
REMARK  status: ('A' for Active; 'I' for Inactive)
REMARK    1  A    between atoms: C_1  and  O_2
REMARK    2  A    between atoms: O_2  and  C_3
REMARK    3  A    between atoms: C_7  and  C_8
REMARK    4  A    between atoms: C_8  and  C_9
REMARK    5  A    between atoms: C_11  and  C_12
REMARK    6  A    between atoms: N_14  and  C_15
REMARK    7  A    between atoms: C_15  and  C_16
REMARK    8  A    between atoms: C_16  and  O_18
REMARK    9  A    between atoms: O_18  and  C_19
REMARK                            x       y       z     vdW  Elec       q    Type
REMARK                         _______ _______ _______ _____ _____    ______ ____
ROOT
ATOM      1  C   UNL     1       5.561   5.234  16.556  0.00  0.00    +0.000 A 
ATOM      2  C   UNL     1       6.581   5.769  17.237  0.00  0.00    +0.000 A 
ATOM      3  C   UNL     1       6.735   5.387  18.653  0.00  0.00    +0.000 A 
ATOM      4  C   UNL     1       8.003   5.805  19.353  0.00  0.00    +0.000 C 
ATOM      5  N   UNL     1       5.838   4.742  19.332  0.00  0.00    +0.000 NA
ATOM      6  N   UNL     1       4.737   4.277  18.635  0.00  0.00    +0.000 N 
ATOM      7  C   UNL     1       4.664   4.269  17.248  0.00  0.00    +0.000 A 
ATOM      8  O   UNL     1       3.848   3.600  16.618  0.00  0.00    +0.000 OA
ENDROOT
BRANCH   1   9
ATOM      9  C   UNL     1       5.139   5.707  15.196  0.00  0.00    +0.000 C 
BRANCH   9  14
ATOM     10  C   UNL     1       5.562   3.399  12.184  0.00  0.00    +0.000 A 
ATOM     11  C   UNL     1       6.945   3.464  12.001  0.00  0.00    +0.000 A 
ATOM     12  C   UNL     1       7.731   4.289  12.805  0.00  0.00    +0.000 A 
ATOM     13  C   UNL     1       7.138   5.044  13.814  0.00  0.00    +0.000 A 
ATOM     14  C   UNL     1       5.756   4.978  14.029  0.00  0.00    +0.000 A 
ATOM     15  C   UNL     1       4.968   4.171  13.186  0.00  0.00    +0.000 A 
BRANCH  10  17
ATOM     16  C   UNL     1       3.617   2.877  10.907  0.00  0.00    +0.000 C 
ATOM     17  O   UNL     1       4.922   2.528  11.346  0.00  0.00    +0.000 OA
ENDBRANCH  10  17
ENDBRANCH   9  14
ENDBRANCH   1   9
BRANCH   6  18
ATOM     18  C   UNL     1       3.739   3.528  19.393  0.00  0.00    +0.000 C 
BRANCH  18  19
ATOM     19  C   UNL     1       2.447   4.292  19.651  0.00  0.00    +0.000 C 
ATOM     20  O   UNL     1       1.372   4.005  19.120  0.00  0.00    +0.000 OA
BRANCH  19  21
ATOM     21  O   UNL     1       2.614   5.284  20.603  0.00  0.00    +0.000 OA
BRANCH  21  22
ATOM     22  C   UNL     1       2.280   6.578  20.179  0.00  0.00    +0.000 A 
ATOM     23  C   UNL     1       2.601   7.004  18.887  0.00  0.00    +0.000 A 
ATOM     24  C   UNL     1       2.159   8.244  18.439  0.00  0.00    +0.000 A 
ATOM     25  C   UNL     1       1.381   9.041  19.277  0.00  0.00    +0.000 A 
ATOM     26 BR   UNL     1       0.769  10.718  18.655  0.00  0.00    +0.000 Br
ATOM     27  C   UNL     1       1.041   8.608  20.561  0.00  0.00    +0.000 A 
ATOM     28  C   UNL     1       1.490   7.365  21.016  0.00  0.00    +0.000 A 
ENDBRANCH  21  22
ENDBRANCH  19  21
ENDBRANCH  18  19
ENDBRANCH   6  18
TORSDOF 7
ENDMDL
MODEL 7
REMARK VINA RESULT:      -7.5      2.708      3.832
REMARK  Name = 
REMARK  9 active torsions:
REMARK  status: ('A' for Active; 'I' for Inactive)
REMARK    1  A    between atoms: C_1  and  O_2
REMARK    2  A    between atoms: O_2  and  C_3
REMARK    3  A    between atoms: C_7  and  C_8
REMARK    4  A    between atoms: C_8  and  C_9
REMARK    5  A    between atoms: C_11  and  C_12
REMARK    6  A    between atoms: N_14  and  C_15
REMARK    7  A    between atoms: C_15  and  C_16
REMARK    8  A    between atoms: C_16  and  O_18
REMARK    9  A    between atoms: O_18  and  C_19
REMARK                            x       y       z     vdW  Elec       q    Type
REMARK                         _______ _______ _______ _____ _____    ______ ____
ROOT
ATOM      1  C   UNL     1       5.036   4.780  16.670  0.00  0.00    +0.000 A 
ATOM      2  C   UNL     1       4.238   3.877  17.249  0.00  0.00    +0.000 A 
ATOM      3  C   UNL     1       3.021   4.370  17.923  0.00  0.00    +0.000 A 
ATOM      4  C   UNL     1       2.011   3.346  18.373  0.00  0.00    +0.000 C 
ATOM      5  N   UNL     1       2.786   5.621  18.171  0.00  0.00    +0.000 NA
ATOM      6  N   UNL     1       3.675   6.543  17.649  0.00  0.00    +0.000 N 
ATOM      7  C   UNL     1       4.645   6.215  16.709  0.00  0.00    +0.000 A 
ATOM      8  O   UNL     1       5.230   7.050  16.022  0.00  0.00    +0.000 OA
ENDROOT
BRANCH   1   9
ATOM      9  C   UNL     1       6.412   4.460  16.163  0.00  0.00    +0.000 C 
BRANCH   9  14
ATOM     10  C   UNL     1       5.983   3.456  12.504  0.00  0.00    +0.000 A 
ATOM     11  C   UNL     1       7.004   4.201  11.911  0.00  0.00    +0.000 A 
ATOM     12  C   UNL     1       7.790   5.065  12.674  0.00  0.00    +0.000 A 
ATOM     13  C   UNL     1       7.570   5.175  14.044  0.00  0.00    +0.000 A 
ATOM     14  C   UNL     1       6.565   4.422  14.663  0.00  0.00    +0.000 A 
ATOM     15  C   UNL     1       5.753   3.582  13.877  0.00  0.00    +0.000 A 
BRANCH  10  17
ATOM     16  C   UNL     1       4.055   3.070  11.155  0.00  0.00    +0.000 C 
ATOM     17  O   UNL     1       5.314   2.630  11.644  0.00  0.00    +0.000 OA
ENDBRANCH  10  17
ENDBRANCH   9  14
ENDBRANCH   1   9
BRANCH   6  18
ATOM     18  C   UNL     1       3.398   7.953  17.906  0.00  0.00    +0.000 C 
BRANCH  18  19
ATOM     19  C   UNL     1       2.100   8.208  18.660  0.00  0.00    +0.000 C 
ATOM     20  O   UNL     1       1.917   7.864  19.830  0.00  0.00    +0.000 OA
BRANCH  19  21
ATOM     21  O   UNL     1       1.196   8.935  17.903  0.00  0.00    +0.000 OA
BRANCH  21  22
ATOM     22  C   UNL     1       0.763  10.135  18.485  0.00  0.00    +0.000 A 
ATOM     23  C   UNL     1       1.615  11.243  18.540  0.00  0.00    +0.000 A 
ATOM     24  C   UNL     1       1.134  12.460  19.010  0.00  0.00    +0.000 A 
ATOM     25  C   UNL     1      -0.200  12.569  19.400  0.00  0.00    +0.000 A 
ATOM     26 BR   UNL     1      -0.850  14.232  20.021  0.00  0.00    +0.000 Br
ATOM     27  C   UNL     1      -1.058  11.470  19.325  0.00  0.00    +0.000 A 
ATOM     28  C   UNL     1      -0.575  10.242  18.860  0.00  0.00    +0.000 A 
ENDBRANCH  21  22
ENDBRANCH  19  21
ENDBRANCH  18  19
ENDBRANCH   6  18
TORSDOF 7
ENDMDL
MODEL 8
REMARK VINA RESULT:      -7.4      3.001      7.804
REMARK  Name = 
REMARK  9 active torsions:
REMARK  status: ('A' for Active; 'I' for Inactive)
REMARK    1  A    between atoms: C_1  and  O_2
REMARK    2  A    between atoms: O_2  and  C_3
REMARK    3  A    between atoms: C_7  and  C_8
REMARK    4  A    between atoms: C_8  and  C_9
REMARK    5  A    between atoms: C_11  and  C_12
REMARK    6  A    between atoms: N_14  and  C_15
REMARK    7  A    between atoms: C_15  and  C_16
REMARK    8  A    between atoms: C_16  and  O_18
REMARK    9  A    between atoms: O_18  and  C_19
REMARK                            x       y       z     vdW  Elec       q    Type
REMARK                         _______ _______ _______ _____ _____    ______ ____
ROOT
ATOM      1  C   UNL     1       3.371   5.660  18.562  0.00  0.00    +0.000 A 
ATOM      2  C   UNL     1       3.187   4.429  19.050  0.00  0.00    +0.000 A 
ATOM      3  C   UNL     1       4.384   3.667  19.457  0.00  0.00    +0.000 A 
ATOM      4  C   UNL     1       4.167   2.382  20.214  0.00  0.00    +0.000 C 
ATOM      5  N   UNL     1       5.599   4.024  19.179  0.00  0.00    +0.000 NA
ATOM      6  N   UNL     1       5.770   5.260  18.582  0.00  0.00    +0.000 N 
ATOM      7  C   UNL     1       4.754   6.203  18.483  0.00  0.00    +0.000 A 
ATOM      8  O   UNL     1       4.956   7.390  18.238  0.00  0.00    +0.000 OA
ENDROOT
BRANCH   1   9
ATOM      9  C   UNL     1       2.287   6.451  17.892  0.00  0.00    +0.000 C 
BRANCH   9  14
ATOM     10  C   UNL     1       1.170   8.874  20.623  0.00  0.00    +0.000 A 
ATOM     11  C   UNL     1       0.887  10.009  19.861  0.00  0.00    +0.000 A 
ATOM     12  C   UNL     1       1.107  10.015  18.484  0.00  0.00    +0.000 A 
ATOM     13  C   UNL     1       1.597   8.874  17.855  0.00  0.00    +0.000 A 
ATOM     14  C   UNL     1       1.868   7.717  18.597  0.00  0.00    +0.000 A 
ATOM     15  C   UNL     1       1.678   7.736  19.992  0.00  0.00    +0.000 A 
BRANCH  10  17
ATOM     16  C   UNL     1      -0.024  10.030  22.334  0.00  0.00    +0.000 C 
ATOM     17  O   UNL     1       0.877   9.000  21.953  0.00  0.00    +0.000 OA
ENDBRANCH  10  17
ENDBRANCH   9  14
ENDBRANCH   1   9
BRANCH   6  18
ATOM     18  C   UNL     1       7.140   5.674  18.292  0.00  0.00    +0.000 C 
BRANCH  18  19
ATOM     19  C   UNL     1       7.712   5.087  17.009  0.00  0.00    +0.000 C 
ATOM     20  O   UNL     1       8.288   3.999  16.959  0.00  0.00    +0.000 OA
BRANCH  19  21
ATOM     21  O   UNL     1       7.435   5.882  15.908  0.00  0.00    +0.000 OA
BRANCH  21  22
ATOM     22  C   UNL     1       6.868   5.208  14.816  0.00  0.00    +0.000 A 
ATOM     23  C   UNL     1       7.597   5.038  13.635  0.00  0.00    +0.000 A 
ATOM     24  C   UNL     1       7.070   4.266  12.605  0.00  0.00    +0.000 A 
ATOM     25  C   UNL     1       5.830   3.652  12.770  0.00  0.00    +0.000 A 
ATOM     26 BR   UNL     1       5.129   2.590  11.372  0.00  0.00    +0.000 Br
ATOM     27  C   UNL     1       5.111   3.803  13.957  0.00  0.00    +0.000 A 
ATOM     28  C   UNL     1       5.634   4.585  14.992  0.00  0.00    +0.000 A 
ENDBRANCH  21  22
ENDBRANCH  19  21
ENDBRANCH  18  19
ENDBRANCH   6  18
TORSDOF 7
ENDMDL
MODEL 9
REMARK VINA RESULT:      -7.3      4.063      6.077
REMARK  Name = 
REMARK  9 active torsions:
REMARK  status: ('A' for Active; 'I' for Inactive)
REMARK    1  A    between atoms: C_1  and  O_2
REMARK    2  A    between atoms: O_2  and  C_3
REMARK    3  A    between atoms: C_7  and  C_8
REMARK    4  A    between atoms: C_8  and  C_9
REMARK    5  A    between atoms: C_11  and  C_12
REMARK    6  A    between atoms: N_14  and  C_15
REMARK    7  A    between atoms: C_15  and  C_16
REMARK    8  A    between atoms: C_16  and  O_18
REMARK    9  A    between atoms: O_18  and  C_19
REMARK                            x       y       z     vdW  Elec       q    Type
REMARK                         _______ _______ _______ _____ _____    ______ ____
ROOT
ATOM      1  C   UNL     1       3.316   5.468  18.347  0.00  0.00    +0.000 A 
ATOM      2  C   UNL     1       2.898   4.508  19.178  0.00  0.00    +0.000 A 
ATOM      3  C   UNL     1       1.890   4.870  20.192  0.00  0.00    +0.000 A 
ATOM      4  C   UNL     1       1.253   3.749  20.973  0.00  0.00    +0.000 C 
ATOM      5  N   UNL     1       1.542   6.089  20.465  0.00  0.00    +0.000 NA
ATOM      6  N   UNL     1       2.059   7.086  19.659  0.00  0.00    +0.000 N 
ATOM      7  C   UNL     1       2.726   6.830  18.467  0.00  0.00    +0.000 A 
ATOM      8  O   UNL     1       2.922   7.683  17.605  0.00  0.00    +0.000 OA
ENDROOT
BRANCH   1   9
ATOM      9  C   UNL     1       4.497   5.313  17.435  0.00  0.00    +0.000 C 
BRANCH   9  14
ATOM     10  C   UNL     1       7.483   7.675  17.723  0.00  0.00    +0.000 A 
ATOM     11  C   UNL     1       8.266   6.988  18.653  0.00  0.00    +0.000 A 
ATOM     12  C   UNL     1       7.812   5.802  19.228  0.00  0.00    +0.000 A 
ATOM     13  C   UNL     1       6.574   5.282  18.860  0.00  0.00    +0.000 A 
ATOM     14  C   UNL     1       5.781   5.943  17.913  0.00  0.00    +0.000 A 
ATOM     15  C   UNL     1       6.233   7.160  17.368  0.00  0.00    +0.000 A 
BRANCH  10  17
ATOM     16  C   UNL     1       8.614   9.732  18.147  0.00  0.00    +0.000 C 
ATOM     17  O   UNL     1       8.065   8.806  17.220  0.00  0.00    +0.000 OA
ENDBRANCH  10  17
ENDBRANCH   9  14
ENDBRANCH   1   9
BRANCH   6  18
ATOM     18  C   UNL     1       1.649   8.457  19.950  0.00  0.00    +0.000 C 
BRANCH  18  19
ATOM     19  C   UNL     1       1.175   8.678  21.380  0.00  0.00    +0.000 C 
ATOM     20  O   UNL     1       1.934   8.688  22.351  0.00  0.00    +0.000 OA
BRANCH  19  21
ATOM     21  O   UNL     1      -0.184   8.941  21.440  0.00  0.00    +0.000 OA
BRANCH  21  22
ATOM     22  C   UNL     1      -0.519  10.276  21.711  0.00  0.00    +0.000 A 
ATOM     23  C   UNL     1      -0.477  11.236  20.696  0.00  0.00    +0.000 A 
ATOM     24  C   UNL     1      -0.927  12.527  20.949  0.00  0.00    +0.000 A 
ATOM     25  C   UNL     1      -1.436  12.845  22.207  0.00  0.00    +0.000 A 
ATOM     26 BR   UNL     1      -2.061  14.598  22.538  0.00  0.00    +0.000 Br
ATOM     27  C   UNL     1      -1.498  11.881  23.216  0.00  0.00    +0.000 A 
ATOM     28  C   UNL     1      -1.041  10.584  22.967  0.00  0.00    +0.000 A 
ENDBRANCH  21  22
ENDBRANCH  19  21
ENDBRANCH  18  19
ENDBRANCH   6  18
TORSDOF 7
ENDMDL
