MODEL 1
REMARK VINA RESULT:      -7.7      0.000      0.000
REMARK  Name = 
REMARK  9 active torsions:
REMARK  status: ('A' for Active; 'I' for Inactive)
REMARK    1  A    between atoms: C_1  and  C_2
REMARK    2  A    between atoms: C_2  and  C_3
REMARK    3  A    between atoms: C_3  and  C_4
REMARK    4  A    between atoms: C_4  and  C_5
REMARK    5  A    between atoms: C_6  and  O_7
REMARK    6  A    between atoms: C_9  and  S_10
REMARK    7  A    between atoms: S_10  and  C_11
REMARK    8  A    between atoms: C_11  and  C_12
REMARK    9  A    between atoms: C_22  and  O_23
REMARK                            x       y       z     vdW  Elec       q    Type
REMARK                         _______ _______ _______ _____ _____    ______ ____
ROOT
ATOM      1  C   UNL     1       6.536   4.022  14.279  0.00  0.00    +0.000 A 
ATOM      2  C   UNL     1       7.279   5.180  14.355  0.00  0.00    +0.000 A 
ATOM      3  N   UNL     1       7.524   5.858  15.481  0.00  0.00    +0.000 NA
ATOM      4  C   UNL     1       7.005   5.350  16.610  0.00  0.00    +0.000 A 
ATOM      5  N   UNL     1       6.336   4.189  16.686  0.00  0.00    +0.000 NA
ATOM      6  C   UNL     1       6.120   3.577  15.516  0.00  0.00    +0.000 A 
ENDROOT
BRANCH   2   7
ATOM      7  O   UNL     1       7.856   5.758  13.263  0.00  0.00    +0.000 OA
ATOM      8  H   UNL     1       8.396   6.505  13.549  0.00  0.00    +0.000 HD
ENDBRANCH   2   7
BRANCH   6   9
ATOM      9  O   UNL     1       5.435   2.406  15.629  0.00  0.00    +0.000 OA
ATOM     10  H   UNL     1       4.591   2.720  16.001  0.00  0.00    +0.000 HD
ENDBRANCH   6   9
BRANCH   1  11
ATOM     11  C   UNL     1       6.213   3.298  13.004  0.00  0.00    +0.000 C 
BRANCH  11  12
ATOM     12  C   UNL     1       4.868   3.727  12.413  0.00  0.00    +0.000 C 
BRANCH  12  14
ATOM     13  C   UNL     1       3.307   3.506  10.452  0.00  0.00    +0.000 C 
ATOM     14  C   UNL     1       4.468   2.874  11.207  0.00  0.00    +0.000 C 
ENDBRANCH  12  14
ENDBRANCH  11  12
ENDBRANCH   1  11
BRANCH   4  15
ATOM     15  S   UNL     1       7.291   6.254  18.117  0.00  0.00    +0.000 S 
BRANCH  15  16
ATOM     16  C   UNL     1       6.225   5.293  19.263  0.00  0.00    +0.000 C 
BRANCH  16  17
ATOM     17  C   UNL     1       4.735   5.472  18.963  0.00  0.00    +0.000 C 
ATOM     18  O   UNL     1       4.274   6.539  18.545  0.00  0.00    +0.000 OA
ATOM     19  N   UNL     1       3.896   4.359  19.130  0.00  0.00    +0.000 N 
ATOM     20  C   UNL     1       2.508   4.498  18.683  0.00  0.00    +0.000 C 
ATOM     21  C   UNL     1       1.582   4.909  19.825  0.00  0.00    +0.000 C 
ATOM     22  C   UNL     1       1.203   3.760  20.755  0.00  0.00    +0.000 C 
ATOM     23  C   UNL     1       2.386   3.037  21.396  0.00  0.00    +0.000 C 
ATOM     24  C   UNL     1       3.228   2.254  20.387  0.00  0.00    +0.000 C 
ATOM     25  C   UNL     1       4.322   3.089  19.714  0.00  0.00    +0.000 C 
ENDBRANCH  16  17
ENDBRANCH  15  16
ENDBRANCH   4  15
TORSDOF 8
ENDMDL
MODEL 2
REMARK VINA RESULT:      -7.5      3.771      6.006
REMARK  Name = 
REMARK  9 active torsions:
REMARK  status: ('A' for Active; 'I' for Inactive)
REMARK    1  A    between atoms: C_1  and  C_2
REMARK    2  A    between atoms: C_2  and  C_3
REMARK    3  A    between atoms: C_3  and  C_4
REMARK    4  A    between atoms: C_4  and  C_5
REMARK    5  A    between atoms: C_6  and  O_7
REMARK    6  A    between atoms: C_9  and  S_10
REMARK    7  A    between atoms: S_10  and  C_11
REMARK    8  A    between atoms: C_11  and  C_12
REMARK    9  A    between atoms: C_22  and  O_23
REMARK                            x       y       z     vdW  Elec       q    Type
REMARK                         _______ _______ _______ _____ _____    ______ ____
ROOT
ATOM      1  C   UNL     1       7.104   6.424  18.125  0.00  0.00    +0.000 A 
ATOM      2  C   UNL     1       7.016   5.661  19.268  0.00  0.00    +0.000 A 
ATOM      3  N   UNL     1       5.982   4.873  19.584  0.00  0.00    +0.000 NA
ATOM      4  C   UNL     1       4.971   4.832  18.703  0.00  0.00    +0.000 A 
ATOM      5  N   UNL     1       4.968   5.459  17.516  0.00  0.00    +0.000 NA
ATOM      6  C   UNL     1       6.031   6.237  17.280  0.00  0.00    +0.000 A 
ENDROOT
BRANCH   2   7
ATOM      7  O   UNL     1       8.002   5.629  20.211  0.00  0.00    +0.000 OA
ATOM      8  H   UNL     1       8.850   5.475  19.775  0.00  0.00    +0.000 HD
ENDBRANCH   2   7
BRANCH   6   9
ATOM      9  O   UNL     1       5.993   6.861  16.070  0.00  0.00    +0.000 OA
ATOM     10  H   UNL     1       6.664   6.354  15.579  0.00  0.00    +0.000 HD
ENDBRANCH   6   9
BRANCH   1  11
ATOM     11  C   UNL     1       8.239   7.353  17.804  0.00  0.00    +0.000 C 
BRANCH  11  12
ATOM     12  C   UNL     1       7.852   8.825  17.967  0.00  0.00    +0.000 C 
BRANCH  12  14
ATOM     13  C   UNL     1       9.154  10.967  18.185  0.00  0.00    +0.000 C 
ATOM     14  C   UNL     1       8.876   9.602  18.798  0.00  0.00    +0.000 C 
ENDBRANCH  12  14
ENDBRANCH  11  12
ENDBRANCH   1  11
BRANCH   4  15
ATOM     15  S   UNL     1       3.570   3.815  19.118  0.00  0.00    +0.000 S 
BRANCH  15  16
ATOM     16  C   UNL     1       2.208   4.957  18.653  0.00  0.00    +0.000 C 
BRANCH  16  17
ATOM     17  C   UNL     1       1.878   5.956  19.764  0.00  0.00    +0.000 C 
ATOM     18  O   UNL     1       1.490   5.592  20.879  0.00  0.00    +0.000 OA
ATOM     19  N   UNL     1       2.078   7.320  19.498  0.00  0.00    +0.000 N 
ATOM     20  C   UNL     1       1.916   8.248  20.619  0.00  0.00    +0.000 C 
ATOM     21  C   UNL     1       0.509   8.838  20.670  0.00  0.00    +0.000 C 
ATOM     22  C   UNL     1       0.275   9.961  19.664  0.00  0.00    +0.000 C 
ATOM     23  C   UNL     1       0.533   9.579  18.207  0.00  0.00    +0.000 C 
ATOM     24  C   UNL     1       2.008   9.304  17.912  0.00  0.00    +0.000 C 
ATOM     25  C   UNL     1       2.434   7.858  18.187  0.00  0.00    +0.000 C 
ENDBRANCH  16  17
ENDBRANCH  15  16
ENDBRANCH   4  15
TORSDOF 8
ENDMDL
MODEL 3
REMARK VINA RESULT:      -7.4      1.143      1.852
REMARK  Name = 
REMARK  9 active torsions:
REMARK  status: ('A' for Active; 'I' for Inactive)
REMARK    1  A    between atoms: C_1  and  C_2
REMARK    2  A    between atoms: C_2  and  C_3
REMARK    3  A    between atoms: C_3  and  C_4
REMARK    4  A    between atoms: C_4  and  C_5
REMARK    5  A    between atoms: C_6  and  O_7
REMARK    6  A    between atoms: C_9  and  S_10
REMARK    7  A    between atoms: S_10  and  C_11
REMARK    8  A    between atoms: C_11  and  C_12
REMARK    9  A    between atoms: C_22  and  O_23
REMARK                            x       y       z     vdW  Elec       q    Type
REMARK                         _______ _______ _______ _____ _____    ______ ____
ROOT
ATOM      1  C   UNL     1       6.564   4.022  14.010  0.00  0.00    +0.000 A 
ATOM      2  C   UNL     1       7.344   5.158  14.047  0.00  0.00    +0.000 A 
ATOM      3  N   UNL     1       7.625   5.856  15.153  0.00  0.00    +0.000 NA
ATOM      4  C   UNL     1       7.107   5.392  16.300  0.00  0.00    +0.000 A 
ATOM      5  N   UNL     1       6.403   4.254  16.414  0.00  0.00    +0.000 NA
ATOM      6  C   UNL     1       6.152   3.621  15.262  0.00  0.00    +0.000 A 
ENDROOT
BRANCH   2   7
ATOM      7  O   UNL     1       7.923   5.691  12.933  0.00  0.00    +0.000 OA
ATOM      8  H   UNL     1       8.679   6.230  13.198  0.00  0.00    +0.000 HD
ENDBRANCH   2   7
BRANCH   6   9
ATOM      9  O   UNL     1       5.433   2.474  15.414  0.00  0.00    +0.000 OA
ATOM     10  H   UNL     1       4.883   2.701  16.185  0.00  0.00    +0.000 HD
ENDBRANCH   6   9
BRANCH   1  11
ATOM     11  C   UNL     1       6.201   3.277  12.758  0.00  0.00    +0.000 C 
BRANCH  11  12
ATOM     12  C   UNL     1       5.067   3.953  11.985  0.00  0.00    +0.000 C 
BRANCH  12  14
ATOM     13  C   UNL     1       3.260   3.622  10.264  0.00  0.00    +0.000 C 
ATOM     14  C   UNL     1       4.158   2.938  11.286  0.00  0.00    +0.000 C 
ENDBRANCH  12  14
ENDBRANCH  11  12
ENDBRANCH   1  11
BRANCH   4  15
ATOM     15  S   UNL     1       7.442   6.322  17.781  0.00  0.00    +0.000 S 
BRANCH  15  16
ATOM     16  C   UNL     1       5.738   6.464  18.452  0.00  0.00    +0.000 C 
BRANCH  16  17
ATOM     17  C   UNL     1       5.308   5.213  19.222  0.00  0.00    +0.000 C 
ATOM     18  O   UNL     1       6.087   4.593  19.953  0.00  0.00    +0.000 OA
ATOM     19  N   UNL     1       3.969   4.806  19.114  0.00  0.00    +0.000 N 
ATOM     20  C   UNL     1       3.534   3.709  19.981  0.00  0.00    +0.000 C 
ATOM     21  C   UNL     1       3.620   2.358  19.275  0.00  0.00    +0.000 C 
ATOM     22  C   UNL     1       2.470   2.094  18.308  0.00  0.00    +0.000 C 
ATOM     23  C   UNL     1       2.300   3.145  17.212  0.00  0.00    +0.000 C 
ATOM     24  C   UNL     1       1.846   4.503  17.750  0.00  0.00    +0.000 C 
ATOM     25  C   UNL     1       2.999   5.406  18.200  0.00  0.00    +0.000 C 
ENDBRANCH  16  17
ENDBRANCH  15  16
ENDBRANCH   4  15
TORSDOF 8
ENDMDL
MODEL 4
REMARK VINA RESULT:      -7.1      0.383      1.709
REMARK  Name = 
REMARK  9 active torsions:
REMARK  status: ('A' for Active; 'I' for Inactive)
REMARK    1  A    between atoms: C_1  and  C_2
REMARK    2  A    between atoms: C_2  and  C_3
REMARK    3  A    between atoms: C_3  and  C_4
REMARK    4  A    between atoms: C_4  and  C_5
REMARK    5  A    between atoms: C_6  and  O_7
REMARK    6  A    between atoms: C_9  and  S_10
REMARK    7  A    between atoms: S_10  and  C_11
REMARK    8  A    between atoms: C_11  and  C_12
REMARK    9  A    between atoms: C_22  and  O_23
REMARK                            x       y       z     vdW  Elec       q    Type
REMARK                         _______ _______ _______ _____ _____    ______ ____
ROOT
ATOM      1  C   UNL     1       6.310   4.191  14.221  0.00  0.00    +0.000 A 
ATOM      2  C   UNL     1       5.578   4.007  15.374  0.00  0.00    +0.000 A 
ATOM      3  N   UNL     1       5.812   4.627  16.535  0.00  0.00    +0.000 NA
ATOM      4  C   UNL     1       6.836   5.495  16.554  0.00  0.00    +0.000 A 
ATOM      5  N   UNL     1       7.573   5.828  15.482  0.00  0.00    +0.000 NA
ATOM      6  C   UNL     1       7.286   5.154  14.362  0.00  0.00    +0.000 A 
ENDROOT
BRANCH   2   7
ATOM      7  O   UNL     1       4.513   3.158  15.443  0.00  0.00    +0.000 OA
ATOM      8  H   UNL     1       4.073   3.271  16.295  0.00  0.00    +0.000 HD
ENDBRANCH   2   7
BRANCH   6   9
ATOM      9  O   UNL     1       8.054   5.513  13.296  0.00  0.00    +0.000 OA
ATOM     10  H   UNL     1       8.938   5.249  13.608  0.00  0.00    +0.000 HD
ENDBRANCH   6   9
BRANCH   1  11
ATOM     11  C   UNL     1       6.081   3.448  12.937  0.00  0.00    +0.000 C 
BRANCH  11  12
ATOM     12  C   UNL     1       4.947   4.054  12.106  0.00  0.00    +0.000 C 
BRANCH  12  14
ATOM     13  C   UNL     1       3.281   3.636  10.268  0.00  0.00    +0.000 C 
ATOM     14  C   UNL     1       4.179   2.993  11.315  0.00  0.00    +0.000 C 
ENDBRANCH  12  14
ENDBRANCH  11  12
ENDBRANCH   1  11
BRANCH   4  15
ATOM     15  S   UNL     1       7.186   6.308  18.098  0.00  0.00    +0.000 S 
BRANCH  15  16
ATOM     16  C   UNL     1       6.183   5.268  19.233  0.00  0.00    +0.000 C 
BRANCH  16  17
ATOM     17  C   UNL     1       4.680   5.488  19.050  0.00  0.00    +0.000 C 
ATOM     18  O   UNL     1       4.210   6.591  18.752  0.00  0.00    +0.000 OA
ATOM     19  N   UNL     1       3.835   4.375  19.182  0.00  0.00    +0.000 N 
ATOM     20  C   UNL     1       2.423   4.566  18.844  0.00  0.00    +0.000 C 
ATOM     21  C   UNL     1       1.582   4.892  20.076  0.00  0.00    +0.000 C 
ATOM     22  C   UNL     1       1.247   3.675  20.933  0.00  0.00    +0.000 C 
ATOM     23  C   UNL     1       2.458   2.888  21.431  0.00  0.00    +0.000 C 
ATOM     24  C   UNL     1       3.216   2.181  20.306  0.00  0.00    +0.000 C 
ATOM     25  C   UNL     1       4.277   3.056  19.631  0.00  0.00    +0.000 C 
ENDBRANCH  16  17
ENDBRANCH  15  16
ENDBRANCH   4  15
TORSDOF 8
ENDMDL
MODEL 5
REMARK VINA RESULT:      -7.0      1.139      2.526
REMARK  Name = 
REMARK  9 active torsions:
REMARK  status: ('A' for Active; 'I' for Inactive)
REMARK    1  A    between atoms: C_1  and  C_2
REMARK    2  A    between atoms: C_2  and  C_3
REMARK    3  A    between atoms: C_3  and  C_4
REMARK    4  A    between atoms: C_4  and  C_5
REMARK    5  A    between atoms: C_6  and  O_7
REMARK    6  A    between atoms: C_9  and  S_10
REMARK    7  A    between atoms: S_10  and  C_11
REMARK    8  A    between atoms: C_11  and  C_12
REMARK    9  A    between atoms: C_22  and  O_23
REMARK                            x       y       z     vdW  Elec       q    Type
REMARK                         _______ _______ _______ _____ _____    ______ ____
ROOT
ATOM      1  C   UNL     1       6.563   3.997  14.113  0.00  0.00    +0.000 A 
ATOM      2  C   UNL     1       6.069   3.636  15.347  0.00  0.00    +0.000 A 
ATOM      3  N   UNL     1       6.314   4.287  16.490  0.00  0.00    +0.000 NA
ATOM      4  C   UNL     1       7.096   5.374  16.402  0.00  0.00    +0.000 A 
ATOM      5  N   UNL     1       7.572   5.880  15.253  0.00  0.00    +0.000 NA
ATOM      6  C   UNL     1       7.294   5.165  14.157  0.00  0.00    +0.000 A 
ENDROOT
BRANCH   2   7
ATOM      7  O   UNL     1       5.255   2.556  15.528  0.00  0.00    +0.000 OA
ATOM      8  H   UNL     1       4.800   2.642  16.375  0.00  0.00    +0.000 HD
ENDBRANCH   2   7
BRANCH   6   9
ATOM      9  O   UNL     1       7.795   5.705  13.011  0.00  0.00    +0.000 OA
ATOM     10  H   UNL     1       8.387   6.389  13.371  0.00  0.00    +0.000 HD
ENDBRANCH   6   9
BRANCH   1  11
ATOM     11  C   UNL     1       6.334   3.229  12.844  0.00  0.00    +0.000 C 
BRANCH  11  12
ATOM     12  C   UNL     1       5.239   3.853  11.974  0.00  0.00    +0.000 C 
BRANCH  12  14
ATOM     13  C   UNL     1       3.309   3.442  10.413  0.00  0.00    +0.000 C 
ATOM     14  C   UNL     1       4.363   2.794  11.300  0.00  0.00    +0.000 C 
ENDBRANCH  12  14
ENDBRANCH  11  12
ENDBRANCH   1  11
BRANCH   4  15
ATOM     15  S   UNL     1       7.463   6.238  17.915  0.00  0.00    +0.000 S 
BRANCH  15  16
ATOM     16  C   UNL     1       5.767   6.396  18.602  0.00  0.00    +0.000 C 
BRANCH  16  17
ATOM     17  C   UNL     1       5.295   5.115  19.292  0.00  0.00    +0.000 C 
ATOM     18  O   UNL     1       6.052   4.425  19.984  0.00  0.00    +0.000 OA
ATOM     19  N   UNL     1       3.943   4.759  19.159  0.00  0.00    +0.000 N 
ATOM     20  C   UNL     1       3.471   3.625  19.956  0.00  0.00    +0.000 C 
ATOM     21  C   UNL     1       3.514   2.319  19.168  0.00  0.00    +0.000 C 
ATOM     22  C   UNL     1       2.358   2.153  18.186  0.00  0.00    +0.000 C 
ATOM     23  C   UNL     1       2.225   3.275  17.158  0.00  0.00    +0.000 C 
ATOM     24  C   UNL     1       1.815   4.611  17.779  0.00  0.00    +0.000 C 
ATOM     25  C   UNL     1       2.995   5.446  18.284  0.00  0.00    +0.000 C 
ENDBRANCH  16  17
ENDBRANCH  15  16
ENDBRANCH   4  15
TORSDOF 8
ENDMDL
MODEL 6
REMARK VINA RESULT:      -6.9      3.864      7.505
REMARK  Name = 
REMARK  9 active torsions:
REMARK  status: ('A' for Active; 'I' for Inactive)
REMARK    1  A    between atoms: C_1  and  C_2
REMARK    2  A    between atoms: C_2  and  C_3
REMARK    3  A    between atoms: C_3  and  C_4
REMARK    4  A    between atoms: C_4  and  C_5
REMARK    5  A    between atoms: C_6  and  O_7
REMARK    6  A    between atoms: C_9  and  S_10
REMARK    7  A    between atoms: S_10  and  C_11
REMARK    8  A    between atoms: C_11  and  C_12
REMARK    9  A    between atoms: C_22  and  O_23
REMARK                            x       y       z     vdW  Elec       q    Type
REMARK                         _______ _______ _______ _____ _____    ______ ____
ROOT
ATOM      1  C   UNL     1       1.102   8.948  19.539  0.00  0.00    +0.000 A 
ATOM      2  C   UNL     1       1.858   7.872  19.951  0.00  0.00    +0.000 A 
ATOM      3  N   UNL     1       2.811   7.283  19.221  0.00  0.00    +0.000 NA
ATOM      4  C   UNL     1       3.037   7.800  18.004  0.00  0.00    +0.000 A 
ATOM      5  N   UNL     1       2.431   8.895  17.516  0.00  0.00    +0.000 NA
ATOM      6  C   UNL     1       1.481   9.418  18.300  0.00  0.00    +0.000 A 
ENDROOT
BRANCH   2   7
ATOM      7  O   UNL     1       1.708   7.292  21.177  0.00  0.00    +0.000 OA
ATOM      8  H   UNL     1       1.162   7.864  21.731  0.00  0.00    +0.000 HD
ENDBRANCH   2   7
BRANCH   6   9
ATOM      9  O   UNL     1       0.885  10.523  17.773  0.00  0.00    +0.000 OA
ATOM     10  H   UNL     1       1.372  10.614  16.934  0.00  0.00    +0.000 HD
ENDBRANCH   6   9
BRANCH   1  11
ATOM     11  C   UNL     1      -0.008   9.567  20.338  0.00  0.00    +0.000 C 
BRANCH  11  12
ATOM     12  C   UNL     1       0.511  10.532  21.407  0.00  0.00    +0.000 C 
BRANCH  12  14
ATOM     13  C   UNL     1      -1.262  11.337  23.001  0.00  0.00    +0.000 C 
ATOM     14  C   UNL     1      -0.495  11.642  21.722  0.00  0.00    +0.000 C 
ENDBRANCH  12  14
ENDBRANCH  11  12
ENDBRANCH   1  11
BRANCH   4  15
ATOM     15  S   UNL     1       4.279   7.012  17.001  0.00  0.00    +0.000 S 
BRANCH  15  16
ATOM     16  C   UNL     1       4.882   5.747  18.191  0.00  0.00    +0.000 C 
BRANCH  16  17
ATOM     17  C   UNL     1       4.329   4.353  17.891  0.00  0.00    +0.000 C 
ATOM     18  O   UNL     1       4.499   3.801  16.799  0.00  0.00    +0.000 OA
ATOM     19  N   UNL     1       3.652   3.682  18.922  0.00  0.00    +0.000 N 
ATOM     20  C   UNL     1       3.274   2.289  18.674  0.00  0.00    +0.000 C 
ATOM     21  C   UNL     1       1.843   2.173  18.154  0.00  0.00    +0.000 C 
ATOM     22  C   UNL     1       0.780   2.304  19.241  0.00  0.00    +0.000 C 
ATOM     23  C   UNL     1       0.844   3.600  20.047  0.00  0.00    +0.000 C 
ATOM     24  C   UNL     1       2.091   3.697  20.927  0.00  0.00    +0.000 C 
ATOM     25  C   UNL     1       3.310   4.285  20.209  0.00  0.00    +0.000 C 
ENDBRANCH  16  17
ENDBRANCH  15  16
ENDBRANCH   4  15
TORSDOF 8
ENDMDL
MODEL 7
REMARK VINA RESULT:      -6.8      3.805      6.928
REMARK  Name = 
REMARK  9 active torsions:
REMARK  status: ('A' for Active; 'I' for Inactive)
REMARK    1  A    between atoms: C_1  and  C_2
REMARK    2  A    between atoms: C_2  and  C_3
REMARK    3  A    between atoms: C_3  and  C_4
REMARK    4  A    between atoms: C_4  and  C_5
REMARK    5  A    between atoms: C_6  and  O_7
REMARK    6  A    between atoms: C_9  and  S_10
REMARK    7  A    between atoms: S_10  and  C_11
REMARK    8  A    between atoms: C_11  and  C_12
REMARK    9  A    between atoms: C_22  and  O_23
REMARK                            x       y       z     vdW  Elec       q    Type
REMARK                         _______ _______ _______ _____ _____    ______ ____
ROOT
ATOM      1  C   UNL     1       1.458   8.799  19.342  0.00  0.00    +0.000 A 
ATOM      2  C   UNL     1       1.917   9.192  18.104  0.00  0.00    +0.000 A 
ATOM      3  N   UNL     1       2.870   8.565  17.407  0.00  0.00    +0.000 NA
ATOM      4  C   UNL     1       3.399   7.468  17.971  0.00  0.00    +0.000 A 
ATOM      5  N   UNL     1       2.985   6.931  19.130  0.00  0.00    +0.000 NA
ATOM      6  C   UNL     1       2.038   7.625  19.773  0.00  0.00    +0.000 A 
ENDROOT
BRANCH   2   7
ATOM      7  O   UNL     1       1.426  10.284  17.450  0.00  0.00    +0.000 OA
ATOM      8  H   UNL     1       0.631  10.031  16.965  0.00  0.00    +0.000 HD
ENDBRANCH   2   7
BRANCH   6   9
ATOM      9  O   UNL     1       1.645   7.055  20.946  0.00  0.00    +0.000 OA
ATOM     10  H   UNL     1       2.102   6.196  20.897  0.00  0.00    +0.000 HD
ENDBRANCH   6   9
BRANCH   1  11
ATOM     11  C   UNL     1       0.431   9.540  20.147  0.00  0.00    +0.000 C 
BRANCH  11  12
ATOM     12  C   UNL     1       1.029  10.729  20.904  0.00  0.00    +0.000 C 
BRANCH  12  14
ATOM     13  C   UNL     1      -1.205  11.840  20.576  0.00  0.00    +0.000 C 
ATOM     14  C   UNL     1       0.304  12.039  20.588  0.00  0.00    +0.000 C 
ENDBRANCH  12  14
ENDBRANCH  11  12
ENDBRANCH   1  11
BRANCH   4  15
ATOM     15  S   UNL     1       4.692   6.635  17.075  0.00  0.00    +0.000 S 
BRANCH  15  16
ATOM     16  C   UNL     1       5.123   5.328  18.293  0.00  0.00    +0.000 C 
BRANCH  16  17
ATOM     17  C   UNL     1       4.448   3.992  17.979  0.00  0.00    +0.000 C 
ATOM     18  O   UNL     1       4.580   3.431  16.886  0.00  0.00    +0.000 OA
ATOM     19  N   UNL     1       3.699   3.381  18.998  0.00  0.00    +0.000 N 
ATOM     20  C   UNL     1       3.198   2.030  18.738  0.00  0.00    +0.000 C 
ATOM     21  C   UNL     1       1.769   2.048  18.200  0.00  0.00    +0.000 C 
ATOM     22  C   UNL     1       0.709   2.271  19.274  0.00  0.00    +0.000 C 
ATOM     23  C   UNL     1       0.881   3.552  20.089  0.00  0.00    +0.000 C 
ATOM     24  C   UNL     1       2.121   3.530  20.984  0.00  0.00    +0.000 C 
ATOM     25  C   UNL     1       3.397   4.007  20.284  0.00  0.00    +0.000 C 
ENDBRANCH  16  17
ENDBRANCH  15  16
ENDBRANCH   4  15
TORSDOF 8
ENDMDL
MODEL 8
REMARK VINA RESULT:      -6.7      3.743      7.629
REMARK  Name = 
REMARK  9 active torsions:
REMARK  status: ('A' for Active; 'I' for Inactive)
REMARK    1  A    between atoms: C_1  and  C_2
REMARK    2  A    between atoms: C_2  and  C_3
REMARK    3  A    between atoms: C_3  and  C_4
REMARK    4  A    between atoms: C_4  and  C_5
REMARK    5  A    between atoms: C_6  and  O_7
REMARK    6  A    between atoms: C_9  and  S_10
REMARK    7  A    between atoms: S_10  and  C_11
REMARK    8  A    between atoms: C_11  and  C_12
REMARK    9  A    between atoms: C_22  and  O_23
REMARK                            x       y       z     vdW  Elec       q    Type
REMARK                         _______ _______ _______ _____ _____    ______ ____
ROOT
ATOM      1  C   UNL     1       1.622   8.708  19.346  0.00  0.00    +0.000 A 
ATOM      2  C   UNL     1       1.388   8.132  20.576  0.00  0.00    +0.000 A 
ATOM      3  N   UNL     1       1.629   6.853  20.879  0.00  0.00    +0.000 NA
ATOM      4  C   UNL     1       2.145   6.094  19.900  0.00  0.00    +0.000 A 
ATOM      5  N   UNL     1       2.497   6.549  18.687  0.00  0.00    +0.000 NA
ATOM      6  C   UNL     1       2.212   7.836  18.457  0.00  0.00    +0.000 A 
ENDROOT
BRANCH   2   7
ATOM      7  O   UNL     1       0.880   8.831  21.632  0.00  0.00    +0.000 OA
ATOM      8  H   UNL     1       1.380   9.650  21.738  0.00  0.00    +0.000 HD
ENDBRANCH   2   7
BRANCH   6   9
ATOM      9  O   UNL     1       2.578   8.263  17.217  0.00  0.00    +0.000 OA
ATOM     10  H   UNL     1       1.930   8.976  17.068  0.00  0.00    +0.000 HD
ENDBRANCH   6   9
BRANCH   1  11
ATOM     11  C   UNL     1       1.293  10.130  18.993  0.00  0.00    +0.000 C 
BRANCH  11  12
ATOM     12  C   UNL     1      -0.108  10.273  18.393  0.00  0.00    +0.000 C 
BRANCH  12  14
ATOM     13  C   UNL     1      -0.370  11.859  20.330  0.00  0.00    +0.000 C 
ATOM     14  C   UNL     1      -1.091  10.923  19.370  0.00  0.00    +0.000 C 
ENDBRANCH  12  14
ENDBRANCH  11  12
ENDBRANCH   1  11
BRANCH   4  15
ATOM     15  S   UNL     1       2.445   4.378  20.271  0.00  0.00    +0.000 S 
BRANCH  15  16
ATOM     16  C   UNL     1       3.302   3.871  18.727  0.00  0.00    +0.000 C 
BRANCH  16  17
ATOM     17  C   UNL     1       4.823   3.978  18.842  0.00  0.00    +0.000 C 
ATOM     18  O   UNL     1       5.447   3.474  19.783  0.00  0.00    +0.000 OA
ATOM     19  N   UNL     1       5.513   4.632  17.809  0.00  0.00    +0.000 N 
ATOM     20  C   UNL     1       6.976   4.583  17.850  0.00  0.00    +0.000 C 
ATOM     21  C   UNL     1       7.567   5.815  18.531  0.00  0.00    +0.000 C 
ATOM     22  C   UNL     1       7.600   7.054  17.641  0.00  0.00    +0.000 C 
ATOM     23  C   UNL     1       6.243   7.477  17.081  0.00  0.00    +0.000 C 
ATOM     24  C   UNL     1       5.674   6.479  16.072  0.00  0.00    +0.000 C 
ATOM     25  C   UNL     1       4.865   5.346  16.712  0.00  0.00    +0.000 C 
ENDBRANCH  16  17
ENDBRANCH  15  16
ENDBRANCH   4  15
TORSDOF 8
ENDMDL
MODEL 9
REMARK VINA RESULT:      -6.6      6.053      8.459
REMARK  Name = 
REMARK  9 active torsions:
REMARK  status: ('A' for Active; 'I' for Inactive)
REMARK    1  A    between atoms: C_1  and  C_2
REMARK    2  A    between atoms: C_2  and  C_3
REMARK    3  A    between atoms: C_3  and  C_4
REMARK    4  A    between atoms: C_4  and  C_5
REMARK    5  A    between atoms: C_6  and  O_7
REMARK    6  A    between atoms: C_9  and  S_10
REMARK    7  A    between atoms: S_10  and  C_11
REMARK    8  A    between atoms: C_11  and  C_12
REMARK    9  A    between atoms: C_22  and  O_23
REMARK                            x       y       z     vdW  Elec       q    Type
REMARK                         _______ _______ _______ _____ _____    ______ ____
ROOT
ATOM      1  C   UNL     1       7.011   5.687  17.869  0.00  0.00    +0.000 A 
ATOM      2  C   UNL     1       6.685   6.607  16.897  0.00  0.00    +0.000 A 
ATOM      3  N   UNL     1       7.091   7.881  16.883  0.00  0.00    +0.000 NA
ATOM      4  C   UNL     1       7.880   8.268  17.897  0.00  0.00    +0.000 A 
ATOM      5  N   UNL     1       8.339   7.452  18.860  0.00  0.00    +0.000 NA
ATOM      6  C   UNL     1       7.878   6.197  18.812  0.00  0.00    +0.000 A 
ENDROOT
BRANCH   2   7
ATOM      7  O   UNL     1       5.902   6.298  15.823  0.00  0.00    +0.000 OA
ATOM      8  H   UNL     1       5.096   5.866  16.134  0.00  0.00    +0.000 HD
ENDBRANCH   2   7
BRANCH   6   9
ATOM      9  O   UNL     1       8.359   5.400  19.805  0.00  0.00    +0.000 OA
ATOM     10  H   UNL     1       8.845   4.733  19.288  0.00  0.00    +0.000 HD
ENDBRANCH   6   9
BRANCH   1  11
ATOM     11  C   UNL     1       6.504   4.275  17.912  0.00  0.00    +0.000 C 
BRANCH  11  12
ATOM     12  C   UNL     1       5.065   4.186  18.427  0.00  0.00    +0.000 C 
BRANCH  12  14
ATOM     13  C   UNL     1       3.172   2.640  17.829  0.00  0.00    +0.000 C 
ATOM     14  C   UNL     1       4.086   3.753  17.334  0.00  0.00    +0.000 C 
ENDBRANCH  12  14
ENDBRANCH  11  12
ENDBRANCH   1  11
BRANCH   4  15
ATOM     15  S   UNL     1       8.407   9.968  17.916  0.00  0.00    +0.000 S 
BRANCH  15  16
ATOM     16  C   UNL     1       9.433   9.959  19.440  0.00  0.00    +0.000 C 
BRANCH  16  17
ATOM     17  C   UNL     1       9.649  11.363  20.007  0.00  0.00    +0.000 C 
ATOM     18  O   UNL     1       8.969  11.806  20.939  0.00  0.00    +0.000 OA
ATOM     19  N   UNL     1      10.689  12.135  19.466  0.00  0.00    +0.000 N 
ATOM     20  C   UNL     1      10.988  13.407  20.126  0.00  0.00    +0.000 C 
ATOM     21  C   UNL     1      10.266  14.577  19.462  0.00  0.00    +0.000 C 
ATOM     22  C   UNL     1      10.925  15.054  18.171  0.00  0.00    +0.000 C 
ATOM     23  C   UNL     1      11.086  13.978  17.098  0.00  0.00    +0.000 C 
ATOM     24  C   UNL     1      12.091  12.892  17.486  0.00  0.00    +0.000 C 
ATOM     25  C   UNL     1      11.480  11.746  18.299  0.00  0.00    +0.000 C 
ENDBRANCH  16  17
ENDBRANCH  15  16
ENDBRANCH   4  15
TORSDOF 8
ENDMDL
