MODEL 1
REMARK VINA RESULT:      -7.6      0.000      0.000
REMARK  Name = 
REMARK  6 active torsions:
REMARK  status: ('A' for Active; 'I' for Inactive)
REMARK    1  A    between atoms: C_1  and  C_2
REMARK    2  A    between atoms: C_2  and  N_3
REMARK    3  A    between atoms: C_5  and  O_6
REMARK    4  A    between atoms: O_6  and  C_7
REMARK    5  A    between atoms: C_18  and  C_19
REMARK    6  A    between atoms: C_24  and  N_25
REMARK                            x       y       z     vdW  Elec       q    Type
REMARK                         _______ _______ _______ _____ _____    ______ ____
ROOT
ATOM      1  C   UNL     1       1.924   7.632  19.996  0.00  0.00    +0.000 A 
ATOM      2  C   UNL     1       1.125   7.638  21.135  0.00  0.00    +0.000 A 
ATOM      3  C   UNL     1       0.226   8.681  21.340  0.00  0.00    +0.000 A 
ATOM      4  C   UNL     1       0.119   9.717  20.406  0.00  0.00    +0.000 A 
ATOM      5  C   UNL     1       0.933   9.724  19.262  0.00  0.00    +0.000 A 
ATOM      6  C   UNL     1       1.817   8.654  19.053  0.00  0.00    +0.000 A 
ATOM      7  C   UNL     1       0.823  10.843  18.254  0.00  0.00    +0.000 C 
ATOM      8  C   UNL     1       0.656  12.215  18.878  0.00  0.00    +0.000 A 
ATOM      9  C   UNL     1       1.323  13.317  18.319  0.00  0.00    +0.000 A 
ATOM     10  C   UNL     1       1.165  14.591  18.859  0.00  0.00    +0.000 A 
ATOM     11  C   UNL     1       0.343  14.785  19.967  0.00  0.00    +0.000 A 
ATOM     12  C   UNL     1      -0.333  13.704  20.551  0.00  0.00    +0.000 A 
ATOM     13  C   UNL     1      -0.189  12.413  19.995  0.00  0.00    +0.000 A 
ATOM     14  S   UNL     1      -1.063  11.013  20.700  0.00  0.00    +0.000 S 
ENDROOT
BRANCH  12  15
ATOM     15  C   UNL     1      -1.106  13.956  21.780  0.00  0.00    +0.000 A 
ATOM     16  C   UNL     1      -0.507  14.464  22.865  0.00  0.00    +0.000 A 
ATOM     17  C   UNL     1      -1.321  14.653  24.063  0.00  0.00    +0.000 A 
ATOM     18  O   UNL     1      -0.841  15.091  25.099  0.00  0.00    +0.000 OA
ATOM     19  C   UNL     1      -2.749  14.295  23.975  0.00  0.00    +0.000 A 
ATOM     20  C   UNL     1      -3.259  13.802  22.835  0.00  0.00    +0.000 A 
ATOM     21  O   UNL     1      -2.447  13.632  21.711  0.00  0.00    +0.000 OA
BRANCH  20  22
ATOM     22  N   UNL     1      -4.610  13.453  22.667  0.00  0.00    +0.000 N 
ATOM     23  C   UNL     1      -5.581  13.670  23.768  0.00  0.00    +0.000 C 
ATOM     24  C   UNL     1      -6.789  12.733  23.626  0.00  0.00    +0.000 C 
ATOM     25  O   UNL     1      -7.421  12.864  22.345  0.00  0.00    +0.000 OA
ATOM     26  C   UNL     1      -6.484  12.551  21.307  0.00  0.00    +0.000 C 
ATOM     27  C   UNL     1      -5.275  13.498  21.340  0.00  0.00    +0.000 C 
ENDBRANCH  20  22
ENDBRANCH  12  15
BRANCH   1  28
ATOM     28  O   UNL     1       2.838   6.648  19.726  0.00  0.00    +0.000 OA
BRANCH  28  31
ATOM     29  N   UNL     1       3.397   4.143  18.396  0.00  0.00    +0.000 NA
ATOM     30  C   UNL     1       4.212   5.342  18.046  0.00  0.00    +0.000 C 
ATOM     31  C   UNL     1       2.951   6.198  18.347  0.00  0.00    +0.000 C 
ATOM     32  C   UNL     1       2.204   4.894  17.919  0.00  0.00    +0.000 C 
BRANCH  29  34
ATOM     33  C   UNL     1       3.475   1.686  18.231  0.00  0.00    +0.000 C 
ATOM     34  C   UNL     1       3.744   3.017  17.538  0.00  0.00    +0.000 C 
ENDBRANCH  29  34
ENDBRANCH  28  31
ENDBRANCH   1  28
TORSDOF 5
ENDMDL
MODEL 2
REMARK VINA RESULT:      -7.6      0.911      1.454
REMARK  Name = 
REMARK  6 active torsions:
REMARK  status: ('A' for Active; 'I' for Inactive)
REMARK    1  A    between atoms: C_1  and  C_2
REMARK    2  A    between atoms: C_2  and  N_3
REMARK    3  A    between atoms: C_5  and  O_6
REMARK    4  A    between atoms: O_6  and  C_7
REMARK    5  A    between atoms: C_18  and  C_19
REMARK    6  A    between atoms: C_24  and  N_25
REMARK                            x       y       z     vdW  Elec       q    Type
REMARK                         _______ _______ _______ _____ _____    ______ ____
ROOT
ATOM      1  C   UNL     1       1.993   7.714  19.866  0.00  0.00    +0.000 A 
ATOM      2  C   UNL     1       1.243   7.705  21.038  0.00  0.00    +0.000 A 
ATOM      3  C   UNL     1       0.353   8.745  21.293  0.00  0.00    +0.000 A 
ATOM      4  C   UNL     1       0.206   9.792  20.377  0.00  0.00    +0.000 A 
ATOM      5  C   UNL     1       0.971   9.814  19.201  0.00  0.00    +0.000 A 
ATOM      6  C   UNL     1       1.846   8.748  18.941  0.00  0.00    +0.000 A 
ATOM      7  C   UNL     1       0.819  10.946  18.212  0.00  0.00    +0.000 C 
ATOM      8  C   UNL     1       0.678  12.310  18.859  0.00  0.00    +0.000 A 
ATOM      9  C   UNL     1       1.321  13.419  18.286  0.00  0.00    +0.000 A 
ATOM     10  C   UNL     1       1.184  14.686  18.848  0.00  0.00    +0.000 A 
ATOM     11  C   UNL     1       0.410  14.866  19.993  0.00  0.00    +0.000 A 
ATOM     12  C   UNL     1      -0.241  13.776  20.590  0.00  0.00    +0.000 A 
ATOM     13  C   UNL     1      -0.120  12.493  20.013  0.00  0.00    +0.000 A 
ATOM     14  S   UNL     1      -0.963  11.084  20.737  0.00  0.00    +0.000 S 
ENDROOT
BRANCH  12  15
ATOM     15  C   UNL     1      -0.962  14.013  21.854  0.00  0.00    +0.000 A 
ATOM     16  C   UNL     1      -0.356  14.635  22.873  0.00  0.00    +0.000 A 
ATOM     17  C   UNL     1      -1.113  14.803  24.112  0.00  0.00    +0.000 A 
ATOM     18  O   UNL     1      -0.621  15.341  25.093  0.00  0.00    +0.000 OA
ATOM     19  C   UNL     1      -2.498  14.297  24.132  0.00  0.00    +0.000 A 
ATOM     20  C   UNL     1      -3.020  13.696  23.052  0.00  0.00    +0.000 A 
ATOM     21  O   UNL     1      -2.263  13.551  21.886  0.00  0.00    +0.000 OA
BRANCH  20  22
ATOM     22  N   UNL     1      -4.334  13.202  22.987  0.00  0.00    +0.000 N 
ATOM     23  C   UNL     1      -4.852  12.616  21.725  0.00  0.00    +0.000 C 
ATOM     24  C   UNL     1      -6.385  12.688  21.676  0.00  0.00    +0.000 C 
ATOM     25  O   UNL     1      -6.987  12.066  22.819  0.00  0.00    +0.000 OA
ATOM     26  C   UNL     1      -6.544  12.720  24.016  0.00  0.00    +0.000 C 
ATOM     27  C   UNL     1      -5.020  12.628  24.173  0.00  0.00    +0.000 C 
ENDBRANCH  20  22
ENDBRANCH  12  15
BRANCH   1  28
ATOM     28  O   UNL     1       2.896   6.734  19.546  0.00  0.00    +0.000 OA
BRANCH  28  31
ATOM     29  N   UNL     1       4.993   5.644  17.882  0.00  0.00    +0.000 NA
ATOM     30  C   UNL     1       4.347   6.927  17.479  0.00  0.00    +0.000 C 
ATOM     31  C   UNL     1       3.045   6.395  18.139  0.00  0.00    +0.000 C 
ATOM     32  C   UNL     1       3.654   5.006  17.762  0.00  0.00    +0.000 C 
BRANCH  29  34
ATOM     33  C   UNL     1       7.226   4.684  17.480  0.00  0.00    +0.000 C 
ATOM     34  C   UNL     1       5.932   5.198  16.860  0.00  0.00    +0.000 C 
ENDBRANCH  29  34
ENDBRANCH  28  31
ENDBRANCH   1  28
TORSDOF 5
ENDMDL
MODEL 3
REMARK VINA RESULT:      -7.5      1.180      1.283
REMARK  Name = 
REMARK  6 active torsions:
REMARK  status: ('A' for Active; 'I' for Inactive)
REMARK    1  A    between atoms: C_1  and  C_2
REMARK    2  A    between atoms: C_2  and  N_3
REMARK    3  A    between atoms: C_5  and  O_6
REMARK    4  A    between atoms: O_6  and  C_7
REMARK    5  A    between atoms: C_18  and  C_19
REMARK    6  A    between atoms: C_24  and  N_25
REMARK                            x       y       z     vdW  Elec       q    Type
REMARK                         _______ _______ _______ _____ _____    ______ ____
ROOT
ATOM      1  C   UNL     1       1.705   8.254  20.153  0.00  0.00    +0.000 A 
ATOM      2  C   UNL     1       1.190   8.274  21.445  0.00  0.00    +0.000 A 
ATOM      3  C   UNL     1       0.232   9.224  21.789  0.00  0.00    +0.000 A 
ATOM      4  C   UNL     1      -0.217  10.152  20.844  0.00  0.00    +0.000 A 
ATOM      5  C   UNL     1       0.311  10.146  19.543  0.00  0.00    +0.000 A 
ATOM      6  C   UNL     1       1.256   9.168  19.199  0.00  0.00    +0.000 A 
ATOM      7  C   UNL     1      -0.167  11.150  18.521  0.00  0.00    +0.000 C 
ATOM      8  C   UNL     1      -0.367  12.545  19.080  0.00  0.00    +0.000 A 
ATOM      9  C   UNL     1       0.008  13.659  18.312  0.00  0.00    +0.000 A 
ATOM     10  C   UNL     1      -0.189  14.952  18.793  0.00  0.00    +0.000 A 
ATOM     11  C   UNL     1      -0.758  15.152  20.050  0.00  0.00    +0.000 A 
ATOM     12  C   UNL     1      -1.139  14.059  20.842  0.00  0.00    +0.000 A 
ATOM     13  C   UNL     1      -0.957  12.748  20.349  0.00  0.00    +0.000 A 
ATOM     14  S   UNL     1      -1.460  11.329  21.326  0.00  0.00    +0.000 S 
ENDROOT
BRANCH  12  15
ATOM     15  C   UNL     1      -1.641  14.334  22.200  0.00  0.00    +0.000 A 
ATOM     16  C   UNL     1      -0.802  14.729  23.166  0.00  0.00    +0.000 A 
ATOM     17  C   UNL     1      -1.356  14.946  24.500  0.00  0.00    +0.000 A 
ATOM     18  O   UNL     1      -0.650  15.286  25.438  0.00  0.00    +0.000 OA
ATOM     19  C   UNL     1      -2.807  14.739  24.671  0.00  0.00    +0.000 A 
ATOM     20  C   UNL     1      -3.567  14.353  23.636  0.00  0.00    +0.000 A 
ATOM     21  O   UNL     1      -2.999  14.151  22.375  0.00  0.00    +0.000 OA
BRANCH  20  22
ATOM     22  N   UNL     1      -4.956  14.151  23.714  0.00  0.00    +0.000 N 
ATOM     23  C   UNL     1      -5.497  12.869  24.231  0.00  0.00    +0.000 C 
ATOM     24  C   UNL     1      -6.919  12.623  23.706  0.00  0.00    +0.000 C 
ATOM     25  O   UNL     1      -7.798  13.715  24.009  0.00  0.00    +0.000 OA
ATOM     26  C   UNL     1      -7.300  14.920  23.412  0.00  0.00    +0.000 C 
ATOM     27  C   UNL     1      -5.903  15.272  23.944  0.00  0.00    +0.000 C 
ENDBRANCH  20  22
ENDBRANCH  12  15
BRANCH   1  28
ATOM     28  O   UNL     1       2.655   7.358  19.737  0.00  0.00    +0.000 OA
BRANCH  28  31
ATOM     29  N   UNL     1       3.351   4.584  19.314  0.00  0.00    +0.000 NA
ATOM     30  C   UNL     1       3.390   5.522  18.155  0.00  0.00    +0.000 C 
ATOM     31  C   UNL     1       2.229   6.298  18.836  0.00  0.00    +0.000 C 
ATOM     32  C   UNL     1       1.900   4.892  19.432  0.00  0.00    +0.000 C 
BRANCH  29  34
ATOM     33  C   UNL     1       4.390   2.437  19.932  0.00  0.00    +0.000 C 
ATOM     34  C   UNL     1       3.611   3.218  18.879  0.00  0.00    +0.000 C 
ENDBRANCH  29  34
ENDBRANCH  28  31
ENDBRANCH   1  28
TORSDOF 5
ENDMDL
MODEL 4
REMARK VINA RESULT:      -7.4      1.399      1.596
REMARK  Name = 
REMARK  6 active torsions:
REMARK  status: ('A' for Active; 'I' for Inactive)
REMARK    1  A    between atoms: C_1  and  C_2
REMARK    2  A    between atoms: C_2  and  N_3
REMARK    3  A    between atoms: C_5  and  O_6
REMARK    4  A    between atoms: O_6  and  C_7
REMARK    5  A    between atoms: C_18  and  C_19
REMARK    6  A    between atoms: C_24  and  N_25
REMARK                            x       y       z     vdW  Elec       q    Type
REMARK                         _______ _______ _______ _____ _____    ______ ____
ROOT
ATOM      1  C   UNL     1       1.509   8.398  20.270  0.00  0.00    +0.000 A 
ATOM      2  C   UNL     1       0.925   8.394  21.533  0.00  0.00    +0.000 A 
ATOM      3  C   UNL     1      -0.004   9.375  21.865  0.00  0.00    +0.000 A 
ATOM      4  C   UNL     1      -0.358  10.359  20.937  0.00  0.00    +0.000 A 
ATOM      5  C   UNL     1       0.238  10.378  19.666  0.00  0.00    +0.000 A 
ATOM      6  C   UNL     1       1.155   9.369  19.332  0.00  0.00    +0.000 A 
ATOM      7  C   UNL     1      -0.138  11.442  18.662  0.00  0.00    +0.000 C 
ATOM      8  C   UNL     1      -0.303  12.823  19.266  0.00  0.00    +0.000 A 
ATOM      9  C   UNL     1       0.164  13.946  18.565  0.00  0.00    +0.000 A 
ATOM     10  C   UNL     1       0.001  15.227  19.088  0.00  0.00    +0.000 A 
ATOM     11  C   UNL     1      -0.625  15.407  20.320  0.00  0.00    +0.000 A 
ATOM     12  C   UNL     1      -1.098  14.303  21.046  0.00  0.00    +0.000 A 
ATOM     13  C   UNL     1      -0.951  13.005  20.511  0.00  0.00    +0.000 A 
ATOM     14  S   UNL     1      -1.570  11.575  21.401  0.00  0.00    +0.000 S 
ENDROOT
BRANCH  12  15
ATOM     15  C   UNL     1      -1.660  14.550  22.386  0.00  0.00    +0.000 A 
ATOM     16  C   UNL     1      -0.861  14.897  23.402  0.00  0.00    +0.000 A 
ATOM     17  C   UNL     1      -1.475  15.088  24.714  0.00  0.00    +0.000 A 
ATOM     18  O   UNL     1      -0.808  15.385  25.695  0.00  0.00    +0.000 OA
ATOM     19  C   UNL     1      -2.936  14.910  24.809  0.00  0.00    +0.000 A 
ATOM     20  C   UNL     1      -3.653  14.571  23.727  0.00  0.00    +0.000 A 
ATOM     21  O   UNL     1      -3.028  14.393  22.490  0.00  0.00    +0.000 OA
BRANCH  20  22
ATOM     22  N   UNL     1      -5.048  14.398  23.733  0.00  0.00    +0.000 N 
ATOM     23  C   UNL     1      -5.935  15.459  23.193  0.00  0.00    +0.000 C 
ATOM     24  C   UNL     1      -7.342  15.359  23.801  0.00  0.00    +0.000 C 
ATOM     25  O   UNL     1      -7.916  14.058  23.610  0.00  0.00    +0.000 OA
ATOM     26  C   UNL     1      -7.086  13.066  24.229  0.00  0.00    +0.000 C 
ATOM     27  C   UNL     1      -5.676  13.057  23.621  0.00  0.00    +0.000 C 
ENDBRANCH  20  22
ENDBRANCH  12  15
BRANCH   1  28
ATOM     28  O   UNL     1       2.438   7.475  19.868  0.00  0.00    +0.000 OA
BRANCH  28  31
ATOM     29  N   UNL     1       4.082   5.854  18.128  0.00  0.00    +0.000 NA
ATOM     30  C   UNL     1       3.629   7.192  17.651  0.00  0.00    +0.000 C 
ATOM     31  C   UNL     1       2.346   6.982  18.502  0.00  0.00    +0.000 C 
ATOM     32  C   UNL     1       2.646   5.474  18.226  0.00  0.00    +0.000 C 
BRANCH  29  34
ATOM     33  C   UNL     1       6.135   4.617  17.559  0.00  0.00    +0.000 C 
ATOM     34  C   UNL     1       4.790   5.144  17.071  0.00  0.00    +0.000 C 
ENDBRANCH  29  34
ENDBRANCH  28  31
ENDBRANCH   1  28
TORSDOF 5
ENDMDL
MODEL 5
REMARK VINA RESULT:      -7.3      1.376      1.884
REMARK  Name = 
REMARK  6 active torsions:
REMARK  status: ('A' for Active; 'I' for Inactive)
REMARK    1  A    between atoms: C_1  and  C_2
REMARK    2  A    between atoms: C_2  and  N_3
REMARK    3  A    between atoms: C_5  and  O_6
REMARK    4  A    between atoms: O_6  and  C_7
REMARK    5  A    between atoms: C_18  and  C_19
REMARK    6  A    between atoms: C_24  and  N_25
REMARK                            x       y       z     vdW  Elec       q    Type
REMARK                         _______ _______ _______ _____ _____    ______ ____
ROOT
ATOM      1  C   UNL     1       2.507   6.757  19.956  0.00  0.00    +0.000 A 
ATOM      2  C   UNL     1       1.516   6.844  20.928  0.00  0.00    +0.000 A 
ATOM      3  C   UNL     1       0.642   7.926  20.926  0.00  0.00    +0.000 A 
ATOM      4  C   UNL     1       0.751   8.923  19.949  0.00  0.00    +0.000 A 
ATOM      5  C   UNL     1       1.758   8.849  18.974  0.00  0.00    +0.000 A 
ATOM      6  C   UNL     1       2.618   7.739  18.970  0.00  0.00    +0.000 A 
ATOM      7  C   UNL     1       1.882   9.924  17.922  0.00  0.00    +0.000 C 
ATOM      8  C   UNL     1       1.664  11.328  18.452  0.00  0.00    +0.000 A 
ATOM      9  C   UNL     1       2.469  12.378  17.983  0.00  0.00    +0.000 A 
ATOM     10  C   UNL     1       2.271  13.681  18.436  0.00  0.00    +0.000 A 
ATOM     11  C   UNL     1       1.272  13.954  19.368  0.00  0.00    +0.000 A 
ATOM     12  C   UNL     1       0.454  12.925  19.858  0.00  0.00    +0.000 A 
ATOM     13  C   UNL     1       0.640  11.607  19.388  0.00  0.00    +0.000 A 
ATOM     14  S   UNL     1      -0.407  10.272  19.974  0.00  0.00    +0.000 S 
ENDROOT
BRANCH  12  15
ATOM     15  C   UNL     1      -0.517  13.260  20.915  0.00  0.00    +0.000 A 
ATOM     16  C   UNL     1      -0.096  13.697  22.109  0.00  0.00    +0.000 A 
ATOM     17  C   UNL     1      -1.107  13.974  23.126  0.00  0.00    +0.000 A 
ATOM     18  O   UNL     1      -0.799  14.354  24.246  0.00  0.00    +0.000 OA
ATOM     19  C   UNL     1      -2.519  13.777  22.747  0.00  0.00    +0.000 A 
ATOM     20  C   UNL     1      -2.841  13.346  21.518  0.00  0.00    +0.000 A 
ATOM     21  O   UNL     1      -1.844  13.088  20.573  0.00  0.00    +0.000 OA
BRANCH  20  22
ATOM     22  N   UNL     1      -4.161  13.149  21.076  0.00  0.00    +0.000 N 
ATOM     23  C   UNL     1      -4.423  12.476  19.779  0.00  0.00    +0.000 C 
ATOM     24  C   UNL     1      -5.799  12.872  19.224  0.00  0.00    +0.000 C 
ATOM     25  O   UNL     1      -6.850  12.612  20.164  0.00  0.00    +0.000 OA
ATOM     26  C   UNL     1      -6.620  13.355  21.368  0.00  0.00    +0.000 C 
ATOM     27  C   UNL     1      -5.289  12.960  22.023  0.00  0.00    +0.000 C 
ENDBRANCH  20  22
ENDBRANCH  12  15
BRANCH   1  28
ATOM     28  O   UNL     1       3.412   5.730  19.894  0.00  0.00    +0.000 OA
BRANCH  28  31
ATOM     29  N   UNL     1       4.648   4.458  17.612  0.00  0.00    +0.000 NA
ATOM     30  C   UNL     1       3.230   4.910  17.505  0.00  0.00    +0.000 C 
ATOM     31  C   UNL     1       3.096   4.609  19.023  0.00  0.00    +0.000 C 
ATOM     32  C   UNL     1       4.211   3.559  18.714  0.00  0.00    +0.000 C 
BRANCH  29  34
ATOM     33  C   UNL     1       6.399   4.219  15.895  0.00  0.00    +0.000 C 
ATOM     34  C   UNL     1       5.048   3.735  16.410  0.00  0.00    +0.000 C 
ENDBRANCH  29  34
ENDBRANCH  28  31
ENDBRANCH   1  28
TORSDOF 5
ENDMDL
MODEL 6
REMARK VINA RESULT:      -7.3      1.052      1.235
REMARK  Name = 
REMARK  6 active torsions:
REMARK  status: ('A' for Active; 'I' for Inactive)
REMARK    1  A    between atoms: C_1  and  C_2
REMARK    2  A    between atoms: C_2  and  N_3
REMARK    3  A    between atoms: C_5  and  O_6
REMARK    4  A    between atoms: O_6  and  C_7
REMARK    5  A    between atoms: C_18  and  C_19
REMARK    6  A    between atoms: C_24  and  N_25
REMARK                            x       y       z     vdW  Elec       q    Type
REMARK                         _______ _______ _______ _____ _____    ______ ____
ROOT
ATOM      1  C   UNL     1       2.209   6.997  20.170  0.00  0.00    +0.000 A 
ATOM      2  C   UNL     1       1.267   7.095  21.190  0.00  0.00    +0.000 A 
ATOM      3  C   UNL     1       0.407   8.188  21.229  0.00  0.00    +0.000 A 
ATOM      4  C   UNL     1       0.481   9.183  20.249  0.00  0.00    +0.000 A 
ATOM      5  C   UNL     1       1.438   9.097  19.226  0.00  0.00    +0.000 A 
ATOM      6  C   UNL     1       2.283   7.978  19.180  0.00  0.00    +0.000 A 
ATOM      7  C   UNL     1       1.524  10.172  18.168  0.00  0.00    +0.000 C 
ATOM      8  C   UNL     1       1.350  11.578  18.708  0.00  0.00    +0.000 A 
ATOM      9  C   UNL     1       2.144  12.619  18.200  0.00  0.00    +0.000 A 
ATOM     10  C   UNL     1       1.984  13.923  18.662  0.00  0.00    +0.000 A 
ATOM     11  C   UNL     1       1.035  14.208  19.641  0.00  0.00    +0.000 A 
ATOM     12  C   UNL     1       0.229  13.189  20.171  0.00  0.00    +0.000 A 
ATOM     13  C   UNL     1       0.376  11.869  19.692  0.00  0.00    +0.000 A 
ATOM     14  S   UNL     1      -0.658  10.547  20.329  0.00  0.00    +0.000 S 
ENDROOT
BRANCH  12  15
ATOM     15  C   UNL     1      -0.685  13.536  21.274  0.00  0.00    +0.000 A 
ATOM     16  C   UNL     1      -0.214  14.102  22.392  0.00  0.00    +0.000 A 
ATOM     17  C   UNL     1      -1.167  14.385  23.463  0.00  0.00    +0.000 A 
ATOM     18  O   UNL     1      -0.809  14.881  24.522  0.00  0.00    +0.000 OA
ATOM     19  C   UNL     1      -2.581  14.048  23.216  0.00  0.00    +0.000 A 
ATOM     20  C   UNL     1      -2.957  13.491  22.054  0.00  0.00    +0.000 A 
ATOM     21  O   UNL     1      -2.015  13.233  21.055  0.00  0.00    +0.000 OA
BRANCH  20  22
ATOM     22  N   UNL     1      -4.284  13.157  21.738  0.00  0.00    +0.000 N 
ATOM     23  C   UNL     1      -5.392  13.549  22.645  0.00  0.00    +0.000 C 
ATOM     24  C   UNL     1      -6.608  12.631  22.454  0.00  0.00    +0.000 C 
ATOM     25  O   UNL     1      -7.046  12.601  21.089  0.00  0.00    +0.000 OA
ATOM     26  C   UNL     1      -5.986  12.124  20.250  0.00  0.00    +0.000 C 
ATOM     27  C   UNL     1      -4.752  13.034  20.333  0.00  0.00    +0.000 C 
ENDBRANCH  20  22
ENDBRANCH  12  15
BRANCH   1  28
ATOM     28  O   UNL     1       3.097   5.958  20.065  0.00  0.00    +0.000 OA
BRANCH  28  31
ATOM     29  N   UNL     1       4.149   4.423  17.853  0.00  0.00    +0.000 NA
ATOM     30  C   UNL     1       2.757   4.952  17.766  0.00  0.00    +0.000 C 
ATOM     31  C   UNL     1       2.675   4.789  19.309  0.00  0.00    +0.000 C 
ATOM     32  C   UNL     1       3.711   3.650  19.046  0.00  0.00    +0.000 C 
BRANCH  29  34
ATOM     33  C   UNL     1       5.709   4.047  15.984  0.00  0.00    +0.000 C 
ATOM     34  C   UNL     1       4.450   3.578  16.704  0.00  0.00    +0.000 C 
ENDBRANCH  29  34
ENDBRANCH  28  31
ENDBRANCH   1  28
TORSDOF 5
ENDMDL
MODEL 7
REMARK VINA RESULT:      -7.1      0.760      1.101
REMARK  Name = 
REMARK  6 active torsions:
REMARK  status: ('A' for Active; 'I' for Inactive)
REMARK    1  A    between atoms: C_1  and  C_2
REMARK    2  A    between atoms: C_2  and  N_3
REMARK    3  A    between atoms: C_5  and  O_6
REMARK    4  A    between atoms: O_6  and  C_7
REMARK    5  A    between atoms: C_18  and  C_19
REMARK    6  A    between atoms: C_24  and  N_25
REMARK                            x       y       z     vdW  Elec       q    Type
REMARK                         _______ _______ _______ _____ _____    ______ ____
ROOT
ATOM      1  C   UNL     1       1.862   7.734  20.046  0.00  0.00    +0.000 A 
ATOM      2  C   UNL     1       1.043   7.760  21.171  0.00  0.00    +0.000 A 
ATOM      3  C   UNL     1       0.169   8.826  21.362  0.00  0.00    +0.000 A 
ATOM      4  C   UNL     1       0.107   9.867  20.429  0.00  0.00    +0.000 A 
ATOM      5  C   UNL     1       0.941   9.853  19.300  0.00  0.00    +0.000 A 
ATOM      6  C   UNL     1       1.799   8.760  19.104  0.00  0.00    +0.000 A 
ATOM      7  C   UNL     1       0.880  10.977  18.293  0.00  0.00    +0.000 C 
ATOM      8  C   UNL     1       0.739  12.352  18.916  0.00  0.00    +0.000 A 
ATOM      9  C   UNL     1       1.446  13.436  18.372  0.00  0.00    +0.000 A 
ATOM     10  C   UNL     1       1.312  14.713  18.912  0.00  0.00    +0.000 A 
ATOM     11  C   UNL     1       0.477  14.927  20.006  0.00  0.00    +0.000 A 
ATOM     12  C   UNL     1      -0.239  13.863  20.575  0.00  0.00    +0.000 A 
ATOM     13  C   UNL     1      -0.120  12.571  20.019  0.00  0.00    +0.000 A 
ATOM     14  S   UNL     1      -1.044  11.194  20.705  0.00  0.00    +0.000 S 
ENDROOT
BRANCH  12  15
ATOM     15  C   UNL     1      -1.027  14.134  21.790  0.00  0.00    +0.000 A 
ATOM     16  C   UNL     1      -0.432  14.610  22.892  0.00  0.00    +0.000 A 
ATOM     17  C   UNL     1      -1.262  14.820  24.075  0.00  0.00    +0.000 A 
ATOM     18  O   UNL     1      -0.787  15.230  25.124  0.00  0.00    +0.000 OA
ATOM     19  C   UNL     1      -2.701  14.516  23.955  0.00  0.00    +0.000 A 
ATOM     20  C   UNL     1      -3.205  14.053  22.801  0.00  0.00    +0.000 A 
ATOM     21  O   UNL     1      -2.378  13.862  21.691  0.00  0.00    +0.000 OA
BRANCH  20  22
ATOM     22  N   UNL     1      -4.565  13.757  22.602  0.00  0.00    +0.000 N 
ATOM     23  C   UNL     1      -4.966  12.685  21.656  0.00  0.00    +0.000 C 
ATOM     24  C   UNL     1      -6.399  12.908  21.152  0.00  0.00    +0.000 C 
ATOM     25  O   UNL     1      -7.335  13.021  22.233  0.00  0.00    +0.000 OA
ATOM     26  C   UNL     1      -6.977  14.126  23.072  0.00  0.00    +0.000 C 
ATOM     27  C   UNL     1      -5.576  13.941  23.674  0.00  0.00    +0.000 C 
ENDBRANCH  20  22
ENDBRANCH  12  15
BRANCH   1  28
ATOM     28  O   UNL     1       2.754   6.726  19.790  0.00  0.00    +0.000 OA
BRANCH  28  31
ATOM     29  N   UNL     1       3.507   3.945  19.556  0.00  0.00    +0.000 NA
ATOM     30  C   UNL     1       3.365   4.760  18.315  0.00  0.00    +0.000 C 
ATOM     31  C   UNL     1       2.266   5.568  19.058  0.00  0.00    +0.000 C 
ATOM     32  C   UNL     1       2.070   4.221  19.825  0.00  0.00    +0.000 C 
BRANCH  29  34
ATOM     33  C   UNL     1       4.638   1.881  20.287  0.00  0.00    +0.000 C 
ATOM     34  C   UNL     1       3.769   2.549  19.227  0.00  0.00    +0.000 C 
ENDBRANCH  29  34
ENDBRANCH  28  31
ENDBRANCH   1  28
TORSDOF 5
ENDMDL
MODEL 8
REMARK VINA RESULT:      -7.1      1.341      1.546
REMARK  Name = 
REMARK  6 active torsions:
REMARK  status: ('A' for Active; 'I' for Inactive)
REMARK    1  A    between atoms: C_1  and  C_2
REMARK    2  A    between atoms: C_2  and  N_3
REMARK    3  A    between atoms: C_5  and  O_6
REMARK    4  A    between atoms: O_6  and  C_7
REMARK    5  A    between atoms: C_18  and  C_19
REMARK    6  A    between atoms: C_24  and  N_25
REMARK                            x       y       z     vdW  Elec       q    Type
REMARK                         _______ _______ _______ _____ _____    ______ ____
ROOT
ATOM      1  C   UNL     1       1.680   7.342  20.372  0.00  0.00    +0.000 A 
ATOM      2  C   UNL     1       0.793   7.642  21.401  0.00  0.00    +0.000 A 
ATOM      3  C   UNL     1       0.118   8.859  21.396  0.00  0.00    +0.000 A 
ATOM      4  C   UNL     1       0.324   9.779  20.361  0.00  0.00    +0.000 A 
ATOM      5  C   UNL     1       1.229   9.488  19.328  0.00  0.00    +0.000 A 
ATOM      6  C   UNL     1       1.884   8.247  19.330  0.00  0.00    +0.000 A 
ATOM      7  C   UNL     1       1.457  10.480  18.213  0.00  0.00    +0.000 C 
ATOM      8  C   UNL     1       1.523  11.921  18.678  0.00  0.00    +0.000 A 
ATOM      9  C   UNL     1       2.459  12.794  18.100  0.00  0.00    +0.000 A 
ATOM     10  C   UNL     1       2.520  14.129  18.493  0.00  0.00    +0.000 A 
ATOM     11  C   UNL     1       1.654  14.612  19.472  0.00  0.00    +0.000 A 
ATOM     12  C   UNL     1       0.711  13.764  20.070  0.00  0.00    +0.000 A 
ATOM     13  C   UNL     1       0.633  12.414  19.661  0.00  0.00    +0.000 A 
ATOM     14  S   UNL     1      -0.581  11.309  20.387  0.00  0.00    +0.000 S 
ENDROOT
BRANCH  12  15
ATOM     15  C   UNL     1      -0.108  14.308  21.168  0.00  0.00    +0.000 A 
ATOM     16  C   UNL     1       0.470  14.954  22.188  0.00  0.00    +0.000 A 
ATOM     17  C   UNL     1      -0.394  15.435  23.264  0.00  0.00    +0.000 A 
ATOM     18  O   UNL     1       0.062  16.014  24.239  0.00  0.00    +0.000 OA
ATOM     19  C   UNL     1      -1.843  15.194  23.127  0.00  0.00    +0.000 A 
ATOM     20  C   UNL     1      -2.328  14.545  22.057  0.00  0.00    +0.000 A 
ATOM     21  O   UNL     1      -1.468  14.097  21.050  0.00  0.00    +0.000 OA
BRANCH  20  22
ATOM     22  N   UNL     1      -3.694  14.291  21.846  0.00  0.00    +0.000 N 
ATOM     23  C   UNL     1      -4.714  15.272  22.292  0.00  0.00    +0.000 C 
ATOM     24  C   UNL     1      -6.073  14.589  22.509  0.00  0.00    +0.000 C 
ATOM     25  O   UNL     1      -6.510  13.884  21.340  0.00  0.00    +0.000 OA
ATOM     26  C   UNL     1      -5.551  12.877  20.993  0.00  0.00    +0.000 C 
ATOM     27  C   UNL     1      -4.177  13.493  20.690  0.00  0.00    +0.000 C 
ENDBRANCH  20  22
ENDBRANCH  12  15
BRANCH   1  28
ATOM     28  O   UNL     1       2.389   6.171  20.309  0.00  0.00    +0.000 OA
BRANCH  28  31
ATOM     29  N   UNL     1       2.619   3.415  19.467  0.00  0.00    +0.000 NA
ATOM     30  C   UNL     1       1.313   4.116  19.292  0.00  0.00    +0.000 C 
ATOM     31  C   UNL     1       1.665   4.935  20.564  0.00  0.00    +0.000 C 
ATOM     32  C   UNL     1       2.477   3.651  20.929  0.00  0.00    +0.000 C 
BRANCH  29  34
ATOM     33  C   UNL     1       3.591   1.598  18.117  0.00  0.00    +0.000 C 
ATOM     34  C   UNL     1       2.501   2.010  19.100  0.00  0.00    +0.000 C 
ENDBRANCH  29  34
ENDBRANCH  28  31
ENDBRANCH   1  28
TORSDOF 5
ENDMDL
MODEL 9
REMARK VINA RESULT:      -6.9      1.237      1.537
REMARK  Name = 
REMARK  6 active torsions:
REMARK  status: ('A' for Active; 'I' for Inactive)
REMARK    1  A    between atoms: C_1  and  C_2
REMARK    2  A    between atoms: C_2  and  N_3
REMARK    3  A    between atoms: C_5  and  O_6
REMARK    4  A    between atoms: O_6  and  C_7
REMARK    5  A    between atoms: C_18  and  C_19
REMARK    6  A    between atoms: C_24  and  N_25
REMARK                            x       y       z     vdW  Elec       q    Type
REMARK                         _______ _______ _______ _____ _____    ______ ____
ROOT
ATOM      1  C   UNL     1       1.622   7.517  20.341  0.00  0.00    +0.000 A 
ATOM      2  C   UNL     1       0.728   7.826  21.361  0.00  0.00    +0.000 A 
ATOM      3  C   UNL     1       0.064   9.049  21.348  0.00  0.00    +0.000 A 
ATOM      4  C   UNL     1       0.286   9.965  20.313  0.00  0.00    +0.000 A 
ATOM      5  C   UNL     1       1.197   9.665  19.289  0.00  0.00    +0.000 A 
ATOM      6  C   UNL     1       1.842   8.418  19.298  0.00  0.00    +0.000 A 
ATOM      7  C   UNL     1       1.444  10.652  18.173  0.00  0.00    +0.000 C 
ATOM      8  C   UNL     1       1.517  12.094  18.636  0.00  0.00    +0.000 A 
ATOM      9  C   UNL     1       2.465  12.958  18.065  0.00  0.00    +0.000 A 
ATOM     10  C   UNL     1       2.534  14.293  18.456  0.00  0.00    +0.000 A 
ATOM     11  C   UNL     1       1.663  14.786  19.425  0.00  0.00    +0.000 A 
ATOM     12  C   UNL     1       0.708  13.946  20.017  0.00  0.00    +0.000 A 
ATOM     13  C   UNL     1       0.623  12.596  19.611  0.00  0.00    +0.000 A 
ATOM     14  S   UNL     1      -0.606  11.503  20.327  0.00  0.00    +0.000 S 
ENDROOT
BRANCH  12  15
ATOM     15  C   UNL     1      -0.116  14.499  21.106  0.00  0.00    +0.000 A 
ATOM     16  C   UNL     1       0.460  14.975  22.218  0.00  0.00    +0.000 A 
ATOM     17  C   UNL     1      -0.414  15.473  23.276  0.00  0.00    +0.000 A 
ATOM     18  O   UNL     1       0.036  15.903  24.328  0.00  0.00    +0.000 OA
ATOM     19  C   UNL     1      -1.868  15.438  23.025  0.00  0.00    +0.000 A 
ATOM     20  C   UNL     1      -2.348  14.951  21.871  0.00  0.00    +0.000 A 
ATOM     21  O   UNL     1      -1.479  14.480  20.884  0.00  0.00    +0.000 OA
BRANCH  20  22
ATOM     22  N   UNL     1      -3.716  14.898  21.551  0.00  0.00    +0.000 N 
ATOM     23  C   UNL     1      -4.311  15.912  20.645  0.00  0.00    +0.000 C 
ATOM     24  C   UNL     1      -5.822  16.041  20.884  0.00  0.00    +0.000 C 
ATOM     25  O   UNL     1      -6.494  14.780  20.761  0.00  0.00    +0.000 OA
ATOM     26  C   UNL     1      -5.964  13.853  21.718  0.00  0.00    +0.000 C 
ATOM     27  C   UNL     1      -4.463  13.616  21.496  0.00  0.00    +0.000 C 
ENDBRANCH  20  22
ENDBRANCH  12  15
BRANCH   1  28
ATOM     28  O   UNL     1       2.321   6.340  20.286  0.00  0.00    +0.000 OA
BRANCH  28  31
ATOM     29  N   UNL     1       3.350   4.018  18.904  0.00  0.00    +0.000 NA
ATOM     30  C   UNL     1       4.301   5.090  19.320  0.00  0.00    +0.000 C 
ATOM     31  C   UNL     1       3.141   6.101  19.107  0.00  0.00    +0.000 C 
ATOM     32  C   UNL     1       2.666   5.039  18.065  0.00  0.00    +0.000 C 
BRANCH  29  34
ATOM     33  C   UNL     1       3.487   1.608  18.415  0.00  0.00    +0.000 C 
ATOM     34  C   UNL     1       4.036   2.999  18.120  0.00  0.00    +0.000 C 
ENDBRANCH  29  34
ENDBRANCH  28  31
ENDBRANCH   1  28
TORSDOF 5
ENDMDL
