MODEL 1
REMARK VINA RESULT:      -8.5      0.000      0.000
REMARK  Name = 
REMARK  4 active torsions:
REMARK  status: ('A' for Active; 'I' for Inactive)
REMARK    1  A    between atoms: C_1  and  O_2
REMARK    2  A    between atoms: O_2  and  C_3
REMARK    3  A    between atoms: C_4  and  O_5
REMARK    4  A    between atoms: C_16  and  C_17
REMARK                            x       y       z     vdW  Elec       q    Type
REMARK                         _______ _______ _______ _____ _____    ______ ____
ROOT
ATOM      1  C   UNL     1       0.767  10.195  19.540  0.00  0.00    +0.000 A 
ATOM      2  C   UNL     1       0.127  10.317  20.778  0.00  0.00    +0.000 A 
ATOM      3  C   UNL     1       0.231   9.323  21.736  0.00  0.00    +0.000 A 
ATOM      4  C   UNL     1       0.933   8.156  21.455  0.00  0.00    +0.000 A 
ATOM      5  C   UNL     1       1.552   7.958  20.211  0.00  0.00    +0.000 A 
ATOM      6  C   UNL     1       1.497   9.007  19.252  0.00  0.00    +0.000 A 
ATOM      7  C   UNL     1       2.182   8.853  17.906  0.00  0.00    +0.000 C 
ATOM      8  C   UNL     1       3.165   7.677  17.811  0.00  0.00    +0.000 C 
ATOM      9  C   UNL     1       2.554   6.420  18.432  0.00  0.00    +0.000 C 
ATOM     10  C   UNL     1       2.342   6.677  19.952  0.00  0.00    +0.000 C 
ATOM     11  C   UNL     1       1.784   5.413  20.667  0.00  0.00    +0.000 C 
ATOM     12  C   UNL     1       2.562   4.120  20.360  0.00  0.00    +0.000 C 
ATOM     13  C   UNL     1       2.726   3.919  18.859  0.00  0.00    +0.000 C 
ATOM     14  C   UNL     1       1.390   3.530  18.200  0.00  0.00    +0.000 C 
ATOM     15  C   UNL     1       3.735   2.872  18.428  0.00  0.00    +0.000 C 
ATOM     16  O   UNL     1       3.902   1.791  18.984  0.00  0.00    +0.000 OA
ATOM     17  C   UNL     1       4.490   3.316  17.188  0.00  0.00    +0.000 C 
ATOM     18  C   UNL     1       3.910   4.714  16.909  0.00  0.00    +0.000 C 
ATOM     19  C   UNL     1       3.429   5.168  18.281  0.00  0.00    +0.000 C 
ENDROOT
BRANCH   1  21
ATOM     20  C   UNL     1       1.473  12.321  18.680  0.00  0.00    +0.000 C 
ATOM     21  O   UNL     1       0.703  11.125  18.530  0.00  0.00    +0.000 OA
ENDBRANCH   1  21
BRANCH   2  22
ATOM     22  O   UNL     1      -0.684  11.363  21.124  0.00  0.00    +0.000 OA
ATOM     23  H   UNL     1      -1.592  11.060  20.946  0.00  0.00    +0.000 HD
ENDBRANCH   2  22
TORSDOF 2
ENDMDL
MODEL 2
REMARK VINA RESULT:      -7.9      1.023      1.078
REMARK  Name = 
REMARK  4 active torsions:
REMARK  status: ('A' for Active; 'I' for Inactive)
REMARK    1  A    between atoms: C_1  and  O_2
REMARK    2  A    between atoms: O_2  and  C_3
REMARK    3  A    between atoms: C_4  and  O_5
REMARK    4  A    between atoms: C_16  and  C_17
REMARK                            x       y       z     vdW  Elec       q    Type
REMARK                         _______ _______ _______ _____ _____    ______ ____
ROOT
ATOM      1  C   UNL     1      -0.025  10.590  19.804  0.00  0.00    +0.000 A 
ATOM      2  C   UNL     1      -0.625  10.617  21.068  0.00  0.00    +0.000 A 
ATOM      3  C   UNL     1      -0.335   9.651  22.016  0.00  0.00    +0.000 A 
ATOM      4  C   UNL     1       0.521   8.602  21.703  0.00  0.00    +0.000 A 
ATOM      5  C   UNL     1       1.113   8.496  20.434  0.00  0.00    +0.000 A 
ATOM      6  C   UNL     1       0.862   9.524  19.483  0.00  0.00    +0.000 A 
ATOM      7  C   UNL     1       1.508   9.471  18.110  0.00  0.00    +0.000 C 
ATOM      8  C   UNL     1       2.652   8.456  17.970  0.00  0.00    +0.000 C 
ATOM      9  C   UNL     1       2.261   7.123  18.609  0.00  0.00    +0.000 C 
ATOM     10  C   UNL     1       2.075   7.348  20.138  0.00  0.00    +0.000 C 
ATOM     11  C   UNL     1       1.742   6.016  20.869  0.00  0.00    +0.000 C 
ATOM     12  C   UNL     1       2.692   4.854  20.526  0.00  0.00    +0.000 C 
ATOM     13  C   UNL     1       2.823   4.677  19.019  0.00  0.00    +0.000 C 
ATOM     14  C   UNL     1       1.535   4.091  18.413  0.00  0.00    +0.000 C 
ATOM     15  C   UNL     1       3.960   3.792  18.544  0.00  0.00    +0.000 C 
ATOM     16  O   UNL     1       4.309   2.749  19.087  0.00  0.00    +0.000 OA
ATOM     17  C   UNL     1       4.589   4.341  17.276  0.00  0.00    +0.000 C 
ATOM     18  C   UNL     1       3.795   5.636  17.026  0.00  0.00    +0.000 C 
ATOM     19  C   UNL     1       3.307   6.016  18.419  0.00  0.00    +0.000 C 
ENDROOT
BRANCH   1  21
ATOM     20  C   UNL     1      -1.503  11.381  18.088  0.00  0.00    +0.000 C 
ATOM     21  O   UNL     1      -0.269  11.498  18.802  0.00  0.00    +0.000 OA
ENDBRANCH   1  21
BRANCH   2  22
ATOM     22  O   UNL     1      -1.569  11.530  21.450  0.00  0.00    +0.000 OA
ATOM     23  H   UNL     1      -2.317  11.007  21.790  0.00  0.00    +0.000 HD
ENDBRANCH   2  22
TORSDOF 2
ENDMDL
MODEL 3
REMARK VINA RESULT:      -7.6      1.247      7.054
REMARK  Name = 
REMARK  4 active torsions:
REMARK  status: ('A' for Active; 'I' for Inactive)
REMARK    1  A    between atoms: C_1  and  O_2
REMARK    2  A    between atoms: O_2  and  C_3
REMARK    3  A    between atoms: C_4  and  O_5
REMARK    4  A    between atoms: C_16  and  C_17
REMARK                            x       y       z     vdW  Elec       q    Type
REMARK                         _______ _______ _______ _____ _____    ______ ____
ROOT
ATOM      1  C   UNL     1       3.079   4.020  19.024  0.00  0.00    +0.000 A 
ATOM      2  C   UNL     1       3.909   3.838  17.912  0.00  0.00    +0.000 A 
ATOM      3  C   UNL     1       4.330   4.917  17.152  0.00  0.00    +0.000 A 
ATOM      4  C   UNL     1       3.886   6.198  17.455  0.00  0.00    +0.000 A 
ATOM      5  C   UNL     1       3.011   6.433  18.529  0.00  0.00    +0.000 A 
ATOM      6  C   UNL     1       2.630   5.332  19.345  0.00  0.00    +0.000 A 
ATOM      7  C   UNL     1       1.716   5.542  20.538  0.00  0.00    +0.000 C 
ATOM      8  C   UNL     1       1.528   7.007  20.960  0.00  0.00    +0.000 C 
ATOM      9  C   UNL     1       1.289   7.888  19.733  0.00  0.00    +0.000 C 
ATOM     10  C   UNL     1       2.571   7.859  18.850  0.00  0.00    +0.000 C 
ATOM     11  C   UNL     1       2.427   8.791  17.613  0.00  0.00    +0.000 C 
ATOM     12  C   UNL     1       1.937  10.211  17.947  0.00  0.00    +0.000 C 
ATOM     13  C   UNL     1       0.677  10.173  18.800  0.00  0.00    +0.000 C 
ATOM     14  C   UNL     1      -0.539   9.712  17.976  0.00  0.00    +0.000 C 
ATOM     15  C   UNL     1       0.274  11.477  19.463  0.00  0.00    +0.000 C 
ATOM     16  O   UNL     1       0.351  12.582  18.935  0.00  0.00    +0.000 OA
ATOM     17  C   UNL     1      -0.280  11.236  20.855  0.00  0.00    +0.000 C 
ATOM     18  C   UNL     1      -0.156   9.711  21.021  0.00  0.00    +0.000 C 
ATOM     19  C   UNL     1       0.983   9.353  20.073  0.00  0.00    +0.000 C 
ENDROOT
BRANCH   1  21
ATOM     20  C   UNL     1       1.550   2.191  19.296  0.00  0.00    +0.000 C 
ATOM     21  O   UNL     1       2.603   3.005  19.820  0.00  0.00    +0.000 OA
ENDBRANCH   1  21
BRANCH   2  22
ATOM     22  O   UNL     1       4.317   2.617  17.449  0.00  0.00    +0.000 OA
ATOM     23  H   UNL     1       5.274   2.578  17.621  0.00  0.00    +0.000 HD
ENDBRANCH   2  22
TORSDOF 2
ENDMDL
MODEL 4
REMARK VINA RESULT:      -7.2      1.283      2.938
REMARK  Name = 
REMARK  4 active torsions:
REMARK  status: ('A' for Active; 'I' for Inactive)
REMARK    1  A    between atoms: C_1  and  O_2
REMARK    2  A    between atoms: O_2  and  C_3
REMARK    3  A    between atoms: C_4  and  O_5
REMARK    4  A    between atoms: C_16  and  C_17
REMARK                            x       y       z     vdW  Elec       q    Type
REMARK                         _______ _______ _______ _____ _____    ______ ____
ROOT
ATOM      1  C   UNL     1       0.874  10.596  20.730  0.00  0.00    +0.000 A 
ATOM      2  C   UNL     1       1.066  11.594  19.768  0.00  0.00    +0.000 A 
ATOM      3  C   UNL     1       1.525  11.283  18.499  0.00  0.00    +0.000 A 
ATOM      4  C   UNL     1       1.855   9.971  18.180  0.00  0.00    +0.000 A 
ATOM      5  C   UNL     1       1.731   8.937  19.122  0.00  0.00    +0.000 A 
ATOM      6  C   UNL     1       1.201   9.250  20.405  0.00  0.00    +0.000 A 
ATOM      7  C   UNL     1       1.014   8.158  21.443  0.00  0.00    +0.000 C 
ATOM      8  C   UNL     1       1.121   6.725  20.904  0.00  0.00    +0.000 C 
ATOM      9  C   UNL     1       2.321   6.597  19.965  0.00  0.00    +0.000 C 
ATOM     10  C   UNL     1       2.073   7.503  18.724  0.00  0.00    +0.000 C 
ATOM     11  C   UNL     1       3.226   7.372  17.688  0.00  0.00    +0.000 C 
ATOM     12  C   UNL     1       3.591   5.920  17.331  0.00  0.00    +0.000 C 
ATOM     13  C   UNL     1       3.834   5.089  18.584  0.00  0.00    +0.000 C 
ATOM     14  C   UNL     1       5.156   5.484  19.267  0.00  0.00    +0.000 C 
ATOM     15  C   UNL     1       3.884   3.585  18.394  0.00  0.00    +0.000 C 
ATOM     16  O   UNL     1       4.417   3.018  17.445  0.00  0.00    +0.000 OA
ATOM     17  C   UNL     1       3.226   2.863  19.555  0.00  0.00    +0.000 C 
ATOM     18  C   UNL     1       2.734   4.015  20.449  0.00  0.00    +0.000 C 
ATOM     19  C   UNL     1       2.566   5.167  19.465  0.00  0.00    +0.000 C 
ENDROOT
BRANCH   1  21
ATOM     20  C   UNL     1      -0.928  11.200  22.194  0.00  0.00    +0.000 C 
ATOM     21  O   UNL     1       0.439  10.820  22.015  0.00  0.00    +0.000 OA
ENDBRANCH   1  21
BRANCH   2  22
ATOM     22  O   UNL     1       0.887  12.930  20.000  0.00  0.00    +0.000 OA
ATOM     23  H   UNL     1       1.696  13.228  20.451  0.00  0.00    +0.000 HD
ENDBRANCH   2  22
TORSDOF 2
ENDMDL
MODEL 5
REMARK VINA RESULT:      -6.7      1.396      6.606
REMARK  Name = 
REMARK  4 active torsions:
REMARK  status: ('A' for Active; 'I' for Inactive)
REMARK    1  A    between atoms: C_1  and  O_2
REMARK    2  A    between atoms: O_2  and  C_3
REMARK    3  A    between atoms: C_4  and  O_5
REMARK    4  A    between atoms: C_16  and  C_17
REMARK                            x       y       z     vdW  Elec       q    Type
REMARK                         _______ _______ _______ _____ _____    ______ ____
ROOT
ATOM      1  C   UNL     1       4.334   5.200  18.428  0.00  0.00    +0.000 A 
ATOM      2  C   UNL     1       4.268   4.111  19.305  0.00  0.00    +0.000 A 
ATOM      3  C   UNL     1       3.287   4.039  20.280  0.00  0.00    +0.000 A 
ATOM      4  C   UNL     1       2.382   5.081  20.436  0.00  0.00    +0.000 A 
ATOM      5  C   UNL     1       2.433   6.221  19.618  0.00  0.00    +0.000 A 
ATOM      6  C   UNL     1       3.402   6.265  18.577  0.00  0.00    +0.000 A 
ATOM      7  C   UNL     1       3.471   7.461  17.644  0.00  0.00    +0.000 C 
ATOM      8  C   UNL     1       2.258   8.401  17.705  0.00  0.00    +0.000 C 
ATOM      9  C   UNL     1       1.867   8.671  19.159  0.00  0.00    +0.000 C 
ATOM     10  C   UNL     1       1.400   7.331  19.798  0.00  0.00    +0.000 C 
ATOM     11  C   UNL     1       0.918   7.541  21.262  0.00  0.00    +0.000 C 
ATOM     12  C   UNL     1      -0.087   8.693  21.437  0.00  0.00    +0.000 C 
ATOM     13  C   UNL     1       0.431   9.977  20.802  0.00  0.00    +0.000 C 
ATOM     14  C   UNL     1       1.590  10.574  21.620  0.00  0.00    +0.000 C 
ATOM     15  C   UNL     1      -0.582  11.091  20.619  0.00  0.00    +0.000 C 
ATOM     16  O   UNL     1      -1.452  11.386  21.432  0.00  0.00    +0.000 OA
ATOM     17  C   UNL     1      -0.353  11.830  19.313  0.00  0.00    +0.000 C 
ATOM     18  C   UNL     1       0.834  11.076  18.689  0.00  0.00    +0.000 C 
ATOM     19  C   UNL     1       0.729   9.690  19.313  0.00  0.00    +0.000 C 
ENDROOT
BRANCH   1  21
ATOM     20  C   UNL     1       5.165   4.546  16.274  0.00  0.00    +0.000 C 
ATOM     21  O   UNL     1       5.282   5.358  17.446  0.00  0.00    +0.000 OA
ENDBRANCH   1  21
BRANCH   2  22
ATOM     22  O   UNL     1       5.172   3.084  19.324  0.00  0.00    +0.000 OA
ATOM     23  H   UNL     1       5.629   3.154  20.181  0.00  0.00    +0.000 HD
ENDBRANCH   2  22
TORSDOF 2
ENDMDL
MODEL 6
REMARK VINA RESULT:      -6.6      8.648      9.846
REMARK  Name = 
REMARK  4 active torsions:
REMARK  status: ('A' for Active; 'I' for Inactive)
REMARK    1  A    between atoms: C_1  and  O_2
REMARK    2  A    between atoms: O_2  and  C_3
REMARK    3  A    between atoms: C_4  and  O_5
REMARK    4  A    between atoms: C_16  and  C_17
REMARK                            x       y       z     vdW  Elec       q    Type
REMARK                         _______ _______ _______ _____ _____    ______ ____
ROOT
ATOM      1  C   UNL     1       5.940  13.376  23.772  0.00  0.00    +0.000 A 
ATOM      2  C   UNL     1       6.115  12.306  24.657  0.00  0.00    +0.000 A 
ATOM      3  C   UNL     1       7.223  11.480  24.568  0.00  0.00    +0.000 A 
ATOM      4  C   UNL     1       8.155  11.673  23.555  0.00  0.00    +0.000 A 
ATOM      5  C   UNL     1       8.004  12.699  22.609  0.00  0.00    +0.000 A 
ATOM      6  C   UNL     1       6.898  13.584  22.740  0.00  0.00    +0.000 A 
ATOM      7  C   UNL     1       6.713  14.730  21.763  0.00  0.00    +0.000 C 
ATOM      8  C   UNL     1       7.935  15.035  20.883  0.00  0.00    +0.000 C 
ATOM      9  C   UNL     1       8.532  13.739  20.334  0.00  0.00    +0.000 C 
ATOM     10  C   UNL     1       9.067  12.900  21.531  0.00  0.00    +0.000 C 
ATOM     11  C   UNL     1       9.755  11.592  21.043  0.00  0.00    +0.000 C 
ATOM     12  C   UNL     1      10.790  11.804  19.924  0.00  0.00    +0.000 C 
ATOM     13  C   UNL     1      10.204  12.619  18.779  0.00  0.00    +0.000 C 
ATOM     14  C   UNL     1       9.181  11.796  17.976  0.00  0.00    +0.000 C 
ATOM     15  C   UNL     1      11.195  13.170  17.771  0.00  0.00    +0.000 C 
ATOM     16  O   UNL     1      12.176  12.564  17.352  0.00  0.00    +0.000 OA
ATOM     17  C   UNL     1      10.794  14.559  17.310  0.00  0.00    +0.000 C 
ATOM     18  C   UNL     1       9.520  14.843  18.126  0.00  0.00    +0.000 C 
ATOM     19  C   UNL     1       9.694  13.959  19.355  0.00  0.00    +0.000 C 
ENDROOT
BRANCH   1  21
ATOM     20  C   UNL     1       4.934  15.376  24.635  0.00  0.00    +0.000 C 
ATOM     21  O   UNL     1       4.864  14.231  23.780  0.00  0.00    +0.000 OA
ENDBRANCH   1  21
BRANCH   2  22
ATOM     22  O   UNL     1       5.209  11.948  25.618  0.00  0.00    +0.000 OA
ATOM     23  H   UNL     1       4.762  11.154  25.273  0.00  0.00    +0.000 HD
ENDBRANCH   2  22
TORSDOF 2
ENDMDL
MODEL 7
REMARK VINA RESULT:      -6.4      2.165      7.678
REMARK  Name = 
REMARK  4 active torsions:
REMARK  status: ('A' for Active; 'I' for Inactive)
REMARK    1  A    between atoms: C_1  and  O_2
REMARK    2  A    between atoms: O_2  and  C_3
REMARK    3  A    between atoms: C_4  and  O_5
REMARK    4  A    between atoms: C_16  and  C_17
REMARK                            x       y       z     vdW  Elec       q    Type
REMARK                         _______ _______ _______ _____ _____    ______ ____
ROOT
ATOM      1  C   UNL     1       2.221   6.547  19.718  0.00  0.00    +0.000 A 
ATOM      2  C   UNL     1       2.755   6.447  18.429  0.00  0.00    +0.000 A 
ATOM      3  C   UNL     1       2.805   7.548  17.590  0.00  0.00    +0.000 A 
ATOM      4  C   UNL     1       2.272   8.763  18.003  0.00  0.00    +0.000 A 
ATOM      5  C   UNL     1       1.677   8.908  19.267  0.00  0.00    +0.000 A 
ATOM      6  C   UNL     1       1.683   7.793  20.150  0.00  0.00    +0.000 A 
ATOM      7  C   UNL     1       1.085   7.912  21.540  0.00  0.00    +0.000 C 
ATOM      8  C   UNL     1       0.801   9.349  22.002  0.00  0.00    +0.000 C 
ATOM      9  C   UNL     1       0.129  10.145  20.882  0.00  0.00    +0.000 C 
ATOM     10  C   UNL     1       1.132  10.268  19.697  0.00  0.00    +0.000 C 
ATOM     11  C   UNL     1       0.542  11.128  18.543  0.00  0.00    +0.000 C 
ATOM     12  C   UNL     1      -0.047  12.475  18.998  0.00  0.00    +0.000 C 
ATOM     13  C   UNL     1      -1.028  12.288  20.148  0.00  0.00    +0.000 C 
ATOM     14  C   UNL     1      -2.334  11.632  19.665  0.00  0.00    +0.000 C 
ATOM     15  C   UNL     1      -1.432  13.543  20.897  0.00  0.00    +0.000 C 
ATOM     16  O   UNL     1      -1.655  14.629  20.372  0.00  0.00    +0.000 OA
ATOM     17  C   UNL     1      -1.569  13.274  22.384  0.00  0.00    +0.000 C 
ATOM     18  C   UNL     1      -1.186  11.788  22.507  0.00  0.00    +0.000 C 
ATOM     19  C   UNL     1      -0.289  11.562  21.295  0.00  0.00    +0.000 C 
ENDROOT
BRANCH   1  21
ATOM     20  C   UNL     1       1.116   4.514  20.353  0.00  0.00    +0.000 C 
ATOM     21  O   UNL     1       2.118   5.503  20.606  0.00  0.00    +0.000 OA
ENDBRANCH   1  21
BRANCH   2  22
ATOM     22  O   UNL     1       3.203   5.281  17.871  0.00  0.00    +0.000 OA
ATOM     23  H   UNL     1       2.555   5.056  17.180  0.00  0.00    +0.000 HD
ENDBRANCH   2  22
TORSDOF 2
ENDMDL
