MODEL 1
REMARK VINA RESULT:      -8.8      0.000      0.000
REMARK  Name = 
REMARK  8 active torsions:
REMARK  status: ('A' for Active; 'I' for Inactive)
REMARK    1  A    between atoms: C_1  and  O_2
REMARK    2  A    between atoms: O_2  and  C_3
REMARK    3  A    between atoms: C_5  and  S_6
REMARK    4  A    between atoms: S_6  and  C_9
REMARK    5  A    between atoms: C_12  and  C_13
REMARK    6  A    between atoms: C_13  and  C_14
REMARK    7  A    between atoms: C_13  and  C_15
REMARK    8  A    between atoms: C_13  and  O_16
REMARK                            x       y       z     vdW  Elec       q    Type
REMARK                         _______ _______ _______ _____ _____    ______ ____
ROOT
ATOM      1  C   UNL     1       6.903   5.469  17.413  0.00  0.00    +0.000 A 
ATOM      2  C   UNL     1       5.900   4.972  18.263  0.00  0.00    +0.000 A 
ATOM      3  C   UNL     1       4.869   4.162  17.764  0.00  0.00    +0.000 A 
ATOM      4  C   UNL     1       4.796   3.805  16.415  0.00  0.00    +0.000 A 
ATOM      5  C   UNL     1       5.778   4.301  15.548  0.00  0.00    +0.000 A 
ATOM      6  C   UNL     1       6.030   4.166  14.167  0.00  0.00    +0.000 A 
ATOM      7  C   UNL     1       7.173   4.886  13.922  0.00  0.00    +0.000 A 
ATOM      8  O   UNL     1       7.652   5.475  15.044  0.00  0.00    +0.000 OA
ATOM      9  C   UNL     1       6.795   5.114  16.059  0.00  0.00    +0.000 A 
ATOM     10  C   UNL     1       7.830   5.031  12.607  0.00  0.00    +0.000 C 
ATOM     11  C   UNL     1       7.230   3.943  11.673  0.00  0.00    +0.000 C 
ATOM     12  N   UNL     1       5.756   3.839  11.777  0.00  0.00    +0.000 NA
ATOM     13  C   UNL     1       5.321   3.393  13.115  0.00  0.00    +0.000 C 
ATOM     14  H   UNL     1       5.414   3.169  11.091  0.00  0.00    +0.000 HD
ENDROOT
BRANCH   3  15
ATOM     15  S   UNL     1       3.605   3.541  18.857  0.00  0.00    +0.000 S 
ATOM     16  O   UNL     1       2.676   2.772  18.047  0.00  0.00    +0.000 OA
ATOM     17  O   UNL     1       4.270   2.931  19.992  0.00  0.00    +0.000 OA
BRANCH  15  18
ATOM     18  C   UNL     1       2.747   4.983  19.440  0.00  0.00    +0.000 A 
ATOM     19  C   UNL     1       2.816   6.175  18.717  0.00  0.00    +0.000 A 
ATOM     20  C   UNL     1       2.230   7.329  19.245  0.00  0.00    +0.000 A 
ATOM     21  C   UNL     1       1.551   7.305  20.479  0.00  0.00    +0.000 A 
ATOM     22  C   UNL     1       1.455   6.074  21.155  0.00  0.00    +0.000 A 
ATOM     23  C   UNL     1       2.041   4.917  20.639  0.00  0.00    +0.000 A 
BRANCH  21  24
ATOM     24  C   UNL     1       1.022   8.600  21.094  0.00  0.00    +0.000 C 
ATOM     25  C   UNL     1       0.995   9.790  20.126  0.00  0.00    +0.000 C 
ATOM     26  C   UNL     1      -0.383   8.358  21.660  0.00  0.00    +0.000 C 
BRANCH  24  27
ATOM     27  O   UNL     1       1.859   8.991  22.189  0.00  0.00    +0.000 OA
ATOM     28  H   UNL     1       1.866   9.964  22.206  0.00  0.00    +0.000 HD
ENDBRANCH  24  27
ENDBRANCH  21  24
ENDBRANCH  15  18
ENDBRANCH   3  15
BRANCH   1  30
ATOM     29  C   UNL     1       7.697   7.686  17.674  0.00  0.00    +0.000 C 
ATOM     30  O   UNL     1       7.928   6.288  17.808  0.00  0.00    +0.000 OA
ENDBRANCH   1  30
TORSDOF 5
ENDMDL
MODEL 2
REMARK VINA RESULT:      -8.7      1.310      1.835
REMARK  Name = 
REMARK  8 active torsions:
REMARK  status: ('A' for Active; 'I' for Inactive)
REMARK    1  A    between atoms: C_1  and  O_2
REMARK    2  A    between atoms: O_2  and  C_3
REMARK    3  A    between atoms: C_5  and  S_6
REMARK    4  A    between atoms: S_6  and  C_9
REMARK    5  A    between atoms: C_12  and  C_13
REMARK    6  A    between atoms: C_13  and  C_14
REMARK    7  A    between atoms: C_13  and  C_15
REMARK    8  A    between atoms: C_13  and  O_16
REMARK                            x       y       z     vdW  Elec       q    Type
REMARK                         _______ _______ _______ _____ _____    ______ ____
ROOT
ATOM      1  C   UNL     1       6.766   6.047  17.210  0.00  0.00    +0.000 A 
ATOM      2  C   UNL     1       5.677   5.886  18.083  0.00  0.00    +0.000 A 
ATOM      3  C   UNL     1       4.535   5.176  17.687  0.00  0.00    +0.000 A 
ATOM      4  C   UNL     1       4.429   4.590  16.422  0.00  0.00    +0.000 A 
ATOM      5  C   UNL     1       5.498   4.750  15.531  0.00  0.00    +0.000 A 
ATOM      6  C   UNL     1       5.752   4.321  14.212  0.00  0.00    +0.000 A 
ATOM      7  C   UNL     1       7.005   4.788  13.900  0.00  0.00    +0.000 A 
ATOM      8  O   UNL     1       7.554   5.489  14.921  0.00  0.00    +0.000 OA
ATOM      9  C   UNL     1       6.628   5.468  15.939  0.00  0.00    +0.000 A 
ATOM     10  C   UNL     1       7.703   4.577  12.616  0.00  0.00    +0.000 C 
ATOM     11  C   UNL     1       6.948   3.446  11.863  0.00  0.00    +0.000 C 
ATOM     12  N   UNL     1       5.475   3.604  11.909  0.00  0.00    +0.000 NA
ATOM     13  C   UNL     1       4.944   3.491  13.282  0.00  0.00    +0.000 C 
ATOM     14  H   UNL     1       5.038   2.883  11.338  0.00  0.00    +0.000 HD
ENDROOT
BRANCH   3  15
ATOM     15  S   UNL     1       3.162   4.983  18.807  0.00  0.00    +0.000 S 
ATOM     16  O   UNL     1       2.149   4.204  18.117  0.00  0.00    +0.000 OA
ATOM     17  O   UNL     1       3.696   4.532  20.079  0.00  0.00    +0.000 OA
BRANCH  15  18
ATOM     18  C   UNL     1       2.517   6.622  19.039  0.00  0.00    +0.000 A 
ATOM     19  C   UNL     1       2.058   7.019  20.295  0.00  0.00    +0.000 A 
ATOM     20  C   UNL     1       1.451   8.270  20.437  0.00  0.00    +0.000 A 
ATOM     21  C   UNL     1       1.317   9.145  19.341  0.00  0.00    +0.000 A 
ATOM     22  C   UNL     1       1.838   8.734  18.101  0.00  0.00    +0.000 A 
ATOM     23  C   UNL     1       2.442   7.485  17.948  0.00  0.00    +0.000 A 
BRANCH  21  24
ATOM     24  C   UNL     1       0.545  10.456  19.491  0.00  0.00    +0.000 C 
ATOM     25  C   UNL     1      -0.847  10.442  18.845  0.00  0.00    +0.000 C 
ATOM     26  C   UNL     1       0.426  10.809  20.978  0.00  0.00    +0.000 C 
BRANCH  24  27
ATOM     27  O   UNL     1       1.271  11.518  18.859  0.00  0.00    +0.000 OA
ATOM     28  H   UNL     1       2.116  11.603  19.333  0.00  0.00    +0.000 HD
ENDBRANCH  24  27
ENDBRANCH  21  24
ENDBRANCH  15  18
ENDBRANCH   3  15
BRANCH   1  30
ATOM     29  C   UNL     1       7.764   8.161  17.595  0.00  0.00    +0.000 C 
ATOM     30  O   UNL     1       7.907   6.747  17.503  0.00  0.00    +0.000 OA
ENDBRANCH   1  30
TORSDOF 5
ENDMDL
MODEL 3
REMARK VINA RESULT:      -8.6      1.491      1.832
REMARK  Name = 
REMARK  8 active torsions:
REMARK  status: ('A' for Active; 'I' for Inactive)
REMARK    1  A    between atoms: C_1  and  O_2
REMARK    2  A    between atoms: O_2  and  C_3
REMARK    3  A    between atoms: C_5  and  S_6
REMARK    4  A    between atoms: S_6  and  C_9
REMARK    5  A    between atoms: C_12  and  C_13
REMARK    6  A    between atoms: C_13  and  C_14
REMARK    7  A    between atoms: C_13  and  C_15
REMARK    8  A    between atoms: C_13  and  O_16
REMARK                            x       y       z     vdW  Elec       q    Type
REMARK                         _______ _______ _______ _____ _____    ______ ____
ROOT
ATOM      1  C   UNL     1       6.870   6.330  16.881  0.00  0.00    +0.000 A 
ATOM      2  C   UNL     1       5.876   6.167  17.861  0.00  0.00    +0.000 A 
ATOM      3  C   UNL     1       4.771   5.333  17.635  0.00  0.00    +0.000 A 
ATOM      4  C   UNL     1       4.613   4.621  16.442  0.00  0.00    +0.000 A 
ATOM      5  C   UNL     1       5.585   4.780  15.447  0.00  0.00    +0.000 A 
ATOM      6  C   UNL     1       5.766   4.247  14.154  0.00  0.00    +0.000 A 
ATOM      7  C   UNL     1       6.942   4.780  13.689  0.00  0.00    +0.000 A 
ATOM      8  O   UNL     1       7.510   5.619  14.588  0.00  0.00    +0.000 OA
ATOM      9  C   UNL     1       6.677   5.622  15.684  0.00  0.00    +0.000 A 
ATOM     10  C   UNL     1       7.547   4.504  12.370  0.00  0.00    +0.000 C 
ATOM     11  C   UNL     1       6.834   3.248  11.793  0.00  0.00    +0.000 C 
ATOM     12  N   UNL     1       5.362   3.291  11.959  0.00  0.00    +0.000 NA
ATOM     13  C   UNL     1       4.959   3.269  13.379  0.00  0.00    +0.000 C 
ATOM     14  H   UNL     1       4.945   2.486  11.497  0.00  0.00    +0.000 HD
ENDROOT
BRANCH   3  15
ATOM     15  S   UNL     1       3.519   5.140  18.889  0.00  0.00    +0.000 S 
ATOM     16  O   UNL     1       2.607   4.106  18.431  0.00  0.00    +0.000 OA
ATOM     17  O   UNL     1       4.196   5.010  20.165  0.00  0.00    +0.000 OA
BRANCH  15  18
ATOM     18  C   UNL     1       2.630   6.678  18.898  0.00  0.00    +0.000 A 
ATOM     19  C   UNL     1       2.507   7.418  17.721  0.00  0.00    +0.000 A 
ATOM     20  C   UNL     1       1.904   8.678  17.767  0.00  0.00    +0.000 A 
ATOM     21  C   UNL     1       1.397   9.202  18.973  0.00  0.00    +0.000 A 
ATOM     22  C   UNL     1       1.491   8.406  20.129  0.00  0.00    +0.000 A 
ATOM     23  C   UNL     1       2.096   7.149  20.095  0.00  0.00    +0.000 A 
BRANCH  21  24
ATOM     24  C   UNL     1       0.850  10.628  19.025  0.00  0.00    +0.000 C 
ATOM     25  C   UNL     1      -0.608  10.759  18.562  0.00  0.00    +0.000 C 
ATOM     26  C   UNL     1       0.995  11.177  20.449  0.00  0.00    +0.000 C 
BRANCH  24  27
ATOM     27  O   UNL     1       1.622  11.473  18.163  0.00  0.00    +0.000 OA
ATOM     28  H   UNL     1       1.531  11.117  17.262  0.00  0.00    +0.000 HD
ENDBRANCH  24  27
ENDBRANCH  21  24
ENDBRANCH  15  18
ENDBRANCH   3  15
BRANCH   1  30
ATOM     29  C   UNL     1       7.766   8.347  17.741  0.00  0.00    +0.000 C 
ATOM     30  O   UNL     1       7.964   7.144  17.005  0.00  0.00    +0.000 OA
ENDBRANCH   1  30
TORSDOF 5
ENDMDL
MODEL 4
REMARK VINA RESULT:      -8.6      0.638      1.116
REMARK  Name = 
REMARK  8 active torsions:
REMARK  status: ('A' for Active; 'I' for Inactive)
REMARK    1  A    between atoms: C_1  and  O_2
REMARK    2  A    between atoms: O_2  and  C_3
REMARK    3  A    between atoms: C_5  and  S_6
REMARK    4  A    between atoms: S_6  and  C_9
REMARK    5  A    between atoms: C_12  and  C_13
REMARK    6  A    between atoms: C_13  and  C_14
REMARK    7  A    between atoms: C_13  and  C_15
REMARK    8  A    between atoms: C_13  and  O_16
REMARK                            x       y       z     vdW  Elec       q    Type
REMARK                         _______ _______ _______ _____ _____    ______ ____
ROOT
ATOM      1  C   UNL     1       6.674   5.752  17.530  0.00  0.00    +0.000 A 
ATOM      2  C   UNL     1       5.591   5.373  18.341  0.00  0.00    +0.000 A 
ATOM      3  C   UNL     1       4.536   4.608  17.824  0.00  0.00    +0.000 A 
ATOM      4  C   UNL     1       4.516   4.178  16.494  0.00  0.00    +0.000 A 
ATOM      5  C   UNL     1       5.579   4.556  15.664  0.00  0.00    +0.000 A 
ATOM      6  C   UNL     1       5.902   4.325  14.311  0.00  0.00    +0.000 A 
ATOM      7  C   UNL     1       7.105   4.950  14.099  0.00  0.00    +0.000 A 
ATOM      8  O   UNL     1       7.559   5.570  15.216  0.00  0.00    +0.000 OA
ATOM      9  C   UNL     1       6.620   5.327  16.193  0.00  0.00    +0.000 A 
ATOM     10  C   UNL     1       7.846   4.975  12.822  0.00  0.00    +0.000 C 
ATOM     11  C   UNL     1       7.226   3.877  11.911  0.00  0.00    +0.000 C 
ATOM     12  N   UNL     1       5.745   3.879  11.930  0.00  0.00    +0.000 NA
ATOM     13  C   UNL     1       5.202   3.541  13.260  0.00  0.00    +0.000 C 
ATOM     14  H   UNL     1       5.396   3.195  11.261  0.00  0.00    +0.000 HD
ENDROOT
BRANCH   3  15
ATOM     15  S   UNL     1       3.169   4.138  18.867  0.00  0.00    +0.000 S 
ATOM     16  O   UNL     1       2.148   3.565  18.008  0.00  0.00    +0.000 OA
ATOM     17  O   UNL     1       3.709   3.375  19.977  0.00  0.00    +0.000 OA
BRANCH  15  18
ATOM     18  C   UNL     1       2.533   5.665  19.515  0.00  0.00    +0.000 A 
ATOM     19  C   UNL     1       1.867   5.678  20.741  0.00  0.00    +0.000 A 
ATOM     20  C   UNL     1       1.275   6.863  21.185  0.00  0.00    +0.000 A 
ATOM     21  C   UNL     1       1.360   8.050  20.430  0.00  0.00    +0.000 A 
ATOM     22  C   UNL     1       2.084   8.013  19.224  0.00  0.00    +0.000 A 
ATOM     23  C   UNL     1       2.675   6.833  18.770  0.00  0.00    +0.000 A 
BRANCH  21  24
ATOM     24  C   UNL     1       0.605   9.303  20.873  0.00  0.00    +0.000 C 
ATOM     25  C   UNL     1      -0.057  10.076  19.725  0.00  0.00    +0.000 C 
ATOM     26  C   UNL     1      -0.449   8.919  21.918  0.00  0.00    +0.000 C 
BRANCH  24  27
ATOM     27  O   UNL     1       1.513  10.215  21.501  0.00  0.00    +0.000 OA
ATOM     28  H   UNL     1       1.688  10.927  20.861  0.00  0.00    +0.000 HD
ENDBRANCH  24  27
ENDBRANCH  21  24
ENDBRANCH  15  18
ENDBRANCH   3  15
BRANCH   1  30
ATOM     29  C   UNL     1       7.655   7.906  17.625  0.00  0.00    +0.000 C 
ATOM     30  O   UNL     1       7.730   6.521  17.944  0.00  0.00    +0.000 OA
ENDBRANCH   1  30
TORSDOF 5
ENDMDL
MODEL 5
REMARK VINA RESULT:      -8.3      6.084     10.834
REMARK  Name = 
REMARK  8 active torsions:
REMARK  status: ('A' for Active; 'I' for Inactive)
REMARK    1  A    between atoms: C_1  and  O_2
REMARK    2  A    between atoms: O_2  and  C_3
REMARK    3  A    between atoms: C_5  and  S_6
REMARK    4  A    between atoms: S_6  and  C_9
REMARK    5  A    between atoms: C_12  and  C_13
REMARK    6  A    between atoms: C_13  and  C_14
REMARK    7  A    between atoms: C_13  and  C_15
REMARK    8  A    between atoms: C_13  and  O_16
REMARK                            x       y       z     vdW  Elec       q    Type
REMARK                         _______ _______ _______ _____ _____    ______ ____
ROOT
ATOM      1  C   UNL     1      -2.713  10.303  17.123  0.00  0.00    +0.000 A 
ATOM      2  C   UNL     1      -1.426  10.498  17.653  0.00  0.00    +0.000 A 
ATOM      3  C   UNL     1      -1.221  11.340  18.755  0.00  0.00    +0.000 A 
ATOM      4  C   UNL     1      -2.276  12.009  19.382  0.00  0.00    +0.000 A 
ATOM      5  C   UNL     1      -3.565  11.839  18.862  0.00  0.00    +0.000 A 
ATOM      6  C   UNL     1      -4.840  12.332  19.210  0.00  0.00    +0.000 A 
ATOM      7  C   UNL     1      -5.717  11.769  18.317  0.00  0.00    +0.000 A 
ATOM      8  O   UNL     1      -5.088  10.968  17.423  0.00  0.00    +0.000 OA
ATOM      9  C   UNL     1      -3.752  11.001  17.757  0.00  0.00    +0.000 A 
ATOM     10  C   UNL     1      -7.177  11.990  18.293  0.00  0.00    +0.000 C 
ATOM     11  C   UNL     1      -7.564  12.639  19.652  0.00  0.00    +0.000 C 
ATOM     12  N   UNL     1      -6.639  13.721  20.061  0.00  0.00    +0.000 NA
ATOM     13  C   UNL     1      -5.273  13.223  20.317  0.00  0.00    +0.000 C 
ATOM     14  H   UNL     1      -6.983  14.159  20.913  0.00  0.00    +0.000 HD
ENDROOT
BRANCH   3  15
ATOM     15  S   UNL     1       0.419  11.578  19.412  0.00  0.00    +0.000 S 
ATOM     16  O   UNL     1       1.170  12.341  18.431  0.00  0.00    +0.000 OA
ATOM     17  O   UNL     1       0.278  12.066  20.771  0.00  0.00    +0.000 OA
BRANCH  15  18
ATOM     18  C   UNL     1       1.129   9.952  19.489  0.00  0.00    +0.000 A 
ATOM     19  C   UNL     1       1.762   9.414  18.367  0.00  0.00    +0.000 A 
ATOM     20  C   UNL     1       2.216   8.093  18.406  0.00  0.00    +0.000 A 
ATOM     21  C   UNL     1       2.069   7.304  19.564  0.00  0.00    +0.000 A 
ATOM     22  C   UNL     1       1.474   7.895  20.694  0.00  0.00    +0.000 A 
ATOM     23  C   UNL     1       1.013   9.212  20.663  0.00  0.00    +0.000 A 
BRANCH  21  24
ATOM     24  C   UNL     1       2.464   5.828  19.547  0.00  0.00    +0.000 C 
ATOM     25  C   UNL     1       1.657   4.951  20.514  0.00  0.00    +0.000 C 
ATOM     26  C   UNL     1       2.334   5.283  18.119  0.00  0.00    +0.000 C 
BRANCH  24  27
ATOM     27  O   UNL     1       3.837   5.691  19.931  0.00  0.00    +0.000 OA
ATOM     28  H   UNL     1       4.369   5.800  19.123  0.00  0.00    +0.000 HD
ENDBRANCH  24  27
ENDBRANCH  21  24
ENDBRANCH  15  18
ENDBRANCH   3  15
BRANCH   1  30
ATOM     29  C   UNL     1      -2.966  10.178  14.771  0.00  0.00    +0.000 C 
ATOM     30  O   UNL     1      -3.000   9.522  16.034  0.00  0.00    +0.000 OA
ENDBRANCH   1  30
TORSDOF 5
ENDMDL
MODEL 6
REMARK VINA RESULT:      -8.3      6.111     10.962
REMARK  Name = 
REMARK  8 active torsions:
REMARK  status: ('A' for Active; 'I' for Inactive)
REMARK    1  A    between atoms: C_1  and  O_2
REMARK    2  A    between atoms: O_2  and  C_3
REMARK    3  A    between atoms: C_5  and  S_6
REMARK    4  A    between atoms: S_6  and  C_9
REMARK    5  A    between atoms: C_12  and  C_13
REMARK    6  A    between atoms: C_13  and  C_14
REMARK    7  A    between atoms: C_13  and  C_15
REMARK    8  A    between atoms: C_13  and  O_16
REMARK                            x       y       z     vdW  Elec       q    Type
REMARK                         _______ _______ _______ _____ _____    ______ ____
ROOT
ATOM      1  C   UNL     1      -2.830  10.343  17.158  0.00  0.00    +0.000 A 
ATOM      2  C   UNL     1      -1.525  10.464  17.665  0.00  0.00    +0.000 A 
ATOM      3  C   UNL     1      -1.260  11.261  18.788  0.00  0.00    +0.000 A 
ATOM      4  C   UNL     1      -2.270  11.957  19.457  0.00  0.00    +0.000 A 
ATOM      5  C   UNL     1      -3.576  11.862  18.960  0.00  0.00    +0.000 A 
ATOM      6  C   UNL     1      -4.819  12.401  19.349  0.00  0.00    +0.000 A 
ATOM      7  C   UNL     1      -5.739  11.907  18.458  0.00  0.00    +0.000 A 
ATOM      8  O   UNL     1      -5.165  11.106  17.528  0.00  0.00    +0.000 OA
ATOM      9  C   UNL     1      -3.823  11.069  17.834  0.00  0.00    +0.000 A 
ATOM     10  C   UNL     1      -7.188  12.195  18.473  0.00  0.00    +0.000 C 
ATOM     11  C   UNL     1      -7.517  12.818  19.858  0.00  0.00    +0.000 C 
ATOM     12  N   UNL     1      -6.535  13.844  20.279  0.00  0.00    +0.000 NA
ATOM     13  C   UNL     1      -5.189  13.277  20.491  0.00  0.00    +0.000 C 
ATOM     14  H   UNL     1      -6.842  14.270  21.152  0.00  0.00    +0.000 HD
ENDROOT
BRANCH   3  15
ATOM     15  S   UNL     1       0.402  11.403  19.417  0.00  0.00    +0.000 S 
ATOM     16  O   UNL     1       1.102  12.355  18.573  0.00  0.00    +0.000 OA
ATOM     17  O   UNL     1       0.310  11.619  20.849  0.00  0.00    +0.000 OA
BRANCH  15  18
ATOM     18  C   UNL     1       1.137   9.807  19.155  0.00  0.00    +0.000 A 
ATOM     19  C   UNL     1       1.159   8.872  20.190  0.00  0.00    +0.000 A 
ATOM     20  C   UNL     1       1.839   7.665  20.006  0.00  0.00    +0.000 A 
ATOM     21  C   UNL     1       2.479   7.365  18.787  0.00  0.00    +0.000 A 
ATOM     22  C   UNL     1       2.391   8.309  17.747  0.00  0.00    +0.000 A 
ATOM     23  C   UNL     1       1.719   9.520  17.923  0.00  0.00    +0.000 A 
BRANCH  21  24
ATOM     24  C   UNL     1       3.316   6.094  18.646  0.00  0.00    +0.000 C 
ATOM     25  C   UNL     1       2.540   4.888  18.099  0.00  0.00    +0.000 C 
ATOM     26  C   UNL     1       4.530   6.381  17.755  0.00  0.00    +0.000 C 
BRANCH  24  27
ATOM     27  O   UNL     1       3.815   5.701  19.930  0.00  0.00    +0.000 OA
ATOM     28  H   UNL     1       4.458   6.379  20.203  0.00  0.00    +0.000 HD
ENDBRANCH  24  27
ENDBRANCH  21  24
ENDBRANCH  15  18
ENDBRANCH   3  15
BRANCH   1  30
ATOM     29  C   UNL     1      -3.023  10.268  14.798  0.00  0.00    +0.000 C 
ATOM     30  O   UNL     1      -3.175   9.611  16.052  0.00  0.00    +0.000 OA
ENDBRANCH   1  30
TORSDOF 5
ENDMDL
MODEL 7
REMARK VINA RESULT:      -8.0      5.934     10.691
REMARK  Name = 
REMARK  8 active torsions:
REMARK  status: ('A' for Active; 'I' for Inactive)
REMARK    1  A    between atoms: C_1  and  O_2
REMARK    2  A    between atoms: O_2  and  C_3
REMARK    3  A    between atoms: C_5  and  S_6
REMARK    4  A    between atoms: S_6  and  C_9
REMARK    5  A    between atoms: C_12  and  C_13
REMARK    6  A    between atoms: C_13  and  C_14
REMARK    7  A    between atoms: C_13  and  C_15
REMARK    8  A    between atoms: C_13  and  O_16
REMARK                            x       y       z     vdW  Elec       q    Type
REMARK                         _______ _______ _______ _____ _____    ______ ____
ROOT
ATOM      1  C   UNL     1      -2.599  10.146  17.020  0.00  0.00    +0.000 A 
ATOM      2  C   UNL     1      -1.305  10.218  17.563  0.00  0.00    +0.000 A 
ATOM      3  C   UNL     1      -1.044  10.991  18.703  0.00  0.00    +0.000 A 
ATOM      4  C   UNL     1      -2.050  11.710  19.356  0.00  0.00    +0.000 A 
ATOM      5  C   UNL     1      -3.345  11.662  18.824  0.00  0.00    +0.000 A 
ATOM      6  C   UNL     1      -4.580  12.235  19.189  0.00  0.00    +0.000 A 
ATOM      7  C   UNL     1      -5.491  11.782  18.267  0.00  0.00    +0.000 A 
ATOM      8  O   UNL     1      -4.918  10.976  17.341  0.00  0.00    +0.000 OA
ATOM      9  C   UNL     1      -3.587  10.892  17.681  0.00  0.00    +0.000 A 
ATOM     10  C   UNL     1      -6.930  12.115  18.249  0.00  0.00    +0.000 C 
ATOM     11  C   UNL     1      -7.276  12.729  19.634  0.00  0.00    +0.000 C 
ATOM     12  N   UNL     1      -6.275  13.718  20.095  0.00  0.00    +0.000 NA
ATOM     13  C   UNL     1      -4.953  13.106  20.333  0.00  0.00    +0.000 C 
ATOM     14  H   UNL     1      -6.591  14.141  20.966  0.00  0.00    +0.000 HD
ENDROOT
BRANCH   3  15
ATOM     15  S   UNL     1       0.605  11.073  19.377  0.00  0.00    +0.000 S 
ATOM     16  O   UNL     1       1.406  11.864  18.459  0.00  0.00    +0.000 OA
ATOM     17  O   UNL     1       0.488  11.459  20.771  0.00  0.00    +0.000 OA
BRANCH  15  18
ATOM     18  C   UNL     1       1.212   9.405  19.323  0.00  0.00    +0.000 A 
ATOM     19  C   UNL     1       1.125   8.595  20.457  0.00  0.00    +0.000 A 
ATOM     20  C   UNL     1       1.707   7.325  20.435  0.00  0.00    +0.000 A 
ATOM     21  C   UNL     1       2.357   6.838  19.284  0.00  0.00    +0.000 A 
ATOM     22  C   UNL     1       2.380   7.660  18.142  0.00  0.00    +0.000 A 
ATOM     23  C   UNL     1       1.806   8.933  18.155  0.00  0.00    +0.000 A 
BRANCH  21  24
ATOM     24  C   UNL     1       3.089   5.497  19.320  0.00  0.00    +0.000 C 
ATOM     25  C   UNL     1       4.619   5.617  19.324  0.00  0.00    +0.000 C 
ATOM     26  C   UNL     1       2.626   4.698  20.544  0.00  0.00    +0.000 C 
BRANCH  24  27
ATOM     27  O   UNL     1       2.749   4.730  18.158  0.00  0.00    +0.000 OA
ATOM     28  H   UNL     1       3.140   5.187  17.394  0.00  0.00    +0.000 HD
ENDBRANCH  24  27
ENDBRANCH  21  24
ENDBRANCH  15  18
ENDBRANCH   3  15
BRANCH   1  30
ATOM     29  C   UNL     1      -2.948  10.176  14.677  0.00  0.00    +0.000 C 
ATOM     30  O   UNL     1      -2.937   9.440  15.895  0.00  0.00    +0.000 OA
ENDBRANCH   1  30
TORSDOF 5
ENDMDL
MODEL 8
REMARK VINA RESULT:      -7.5      4.608      9.534
REMARK  Name = 
REMARK  8 active torsions:
REMARK  status: ('A' for Active; 'I' for Inactive)
REMARK    1  A    between atoms: C_1  and  O_2
REMARK    2  A    between atoms: O_2  and  C_3
REMARK    3  A    between atoms: C_5  and  S_6
REMARK    4  A    between atoms: S_6  and  C_9
REMARK    5  A    between atoms: C_12  and  C_13
REMARK    6  A    between atoms: C_13  and  C_14
REMARK    7  A    between atoms: C_13  and  C_15
REMARK    8  A    between atoms: C_13  and  O_16
REMARK                            x       y       z     vdW  Elec       q    Type
REMARK                         _______ _______ _______ _____ _____    ______ ____
ROOT
ATOM      1  C   UNL     1      -1.066  11.311  18.667  0.00  0.00    +0.000 A 
ATOM      2  C   UNL     1      -0.737  10.185  19.441  0.00  0.00    +0.000 A 
ATOM      3  C   UNL     1       0.219  10.268  20.464  0.00  0.00    +0.000 A 
ATOM      4  C   UNL     1       0.874  11.465  20.769  0.00  0.00    +0.000 A 
ATOM      5  C   UNL     1       0.571  12.597  20.001  0.00  0.00    +0.000 A 
ATOM      6  C   UNL     1       1.010  13.936  20.006  0.00  0.00    +0.000 A 
ATOM      7  C   UNL     1       0.308  14.566  19.009  0.00  0.00    +0.000 A 
ATOM      8  O   UNL     1      -0.532  13.719  18.367  0.00  0.00    +0.000 OA
ATOM      9  C   UNL     1      -0.379  12.495  18.979  0.00  0.00    +0.000 A 
ATOM     10  C   UNL     1       0.430  15.992  18.644  0.00  0.00    +0.000 C 
ATOM     11  C   UNL     1       1.179  16.701  19.806  0.00  0.00    +0.000 C 
ATOM     12  N   UNL     1       2.354  15.938  20.288  0.00  0.00    +0.000 NA
ATOM     13  C   UNL     1       1.973  14.644  20.888  0.00  0.00    +0.000 C 
ATOM     14  H   UNL     1       2.848  16.483  20.992  0.00  0.00    +0.000 HD
ENDROOT
BRANCH   3  15
ATOM     15  S   UNL     1       0.626   8.829  21.434  0.00  0.00    +0.000 S 
ATOM     16  O   UNL     1       1.541   9.257  22.477  0.00  0.00    +0.000 OA
ATOM     17  O   UNL     1      -0.619   8.166  21.774  0.00  0.00    +0.000 OA
BRANCH  15  18
ATOM     18  C   UNL     1       1.525   7.765  20.331  0.00  0.00    +0.000 A 
ATOM     19  C   UNL     1       1.762   6.436  20.685  0.00  0.00    +0.000 A 
ATOM     20  C   UNL     1       2.566   5.643  19.861  0.00  0.00    +0.000 A 
ATOM     21  C   UNL     1       3.119   6.153  18.670  0.00  0.00    +0.000 A 
ATOM     22  C   UNL     1       2.816   7.482  18.318  0.00  0.00    +0.000 A 
ATOM     23  C   UNL     1       2.019   8.283  19.136  0.00  0.00    +0.000 A 
BRANCH  21  24
ATOM     24  C   UNL     1       4.091   5.308  17.847  0.00  0.00    +0.000 C 
ATOM     25  C   UNL     1       3.471   4.035  17.256  0.00  0.00    +0.000 C 
ATOM     26  C   UNL     1       4.685   6.167  16.724  0.00  0.00    +0.000 C 
BRANCH  24  27
ATOM     27  O   UNL     1       5.178   4.879  18.675  0.00  0.00    +0.000 OA
ATOM     28  H   UNL     1       5.577   4.106  18.239  0.00  0.00    +0.000 HD
ENDBRANCH  24  27
ENDBRANCH  21  24
ENDBRANCH  15  18
ENDBRANCH   3  15
BRANCH   1  30
ATOM     29  C   UNL     1      -2.114  10.082  16.934  0.00  0.00    +0.000 C 
ATOM     30  O   UNL     1      -1.964  11.314  17.632  0.00  0.00    +0.000 OA
ENDBRANCH   1  30
TORSDOF 5
ENDMDL
MODEL 9
REMARK VINA RESULT:      -7.4      3.551      8.596
REMARK  Name = 
REMARK  8 active torsions:
REMARK  status: ('A' for Active; 'I' for Inactive)
REMARK    1  A    between atoms: C_1  and  O_2
REMARK    2  A    between atoms: O_2  and  C_3
REMARK    3  A    between atoms: C_5  and  S_6
REMARK    4  A    between atoms: S_6  and  C_9
REMARK    5  A    between atoms: C_12  and  C_13
REMARK    6  A    between atoms: C_13  and  C_14
REMARK    7  A    between atoms: C_13  and  C_15
REMARK    8  A    between atoms: C_13  and  O_16
REMARK                            x       y       z     vdW  Elec       q    Type
REMARK                         _______ _______ _______ _____ _____    ______ ____
ROOT
ATOM      1  C   UNL     1       1.712   8.912  18.602  0.00  0.00    +0.000 A 
ATOM      2  C   UNL     1       2.052   7.557  18.756  0.00  0.00    +0.000 A 
ATOM      3  C   UNL     1       1.713   6.858  19.923  0.00  0.00    +0.000 A 
ATOM      4  C   UNL     1       1.018   7.464  20.974  0.00  0.00    +0.000 A 
ATOM      5  C   UNL     1       0.681   8.818  20.847  0.00  0.00    +0.000 A 
ATOM      6  C   UNL     1       0.005   9.745  21.666  0.00  0.00    +0.000 A 
ATOM      7  C   UNL     1      -0.023  10.921  20.958  0.00  0.00    +0.000 A 
ATOM      8  O   UNL     1       0.597  10.807  19.759  0.00  0.00    +0.000 OA
ATOM      9  C   UNL     1       1.034   9.503  19.679  0.00  0.00    +0.000 A 
ATOM     10  C   UNL     1      -0.639  12.183  21.417  0.00  0.00    +0.000 C 
ATOM     11  C   UNL     1      -1.551  11.835  22.627  0.00  0.00    +0.000 C 
ATOM     12  N   UNL     1      -0.907  10.911  23.590  0.00  0.00    +0.000 NA
ATOM     13  C   UNL     1      -0.635   9.587  22.997  0.00  0.00    +0.000 C 
ATOM     14  H   UNL     1      -1.516  10.781  24.395  0.00  0.00    +0.000 HD
ENDROOT
BRANCH   3  15
ATOM     15  S   UNL     1       2.154   5.140  20.103  0.00  0.00    +0.000 S 
ATOM     16  O   UNL     1       2.592   4.949  21.474  0.00  0.00    +0.000 OA
ATOM     17  O   UNL     1       1.063   4.351  19.562  0.00  0.00    +0.000 OA
BRANCH  15  18
ATOM     18  C   UNL     1       3.565   4.910  19.049  0.00  0.00    +0.000 A 
ATOM     19  C   UNL     1       4.842   5.225  19.517  0.00  0.00    +0.000 A 
ATOM     20  C   UNL     1       5.929   5.146  18.641  0.00  0.00    +0.000 A 
ATOM     21  C   UNL     1       5.762   4.732  17.305  0.00  0.00    +0.000 A 
ATOM     22  C   UNL     1       4.469   4.373  16.882  0.00  0.00    +0.000 A 
ATOM     23  C   UNL     1       3.377   4.453  17.747  0.00  0.00    +0.000 A 
BRANCH  21  24
ATOM     24  C   UNL     1       6.942   4.768  16.333  0.00  0.00    +0.000 C 
ATOM     25  C   UNL     1       6.675   4.064  14.996  0.00  0.00    +0.000 C 
ATOM     26  C   UNL     1       7.350   6.224  16.083  0.00  0.00    +0.000 C 
BRANCH  24  27
ATOM     27  O   UNL     1       8.069   4.105  16.919  0.00  0.00    +0.000 OA
ATOM     28  H   UNL     1       8.780   4.119  16.255  0.00  0.00    +0.000 HD
ENDBRANCH  24  27
ENDBRANCH  21  24
ENDBRANCH  15  18
ENDBRANCH   3  15
BRANCH   1  30
ATOM     29  C   UNL     1       2.487  10.997  17.786  0.00  0.00    +0.000 C 
ATOM     30  O   UNL     1       2.027   9.678  17.511  0.00  0.00    +0.000 OA
ENDBRANCH   1  30
TORSDOF 5
ENDMDL
