MODEL 1
REMARK VINA RESULT:      -8.7      0.000      0.000
REMARK  Name = 
REMARK  7 active torsions:
REMARK  status: ('A' for Active; 'I' for Inactive)
REMARK    1  A    between atoms: N_3  and  C_4
REMARK    2  A    between atoms: C_7  and  C_8
REMARK    3  A    between atoms: C_8  and  O_10
REMARK    4  A    between atoms: N_13  and  C_14
REMARK    5  A    between atoms: C_19  and  O_20
REMARK    6  A    between atoms: O_20  and  C_21
REMARK    7  A    between atoms: C_21  and  C_22
REMARK                            x       y       z     vdW  Elec       q    Type
REMARK                         _______ _______ _______ _____ _____    ______ ____
ROOT
ATOM      1  O   UNL     1       7.207   8.412  16.861  0.00  0.00    +0.000 OA
ATOM      2  C   UNL     1       7.749   7.750  17.723  0.00  0.00    +0.000 C 
ATOM      3  N   UNL     1       8.537   8.243  18.764  0.00  0.00    +0.000 N 
ATOM      4  N   UNL     1       7.753   6.353  17.717  0.00  0.00    +0.000 N 
ATOM      5  H   UNL     1       9.020   7.577  19.347  0.00  0.00    +0.000 HD
ATOM      6  H   UNL     1       7.980   5.877  18.563  0.00  0.00    +0.000 HD
ENDROOT
BRANCH   3   7
ATOM      7  C   UNL     1       8.899   9.609  18.927  0.00  0.00    +0.000 A 
ATOM      8  C   UNL     1       9.018  10.454  17.828  0.00  0.00    +0.000 A 
ATOM      9  C   UNL     1       9.395  11.789  17.975  0.00  0.00    +0.000 A 
ATOM     10  C   UNL     1       9.686  12.315  19.238  0.00  0.00    +0.000 A 
ATOM     11  C   UNL     1       9.578  11.475  20.356  0.00  0.00    +0.000 A 
ATOM     12  C   UNL     1       9.167  10.134  20.202  0.00  0.00    +0.000 A 
BRANCH  10  13
ATOM     13  C   UNL     1      10.053  13.759  19.294  0.00  0.00    +0.000 C 
ATOM     14  O   UNL     1      10.894  14.185  20.068  0.00  0.00    +0.000 OA
BRANCH  13  15
ATOM     15  O   UNL     1       9.361  14.570  18.469  0.00  0.00    +0.000 OA
ATOM     16  H   UNL     1       9.859  15.016  17.765  0.00  0.00    +0.000 HD
ENDBRANCH  13  15
ENDBRANCH  10  13
ENDBRANCH   3   7
BRANCH   4  17
ATOM     17  C   UNL     1       7.043   5.618  16.749  0.00  0.00    +0.000 A 
ATOM     18  N   UNL     1       7.575   5.500  15.510  0.00  0.00    +0.000 NA
ATOM     19  C   UNL     1       6.883   4.758  14.616  0.00  0.00    +0.000 A 
ATOM     20  C   UNL     1       5.647   4.170  14.879  0.00  0.00    +0.000 A 
ATOM     21  C   UNL     1       5.077   4.379  16.130  0.00  0.00    +0.000 A 
ATOM     22  C   UNL     1       5.767   5.127  17.090  0.00  0.00    +0.000 A 
BRANCH  22  23
ATOM     23  O   UNL     1       5.245   5.509  18.300  0.00  0.00    +0.000 OA
BRANCH  23  24
ATOM     24  C   UNL     1       3.973   6.160  18.283  0.00  0.00    +0.000 C 
BRANCH  24  25
ATOM     25  C   UNL     1       2.957   5.218  18.892  0.00  0.00    +0.000 A 
ATOM     26  C   UNL     1       2.141   4.421  18.075  0.00  0.00    +0.000 A 
ATOM     27  C   UNL     1       1.145   3.618  18.632  0.00  0.00    +0.000 A 
ATOM     28  C   UNL     1       0.958   3.595  20.014  0.00  0.00    +0.000 A 
ATOM     29  C   UNL     1       1.785   4.355  20.839  0.00  0.00    +0.000 A 
ATOM     30  C   UNL     1       2.780   5.161  20.282  0.00  0.00    +0.000 A 
ENDBRANCH  24  25
ENDBRANCH  23  24
ENDBRANCH  22  23
ENDBRANCH   4  17
TORSDOF 7
ENDMDL
MODEL 2
REMARK VINA RESULT:      -8.6      0.702      1.030
REMARK  Name = 
REMARK  7 active torsions:
REMARK  status: ('A' for Active; 'I' for Inactive)
REMARK    1  A    between atoms: N_3  and  C_4
REMARK    2  A    between atoms: C_7  and  C_8
REMARK    3  A    between atoms: C_8  and  O_10
REMARK    4  A    between atoms: N_13  and  C_14
REMARK    5  A    between atoms: C_19  and  O_20
REMARK    6  A    between atoms: O_20  and  C_21
REMARK    7  A    between atoms: C_21  and  C_22
REMARK                            x       y       z     vdW  Elec       q    Type
REMARK                         _______ _______ _______ _____ _____    ______ ____
ROOT
ATOM      1  O   UNL     1       7.229   8.406  17.001  0.00  0.00    +0.000 OA
ATOM      2  C   UNL     1       7.818   7.781  17.859  0.00  0.00    +0.000 C 
ATOM      3  N   UNL     1       8.631   8.321  18.857  0.00  0.00    +0.000 N 
ATOM      4  N   UNL     1       7.856   6.385  17.891  0.00  0.00    +0.000 N 
ATOM      5  H   UNL     1       9.151   7.683  19.439  0.00  0.00    +0.000 HD
ATOM      6  H   UNL     1       8.126   5.938  18.740  0.00  0.00    +0.000 HD
ENDROOT
BRANCH   3   7
ATOM      7  C   UNL     1       8.965   9.700  18.970  0.00  0.00    +0.000 A 
ATOM      8  C   UNL     1       9.048  10.510  17.843  0.00  0.00    +0.000 A 
ATOM      9  C   UNL     1       9.398  11.857  17.940  0.00  0.00    +0.000 A 
ATOM     10  C   UNL     1       9.696  12.431  19.180  0.00  0.00    +0.000 A 
ATOM     11  C   UNL     1       9.624  11.625  20.327  0.00  0.00    +0.000 A 
ATOM     12  C   UNL     1       9.241  10.271  20.223  0.00  0.00    +0.000 A 
BRANCH  10  13
ATOM     13  C   UNL     1      10.032  13.883  19.184  0.00  0.00    +0.000 C 
ATOM     14  O   UNL     1       9.436  14.689  18.488  0.00  0.00    +0.000 OA
BRANCH  13  15
ATOM     15  O   UNL     1      11.068  14.241  19.968  0.00  0.00    +0.000 OA
ATOM     16  H   UNL     1      11.177  15.188  20.153  0.00  0.00    +0.000 HD
ENDBRANCH  13  15
ENDBRANCH  10  13
ENDBRANCH   3   7
BRANCH   4  17
ATOM     17  C   UNL     1       7.130   5.607  16.970  0.00  0.00    +0.000 A 
ATOM     18  N   UNL     1       7.520   5.609  15.674  0.00  0.00    +0.000 NA
ATOM     19  C   UNL     1       6.821   4.824  14.824  0.00  0.00    +0.000 A 
ATOM     20  C   UNL     1       5.706   4.073  15.192  0.00  0.00    +0.000 A 
ATOM     21  C   UNL     1       5.268   4.155  16.510  0.00  0.00    +0.000 A 
ATOM     22  C   UNL     1       5.973   4.944  17.426  0.00  0.00    +0.000 A 
BRANCH  22  23
ATOM     23  O   UNL     1       5.557   5.206  18.707  0.00  0.00    +0.000 OA
BRANCH  23  24
ATOM     24  C   UNL     1       4.292   5.853  18.860  0.00  0.00    +0.000 C 
BRANCH  24  25
ATOM     25  C   UNL     1       3.369   4.908  19.599  0.00  0.00    +0.000 A 
ATOM     26  C   UNL     1       3.758   3.584  19.856  0.00  0.00    +0.000 A 
ATOM     27  C   UNL     1       2.873   2.688  20.459  0.00  0.00    +0.000 A 
ATOM     28  C   UNL     1       1.593   3.108  20.821  0.00  0.00    +0.000 A 
ATOM     29  C   UNL     1       1.208   4.429  20.604  0.00  0.00    +0.000 A 
ATOM     30  C   UNL     1       2.091   5.325  19.997  0.00  0.00    +0.000 A 
ENDBRANCH  24  25
ENDBRANCH  23  24
ENDBRANCH  22  23
ENDBRANCH   4  17
TORSDOF 7
ENDMDL
MODEL 3
REMARK VINA RESULT:      -8.5      0.809      1.320
REMARK  Name = 
REMARK  7 active torsions:
REMARK  status: ('A' for Active; 'I' for Inactive)
REMARK    1  A    between atoms: N_3  and  C_4
REMARK    2  A    between atoms: C_7  and  C_8
REMARK    3  A    between atoms: C_8  and  O_10
REMARK    4  A    between atoms: N_13  and  C_14
REMARK    5  A    between atoms: C_19  and  O_20
REMARK    6  A    between atoms: O_20  and  C_21
REMARK    7  A    between atoms: C_21  and  C_22
REMARK                            x       y       z     vdW  Elec       q    Type
REMARK                         _______ _______ _______ _____ _____    ______ ____
ROOT
ATOM      1  O   UNL     1       7.175   8.368  17.022  0.00  0.00    +0.000 OA
ATOM      2  C   UNL     1       7.797   7.744  17.857  0.00  0.00    +0.000 C 
ATOM      3  N   UNL     1       8.627   8.287  18.840  0.00  0.00    +0.000 N 
ATOM      4  N   UNL     1       7.860   6.349  17.871  0.00  0.00    +0.000 N 
ATOM      5  H   UNL     1       9.173   7.651  19.400  0.00  0.00    +0.000 HD
ATOM      6  H   UNL     1       8.159   5.896  18.708  0.00  0.00    +0.000 HD
ENDROOT
BRANCH   3   7
ATOM      7  C   UNL     1       8.941   9.669  18.960  0.00  0.00    +0.000 A 
ATOM      8  C   UNL     1       9.238  10.230  20.198  0.00  0.00    +0.000 A 
ATOM      9  C   UNL     1       9.524  11.589  20.331  0.00  0.00    +0.000 A 
ATOM     10  C   UNL     1       9.500  12.436  19.218  0.00  0.00    +0.000 A 
ATOM     11  C   UNL     1       9.195  11.888  17.963  0.00  0.00    +0.000 A 
ATOM     12  C   UNL     1       8.936  10.507  17.833  0.00  0.00    +0.000 A 
BRANCH  10  13
ATOM     13  C   UNL     1       9.846  13.866  19.457  0.00  0.00    +0.000 C 
ATOM     14  O   UNL     1       9.278  14.539  20.302  0.00  0.00    +0.000 OA
BRANCH  13  15
ATOM     15  O   UNL     1      10.793  14.382  18.648  0.00  0.00    +0.000 OA
ATOM     16  H   UNL     1      10.831  14.044  17.738  0.00  0.00    +0.000 HD
ENDBRANCH  13  15
ENDBRANCH  10  13
ENDBRANCH   3   7
BRANCH   4  17
ATOM     17  C   UNL     1       7.122   5.568  16.961  0.00  0.00    +0.000 A 
ATOM     18  N   UNL     1       7.504   5.558  15.662  0.00  0.00    +0.000 NA
ATOM     19  C   UNL     1       6.795   4.771  14.823  0.00  0.00    +0.000 A 
ATOM     20  C   UNL     1       5.677   4.031  15.204  0.00  0.00    +0.000 A 
ATOM     21  C   UNL     1       5.248   4.126  16.524  0.00  0.00    +0.000 A 
ATOM     22  C   UNL     1       5.964   4.917  17.429  0.00  0.00    +0.000 A 
BRANCH  22  23
ATOM     23  O   UNL     1       5.558   5.191  18.711  0.00  0.00    +0.000 OA
BRANCH  23  24
ATOM     24  C   UNL     1       4.296   5.841  18.868  0.00  0.00    +0.000 C 
BRANCH  24  25
ATOM     25  C   UNL     1       3.373   4.899  19.610  0.00  0.00    +0.000 A 
ATOM     26  C   UNL     1       3.768   3.583  19.890  0.00  0.00    +0.000 A 
ATOM     27  C   UNL     1       2.885   2.688  20.497  0.00  0.00    +0.000 A 
ATOM     28  C   UNL     1       1.598   3.102  20.839  0.00  0.00    +0.000 A 
ATOM     29  C   UNL     1       1.205   4.417  20.599  0.00  0.00    +0.000 A 
ATOM     30  C   UNL     1       2.087   5.312  19.989  0.00  0.00    +0.000 A 
ENDBRANCH  24  25
ENDBRANCH  23  24
ENDBRANCH  22  23
ENDBRANCH   4  17
TORSDOF 7
ENDMDL
MODEL 4
REMARK VINA RESULT:      -8.5      0.756      1.295
REMARK  Name = 
REMARK  7 active torsions:
REMARK  status: ('A' for Active; 'I' for Inactive)
REMARK    1  A    between atoms: N_3  and  C_4
REMARK    2  A    between atoms: C_7  and  C_8
REMARK    3  A    between atoms: C_8  and  O_10
REMARK    4  A    between atoms: N_13  and  C_14
REMARK    5  A    between atoms: C_19  and  O_20
REMARK    6  A    between atoms: O_20  and  C_21
REMARK    7  A    between atoms: C_21  and  C_22
REMARK                            x       y       z     vdW  Elec       q    Type
REMARK                         _______ _______ _______ _____ _____    ______ ____
ROOT
ATOM      1  O   UNL     1       7.362   8.390  17.012  0.00  0.00    +0.000 OA
ATOM      2  C   UNL     1       7.858   7.799  17.951  0.00  0.00    +0.000 C 
ATOM      3  N   UNL     1       8.621   8.369  18.971  0.00  0.00    +0.000 N 
ATOM      4  N   UNL     1       7.828   6.408  18.072  0.00  0.00    +0.000 N 
ATOM      5  H   UNL     1       9.067   7.749  19.629  0.00  0.00    +0.000 HD
ATOM      6  H   UNL     1       8.014   6.007  18.966  0.00  0.00    +0.000 HD
ENDROOT
BRANCH   3   7
ATOM      7  C   UNL     1       9.010   9.736  19.021  0.00  0.00    +0.000 A 
ATOM      8  C   UNL     1       9.389  10.328  20.222  0.00  0.00    +0.000 A 
ATOM      9  C   UNL     1       9.750  11.674  20.288  0.00  0.00    +0.000 A 
ATOM     10  C   UNL     1       9.721  12.478  19.144  0.00  0.00    +0.000 A 
ATOM     11  C   UNL     1       9.334  11.899  17.925  0.00  0.00    +0.000 A 
ATOM     12  C   UNL     1       9.000  10.529  17.862  0.00  0.00    +0.000 A 
BRANCH  10  13
ATOM     13  C   UNL     1      10.151  13.896  19.310  0.00  0.00    +0.000 C 
ATOM     14  O   UNL     1      11.083  14.212  20.030  0.00  0.00    +0.000 OA
BRANCH  13  15
ATOM     15  O   UNL     1       9.411  14.811  18.652  0.00  0.00    +0.000 OA
ATOM     16  H   UNL     1       8.484  14.586  18.471  0.00  0.00    +0.000 HD
ENDBRANCH  13  15
ENDBRANCH  10  13
ENDBRANCH   3   7
BRANCH   4  17
ATOM     17  C   UNL     1       7.134   5.601  17.150  0.00  0.00    +0.000 A 
ATOM     18  N   UNL     1       7.508   5.640  15.850  0.00  0.00    +0.000 NA
ATOM     19  C   UNL     1       6.843   4.827  14.999  0.00  0.00    +0.000 A 
ATOM     20  C   UNL     1       5.775   4.012  15.370  0.00  0.00    +0.000 A 
ATOM     21  C   UNL     1       5.349   4.056  16.694  0.00  0.00    +0.000 A 
ATOM     22  C   UNL     1       6.020   4.871  17.611  0.00  0.00    +0.000 A 
BRANCH  22  23
ATOM     23  O   UNL     1       5.606   5.095  18.900  0.00  0.00    +0.000 OA
BRANCH  23  24
ATOM     24  C   UNL     1       4.375   5.799  19.074  0.00  0.00    +0.000 C 
BRANCH  24  25
ATOM     25  C   UNL     1       3.369   4.843  19.676  0.00  0.00    +0.000 A 
ATOM     26  C   UNL     1       2.049   5.252  19.919  0.00  0.00    +0.000 A 
ATOM     27  C   UNL     1       1.146   4.399  20.555  0.00  0.00    +0.000 A 
ATOM     28  C   UNL     1       1.548   3.123  20.947  0.00  0.00    +0.000 A 
ATOM     29  C   UNL     1       2.846   2.692  20.681  0.00  0.00    +0.000 A 
ATOM     30  C   UNL     1       3.752   3.546  20.047  0.00  0.00    +0.000 A 
ENDBRANCH  24  25
ENDBRANCH  23  24
ENDBRANCH  22  23
ENDBRANCH   4  17
TORSDOF 7
ENDMDL
MODEL 5
REMARK VINA RESULT:      -8.4      4.688      6.262
REMARK  Name = 
REMARK  7 active torsions:
REMARK  status: ('A' for Active; 'I' for Inactive)
REMARK    1  A    between atoms: N_3  and  C_4
REMARK    2  A    between atoms: C_7  and  C_8
REMARK    3  A    between atoms: C_8  and  O_10
REMARK    4  A    between atoms: N_13  and  C_14
REMARK    5  A    between atoms: C_19  and  O_20
REMARK    6  A    between atoms: O_20  and  C_21
REMARK    7  A    between atoms: C_21  and  C_22
REMARK                            x       y       z     vdW  Elec       q    Type
REMARK                         _______ _______ _______ _____ _____    ______ ____
ROOT
ATOM      1  O   UNL     1       3.337   7.454  17.649  0.00  0.00    +0.000 OA
ATOM      2  C   UNL     1       3.356   6.721  18.618  0.00  0.00    +0.000 C 
ATOM      3  N   UNL     1       2.604   6.879  19.783  0.00  0.00    +0.000 N 
ATOM      4  N   UNL     1       4.249   5.655  18.745  0.00  0.00    +0.000 N 
ATOM      5  H   UNL     1       2.797   6.261  20.556  0.00  0.00    +0.000 HD
ATOM      6  H   UNL     1       4.051   4.949  19.420  0.00  0.00    +0.000 HD
ENDROOT
BRANCH   3   7
ATOM      7  C   UNL     1       1.751   7.985  20.051  0.00  0.00    +0.000 A 
ATOM      8  C   UNL     1       1.159   8.146  21.300  0.00  0.00    +0.000 A 
ATOM      9  C   UNL     1       0.302   9.214  21.567  0.00  0.00    +0.000 A 
ATOM     10  C   UNL     1      -0.004  10.149  20.573  0.00  0.00    +0.000 A 
ATOM     11  C   UNL     1       0.578   9.998  19.306  0.00  0.00    +0.000 A 
ATOM     12  C   UNL     1       1.467   8.932  19.053  0.00  0.00    +0.000 A 
BRANCH  10  13
ATOM     13  C   UNL     1      -0.907  11.269  20.963  0.00  0.00    +0.000 C 
ATOM     14  O   UNL     1      -1.611  11.849  20.152  0.00  0.00    +0.000 OA
BRANCH  13  15
ATOM     15  O   UNL     1      -0.861  11.633  22.261  0.00  0.00    +0.000 OA
ATOM     16  H   UNL     1      -1.618  11.387  22.817  0.00  0.00    +0.000 HD
ENDBRANCH  13  15
ENDBRANCH  10  13
ENDBRANCH   3   7
BRANCH   4  17
ATOM     17  C   UNL     1       5.132   5.304  17.705  0.00  0.00    +0.000 A 
ATOM     18  N   UNL     1       6.256   6.041  17.538  0.00  0.00    +0.000 NA
ATOM     19  C   UNL     1       7.097   5.655  16.553  0.00  0.00    +0.000 A 
ATOM     20  C   UNL     1       6.846   4.598  15.680  0.00  0.00    +0.000 A 
ATOM     21  C   UNL     1       5.644   3.912  15.813  0.00  0.00    +0.000 A 
ATOM     22  C   UNL     1       4.751   4.268  16.830  0.00  0.00    +0.000 A 
BRANCH  22  23
ATOM     23  O   UNL     1       3.486   3.756  16.969  0.00  0.00    +0.000 OA
BRANCH  23  24
ATOM     24  C   UNL     1       3.364   2.498  17.635  0.00  0.00    +0.000 C 
BRANCH  24  25
ATOM     25  C   UNL     1       2.663   2.733  18.955  0.00  0.00    +0.000 A 
ATOM     26  C   UNL     1       1.389   3.321  18.994  0.00  0.00    +0.000 A 
ATOM     27  C   UNL     1       0.780   3.618  20.214  0.00  0.00    +0.000 A 
ATOM     28  C   UNL     1       1.432   3.322  21.410  0.00  0.00    +0.000 A 
ATOM     29  C   UNL     1       2.681   2.706  21.386  0.00  0.00    +0.000 A 
ATOM     30  C   UNL     1       3.294   2.411  20.165  0.00  0.00    +0.000 A 
ENDBRANCH  24  25
ENDBRANCH  23  24
ENDBRANCH  22  23
ENDBRANCH   4  17
TORSDOF 7
ENDMDL
MODEL 6
REMARK VINA RESULT:      -8.4      1.347      1.888
REMARK  Name = 
REMARK  7 active torsions:
REMARK  status: ('A' for Active; 'I' for Inactive)
REMARK    1  A    between atoms: N_3  and  C_4
REMARK    2  A    between atoms: C_7  and  C_8
REMARK    3  A    between atoms: C_8  and  O_10
REMARK    4  A    between atoms: N_13  and  C_14
REMARK    5  A    between atoms: C_19  and  O_20
REMARK    6  A    between atoms: O_20  and  C_21
REMARK    7  A    between atoms: C_21  and  C_22
REMARK                            x       y       z     vdW  Elec       q    Type
REMARK                         _______ _______ _______ _____ _____    ______ ____
ROOT
ATOM      1  O   UNL     1       7.317   8.573  17.017  0.00  0.00    +0.000 OA
ATOM      2  C   UNL     1       7.833   7.928  17.907  0.00  0.00    +0.000 C 
ATOM      3  N   UNL     1       8.652   8.432  18.919  0.00  0.00    +0.000 N 
ATOM      4  N   UNL     1       7.768   6.534  17.970  0.00  0.00    +0.000 N 
ATOM      5  H   UNL     1       9.106   7.771  19.531  0.00  0.00    +0.000 HD
ATOM      6  H   UNL     1       7.978   6.089  18.837  0.00  0.00    +0.000 HD
ENDROOT
BRANCH   3   7
ATOM      7  C   UNL     1       9.082   9.784  19.013  0.00  0.00    +0.000 A 
ATOM      8  C   UNL     1       9.346  10.532  17.870  0.00  0.00    +0.000 A 
ATOM      9  C   UNL     1       9.791  11.852  17.951  0.00  0.00    +0.000 A 
ATOM     10  C   UNL     1      10.005  12.459  19.193  0.00  0.00    +0.000 A 
ATOM     11  C   UNL     1       9.751  11.717  20.356  0.00  0.00    +0.000 A 
ATOM     12  C   UNL     1       9.272  10.392  20.265  0.00  0.00    +0.000 A 
BRANCH  10  13
ATOM     13  C   UNL     1      10.454  13.880  19.175  0.00  0.00    +0.000 C 
ATOM     14  O   UNL     1      11.207  14.334  20.022  0.00  0.00    +0.000 OA
BRANCH  13  15
ATOM     15  O   UNL     1       9.937  14.645  18.192  0.00  0.00    +0.000 OA
ATOM     16  H   UNL     1      10.562  15.037  17.561  0.00  0.00    +0.000 HD
ENDBRANCH  13  15
ENDBRANCH  10  13
ENDBRANCH   3   7
BRANCH   4  17
ATOM     17  C   UNL     1       7.014   5.789  17.043  0.00  0.00    +0.000 A 
ATOM     18  N   UNL     1       7.543   5.559  15.818  0.00  0.00    +0.000 NA
ATOM     19  C   UNL     1       6.808   4.811  14.966  0.00  0.00    +0.000 A 
ATOM     20  C   UNL     1       5.534   4.323  15.254  0.00  0.00    +0.000 A 
ATOM     21  C   UNL     1       4.973   4.647  16.485  0.00  0.00    +0.000 A 
ATOM     22  C   UNL     1       5.707   5.406  17.403  0.00  0.00    +0.000 A 
BRANCH  22  23
ATOM     23  O   UNL     1       5.207   5.896  18.583  0.00  0.00    +0.000 OA
BRANCH  23  24
ATOM     24  C   UNL     1       3.884   5.495  18.944  0.00  0.00    +0.000 C 
BRANCH  24  25
ATOM     25  C   UNL     1       3.001   6.724  18.932  0.00  0.00    +0.000 A 
ATOM     26  C   UNL     1       2.978   7.577  17.817  0.00  0.00    +0.000 A 
ATOM     27  C   UNL     1       2.232   8.756  17.840  0.00  0.00    +0.000 A 
ATOM     28  C   UNL     1       1.493   9.093  18.973  0.00  0.00    +0.000 A 
ATOM     29  C   UNL     1       1.479   8.237  20.073  0.00  0.00    +0.000 A 
ATOM     30  C   UNL     1       2.228   7.059  20.053  0.00  0.00    +0.000 A 
ENDBRANCH  24  25
ENDBRANCH  23  24
ENDBRANCH  22  23
ENDBRANCH   4  17
TORSDOF 7
ENDMDL
MODEL 7
REMARK VINA RESULT:      -8.4      4.710      6.182
REMARK  Name = 
REMARK  7 active torsions:
REMARK  status: ('A' for Active; 'I' for Inactive)
REMARK    1  A    between atoms: N_3  and  C_4
REMARK    2  A    between atoms: C_7  and  C_8
REMARK    3  A    between atoms: C_8  and  O_10
REMARK    4  A    between atoms: N_13  and  C_14
REMARK    5  A    between atoms: C_19  and  O_20
REMARK    6  A    between atoms: O_20  and  C_21
REMARK    7  A    between atoms: C_21  and  C_22
REMARK                            x       y       z     vdW  Elec       q    Type
REMARK                         _______ _______ _______ _____ _____    ______ ____
ROOT
ATOM      1  O   UNL     1       3.275   7.365  17.652  0.00  0.00    +0.000 OA
ATOM      2  C   UNL     1       3.346   6.668  18.644  0.00  0.00    +0.000 C 
ATOM      3  N   UNL     1       2.616   6.838  19.821  0.00  0.00    +0.000 N 
ATOM      4  N   UNL     1       4.285   5.643  18.786  0.00  0.00    +0.000 N 
ATOM      5  H   UNL     1       2.852   6.257  20.611  0.00  0.00    +0.000 HD
ATOM      6  H   UNL     1       4.130   4.954  19.490  0.00  0.00    +0.000 HD
ENDROOT
BRANCH   3   7
ATOM      7  C   UNL     1       1.725   7.918  20.072  0.00  0.00    +0.000 A 
ATOM      8  C   UNL     1       1.522   8.913  19.121  0.00  0.00    +0.000 A 
ATOM      9  C   UNL     1       0.669   9.990  19.365  0.00  0.00    +0.000 A 
ATOM     10  C   UNL     1       0.005  10.111  20.590  0.00  0.00    +0.000 A 
ATOM     11  C   UNL     1       0.205   9.121  21.564  0.00  0.00    +0.000 A 
ATOM     12  C   UNL     1       1.046   8.019  21.297  0.00  0.00    +0.000 A 
BRANCH  10  13
ATOM     13  C   UNL     1      -0.906  11.281  20.745  0.00  0.00    +0.000 C 
ATOM     14  O   UNL     1      -1.394  11.586  21.821  0.00  0.00    +0.000 OA
BRANCH  13  15
ATOM     15  O   UNL     1      -1.194  11.952  19.612  0.00  0.00    +0.000 OA
ATOM     16  H   UNL     1      -2.036  12.436  19.585  0.00  0.00    +0.000 HD
ENDBRANCH  13  15
ENDBRANCH  10  13
ENDBRANCH   3   7
BRANCH   4  17
ATOM     17  C   UNL     1       5.157   5.291  17.738  0.00  0.00    +0.000 A 
ATOM     18  N   UNL     1       6.282   6.022  17.562  0.00  0.00    +0.000 NA
ATOM     19  C   UNL     1       7.113   5.635  16.569  0.00  0.00    +0.000 A 
ATOM     20  C   UNL     1       6.849   4.581  15.696  0.00  0.00    +0.000 A 
ATOM     21  C   UNL     1       5.644   3.900  15.838  0.00  0.00    +0.000 A 
ATOM     22  C   UNL     1       4.763   4.259  16.864  0.00  0.00    +0.000 A 
BRANCH  22  23
ATOM     23  O   UNL     1       3.497   3.751  17.013  0.00  0.00    +0.000 OA
BRANCH  23  24
ATOM     24  C   UNL     1       3.377   2.481  17.656  0.00  0.00    +0.000 C 
BRANCH  24  25
ATOM     25  C   UNL     1       2.670   2.690  18.978  0.00  0.00    +0.000 A 
ATOM     26  C   UNL     1       1.358   3.186  19.017  0.00  0.00    +0.000 A 
ATOM     27  C   UNL     1       0.738   3.461  20.237  0.00  0.00    +0.000 A 
ATOM     28  C   UNL     1       1.419   3.234  21.433  0.00  0.00    +0.000 A 
ATOM     29  C   UNL     1       2.709   2.708  21.408  0.00  0.00    +0.000 A 
ATOM     30  C   UNL     1       3.332   2.436  20.188  0.00  0.00    +0.000 A 
ENDBRANCH  24  25
ENDBRANCH  23  24
ENDBRANCH  22  23
ENDBRANCH   4  17
TORSDOF 7
ENDMDL
MODEL 8
REMARK VINA RESULT:      -8.3      4.727      6.206
REMARK  Name = 
REMARK  7 active torsions:
REMARK  status: ('A' for Active; 'I' for Inactive)
REMARK    1  A    between atoms: N_3  and  C_4
REMARK    2  A    between atoms: C_7  and  C_8
REMARK    3  A    between atoms: C_8  and  O_10
REMARK    4  A    between atoms: N_13  and  C_14
REMARK    5  A    between atoms: C_19  and  O_20
REMARK    6  A    between atoms: O_20  and  C_21
REMARK    7  A    between atoms: C_21  and  C_22
REMARK                            x       y       z     vdW  Elec       q    Type
REMARK                         _______ _______ _______ _____ _____    ______ ____
ROOT
ATOM      1  O   UNL     1       3.303   7.290  17.543  0.00  0.00    +0.000 OA
ATOM      2  C   UNL     1       3.423   6.629  18.554  0.00  0.00    +0.000 C 
ATOM      3  N   UNL     1       2.721   6.814  19.746  0.00  0.00    +0.000 N 
ATOM      4  N   UNL     1       4.395   5.636  18.701  0.00  0.00    +0.000 N 
ATOM      5  H   UNL     1       2.996   6.266  20.546  0.00  0.00    +0.000 HD
ATOM      6  H   UNL     1       4.281   4.966  19.431  0.00  0.00    +0.000 HD
ENDROOT
BRANCH   3   7
ATOM      7  C   UNL     1       1.806   7.876  19.989  0.00  0.00    +0.000 A 
ATOM      8  C   UNL     1       1.600   8.874  19.041  0.00  0.00    +0.000 A 
ATOM      9  C   UNL     1       0.723   9.932  19.278  0.00  0.00    +0.000 A 
ATOM     10  C   UNL     1       0.034  10.032  20.491  0.00  0.00    +0.000 A 
ATOM     11  C   UNL     1       0.236   9.038  21.461  0.00  0.00    +0.000 A 
ATOM     12  C   UNL     1       1.102   7.955  21.202  0.00  0.00    +0.000 A 
BRANCH  10  13
ATOM     13  C   UNL     1      -0.901  11.183  20.639  0.00  0.00    +0.000 C 
ATOM     14  O   UNL     1      -1.580  11.591  19.711  0.00  0.00    +0.000 OA
BRANCH  13  15
ATOM     15  O   UNL     1      -0.911  11.776  21.849  0.00  0.00    +0.000 OA
ATOM     16  H   UNL     1      -0.284  12.503  21.992  0.00  0.00    +0.000 HD
ENDBRANCH  13  15
ENDBRANCH  10  13
ENDBRANCH   3   7
BRANCH   4  17
ATOM     17  C   UNL     1       5.248   5.276  17.640  0.00  0.00    +0.000 A 
ATOM     18  N   UNL     1       6.356   6.022  17.422  0.00  0.00    +0.000 NA
ATOM     19  C   UNL     1       7.170   5.627  16.417  0.00  0.00    +0.000 A 
ATOM     20  C   UNL     1       6.903   4.551  15.573  0.00  0.00    +0.000 A 
ATOM     21  C   UNL     1       5.713   3.854  15.758  0.00  0.00    +0.000 A 
ATOM     22  C   UNL     1       4.851   4.219  16.797  0.00  0.00    +0.000 A 
BRANCH  22  23
ATOM     23  O   UNL     1       3.597   3.695  16.987  0.00  0.00    +0.000 OA
BRANCH  23  24
ATOM     24  C   UNL     1       3.506   2.486  17.742  0.00  0.00    +0.000 C 
BRANCH  24  25
ATOM     25  C   UNL     1       2.782   2.794  19.035  0.00  0.00    +0.000 A 
ATOM     26  C   UNL     1       3.354   2.460  20.272  0.00  0.00    +0.000 A 
ATOM     27  C   UNL     1       2.650   2.664  21.460  0.00  0.00    +0.000 A 
ATOM     28  C   UNL     1       1.369   3.214  21.426  0.00  0.00    +0.000 A 
ATOM     29  C   UNL     1       0.804   3.583  20.207  0.00  0.00    +0.000 A 
ATOM     30  C   UNL     1       1.507   3.376  19.018  0.00  0.00    +0.000 A 
ENDBRANCH  24  25
ENDBRANCH  23  24
ENDBRANCH  22  23
ENDBRANCH   4  17
TORSDOF 7
ENDMDL
MODEL 9
REMARK VINA RESULT:      -8.3      1.441      2.199
REMARK  Name = 
REMARK  7 active torsions:
REMARK  status: ('A' for Active; 'I' for Inactive)
REMARK    1  A    between atoms: N_3  and  C_4
REMARK    2  A    between atoms: C_7  and  C_8
REMARK    3  A    between atoms: C_8  and  O_10
REMARK    4  A    between atoms: N_13  and  C_14
REMARK    5  A    between atoms: C_19  and  O_20
REMARK    6  A    between atoms: O_20  and  C_21
REMARK    7  A    between atoms: C_21  and  C_22
REMARK                            x       y       z     vdW  Elec       q    Type
REMARK                         _______ _______ _______ _____ _____    ______ ____
ROOT
ATOM      1  O   UNL     1       7.368   8.617  16.978  0.00  0.00    +0.000 OA
ATOM      2  C   UNL     1       7.842   7.973  17.893  0.00  0.00    +0.000 C 
ATOM      3  N   UNL     1       8.643   8.472  18.921  0.00  0.00    +0.000 N 
ATOM      4  N   UNL     1       7.744   6.582  17.972  0.00  0.00    +0.000 N 
ATOM      5  H   UNL     1       9.063   7.811  19.555  0.00  0.00    +0.000 HD
ATOM      6  H   UNL     1       7.918   6.144  18.851  0.00  0.00    +0.000 HD
ENDROOT
BRANCH   3   7
ATOM      7  C   UNL     1       9.100   9.816  19.010  0.00  0.00    +0.000 A 
ATOM      8  C   UNL     1       9.387  10.552  17.865  0.00  0.00    +0.000 A 
ATOM      9  C   UNL     1       9.858  11.863  17.941  0.00  0.00    +0.000 A 
ATOM     10  C   UNL     1      10.077  12.472  19.180  0.00  0.00    +0.000 A 
ATOM     11  C   UNL     1       9.801  11.742  20.346  0.00  0.00    +0.000 A 
ATOM     12  C   UNL     1       9.295  10.427  20.260  0.00  0.00    +0.000 A 
BRANCH  10  13
ATOM     13  C   UNL     1      10.556  13.884  19.157  0.00  0.00    +0.000 C 
ATOM     14  O   UNL     1       9.883  14.790  18.696  0.00  0.00    +0.000 OA
BRANCH  13  15
ATOM     15  O   UNL     1      11.800  14.087  19.635  0.00  0.00    +0.000 OA
ATOM     16  H   UNL     1      12.466  14.418  19.011  0.00  0.00    +0.000 HD
ENDBRANCH  13  15
ENDBRANCH  10  13
ENDBRANCH   3   7
BRANCH   4  17
ATOM     17  C   UNL     1       7.002   5.840  17.033  0.00  0.00    +0.000 A 
ATOM     18  N   UNL     1       7.564   5.576  15.830  0.00  0.00    +0.000 NA
ATOM     19  C   UNL     1       6.838   4.832  14.967  0.00  0.00    +0.000 A 
ATOM     20  C   UNL     1       5.543   4.383  15.220  0.00  0.00    +0.000 A 
ATOM     21  C   UNL     1       4.951   4.742  16.426  0.00  0.00    +0.000 A 
ATOM     22  C   UNL     1       5.674   5.498  17.355  0.00  0.00    +0.000 A 
BRANCH  22  23
ATOM     23  O   UNL     1       5.148   6.021  18.509  0.00  0.00    +0.000 OA
BRANCH  23  24
ATOM     24  C   UNL     1       3.800   5.672  18.826  0.00  0.00    +0.000 C 
BRANCH  24  25
ATOM     25  C   UNL     1       2.985   6.946  18.877  0.00  0.00    +0.000 A 
ATOM     26  C   UNL     1       2.208   7.254  20.004  0.00  0.00    +0.000 A 
ATOM     27  C   UNL     1       1.389   8.384  20.016  0.00  0.00    +0.000 A 
ATOM     28  C   UNL     1       1.343   9.225  18.905  0.00  0.00    +0.000 A 
ATOM     29  C   UNL     1       2.137   8.950  17.793  0.00  0.00    +0.000 A 
ATOM     30  C   UNL     1       2.954   7.818  17.778  0.00  0.00    +0.000 A 
ENDBRANCH  24  25
ENDBRANCH  23  24
ENDBRANCH  22  23
ENDBRANCH   4  17
TORSDOF 7
ENDMDL
