MODEL 1
REMARK VINA RESULT:      -7.6      0.000      0.000
REMARK  Name = 
REMARK  10 active torsions:
REMARK  status: ('A' for Active; 'I' for Inactive)
REMARK    1  A    between atoms: C_2  and  C_3
REMARK    2  A    between atoms: C_3  and  C_4
REMARK    3  A    between atoms: C_5  and  C_6
REMARK    4  A    between atoms: C_6  and  C_7
REMARK    5  A    between atoms: C_11  and  C_12
REMARK    6  A    between atoms: C_12  and  C_13
REMARK    7  A    between atoms: C_13  and  C_14
REMARK    8  A    between atoms: C_14  and  C_15
REMARK    9  A    between atoms: C_15  and  C_16
REMARK   10  A    between atoms: C_23  and  O_24
REMARK                            x       y       z     vdW  Elec       q    Type
REMARK                         _______ _______ _______ _____ _____    ______ ____
ROOT
ATOM      1  C   UNL     1       4.620   4.450  18.602  0.00  0.00    +0.000 C 
ATOM      2  C   UNL     1       4.825   2.970  18.955  0.00  0.00    +0.000 C 
ATOM      3  S   UNL     1       4.092   4.601  16.856  0.00  0.00    +0.000 S 
ATOM      4  C   UNL     1       5.551   5.423  16.353  0.00  0.00    +0.000 C 
ATOM      5  O   UNL     1       5.796   5.717  15.195  0.00  0.00    +0.000 OA
ATOM      6  C   UNL     1       6.450   5.704  17.489  0.00  0.00    +0.000 C 
ATOM      7  C   UNL     1       5.966   5.182  18.628  0.00  0.00    +0.000 C 
ENDROOT
BRANCH   1  10
ATOM      8  C   UNL     1       2.318   5.052  19.778  0.00  0.00    +0.000 C 
ATOM      9  C   UNL     1       1.791   5.930  20.895  0.00  0.00    +0.000 C 
ATOM     10  C   UNL     1       3.643   5.162  19.526  0.00  0.00    +0.000 C 
BRANCH   8  12
ATOM     11  C   UNL     1       1.373   2.823  19.135  0.00  0.00    +0.000 C 
ATOM     12  C   UNL     1       1.416   4.161  19.067  0.00  0.00    +0.000 C 
ENDBRANCH   8  12
ENDBRANCH   1  10
BRANCH   7  13
ATOM     13  O   UNL     1       6.569   5.309  19.864  0.00  0.00    +0.000 OA
ATOM     14  H   UNL     1       7.535   5.238  19.774  0.00  0.00    +0.000 HD
ENDBRANCH   7  13
BRANCH   6  15
ATOM     15  C   UNL     1       7.682   6.530  17.255  0.00  0.00    +0.000 C 
BRANCH  15  16
ATOM     16  C   UNL     1       7.962   7.488  18.414  0.00  0.00    +0.000 C 
BRANCH  16  17
ATOM     17  C   UNL     1       8.274   8.903  17.919  0.00  0.00    +0.000 C 
BRANCH  17  18
ATOM     18  C   UNL     1       9.020   9.697  18.996  0.00  0.00    +0.000 C 
BRANCH  18  19
ATOM     19  C   UNL     1       9.588  10.989  18.464  0.00  0.00    +0.000 A 
ATOM     20  C   UNL     1       8.733  11.998  18.001  0.00  0.00    +0.000 A 
ATOM     21  C   UNL     1       9.253  13.195  17.506  0.00  0.00    +0.000 A 
ATOM     22  C   UNL     1      10.631  13.387  17.468  0.00  0.00    +0.000 A 
ATOM     23 CL   UNL     1      11.273  14.861  16.855  0.00  0.00    +0.000 Cl
ATOM     24  C   UNL     1      11.494  12.391  17.922  0.00  0.00    +0.000 A 
ATOM     25  C   UNL     1      10.974  11.193  18.417  0.00  0.00    +0.000 A 
ENDBRANCH  18  19
ENDBRANCH  17  18
ENDBRANCH  16  17
ENDBRANCH  15  16
ENDBRANCH   6  15
TORSDOF 8
ENDMDL
MODEL 2
REMARK VINA RESULT:      -7.6      1.189      1.353
REMARK  Name = 
REMARK  10 active torsions:
REMARK  status: ('A' for Active; 'I' for Inactive)
REMARK    1  A    between atoms: C_2  and  C_3
REMARK    2  A    between atoms: C_3  and  C_4
REMARK    3  A    between atoms: C_5  and  C_6
REMARK    4  A    between atoms: C_6  and  C_7
REMARK    5  A    between atoms: C_11  and  C_12
REMARK    6  A    between atoms: C_12  and  C_13
REMARK    7  A    between atoms: C_13  and  C_14
REMARK    8  A    between atoms: C_14  and  C_15
REMARK    9  A    between atoms: C_15  and  C_16
REMARK   10  A    between atoms: C_23  and  O_24
REMARK                            x       y       z     vdW  Elec       q    Type
REMARK                         _______ _______ _______ _____ _____    ______ ____
ROOT
ATOM      1  C   UNL     1       4.264   4.008  18.751  0.00  0.00    +0.000 C 
ATOM      2  C   UNL     1       4.645   2.704  19.465  0.00  0.00    +0.000 C 
ATOM      3  S   UNL     1       3.818   3.653  17.012  0.00  0.00    +0.000 S 
ATOM      4  C   UNL     1       5.180   4.528  16.351  0.00  0.00    +0.000 C 
ATOM      5  O   UNL     1       5.447   4.564  15.162  0.00  0.00    +0.000 OA
ATOM      6  C   UNL     1       5.969   5.202  17.400  0.00  0.00    +0.000 C 
ATOM      7  C   UNL     1       5.497   4.909  18.623  0.00  0.00    +0.000 C 
ENDROOT
BRANCH   1  10
ATOM      8  C   UNL     1       1.943   4.447  19.962  0.00  0.00    +0.000 C 
ATOM      9  C   UNL     1       1.211   5.564  20.680  0.00  0.00    +0.000 C 
ATOM     10  C   UNL     1       3.151   4.777  19.450  0.00  0.00    +0.000 C 
BRANCH   8  12
ATOM     11  C   UNL     1       0.539   2.663  18.901  0.00  0.00    +0.000 C 
ATOM     12  C   UNL     1       1.342   3.126  19.870  0.00  0.00    +0.000 C 
ENDBRANCH   8  12
ENDBRANCH   1  10
BRANCH   7  13
ATOM     13  O   UNL     1       6.009   5.417  19.801  0.00  0.00    +0.000 OA
ATOM     14  H   UNL     1       5.362   6.013  20.217  0.00  0.00    +0.000 HD
ENDBRANCH   7  13
BRANCH   6  15
ATOM     15  C   UNL     1       7.091   6.114  16.993  0.00  0.00    +0.000 C 
BRANCH  15  16
ATOM     16  C   UNL     1       6.848   7.558  17.433  0.00  0.00    +0.000 C 
BRANCH  16  17
ATOM     17  C   UNL     1       8.135   8.388  17.397  0.00  0.00    +0.000 C 
BRANCH  17  18
ATOM     18  C   UNL     1       8.612   8.702  18.818  0.00  0.00    +0.000 C 
BRANCH  18  19
ATOM     19  C   UNL     1       9.013  10.147  18.980  0.00  0.00    +0.000 A 
ATOM     20  C   UNL     1       8.943  11.025  17.890  0.00  0.00    +0.000 A 
ATOM     21  C   UNL     1       9.315  12.363  18.033  0.00  0.00    +0.000 A 
ATOM     22  C   UNL     1       9.763  12.828  19.267  0.00  0.00    +0.000 A 
ATOM     23 CL   UNL     1      10.225  14.476  19.443  0.00  0.00    +0.000 Cl
ATOM     24  C   UNL     1       9.841  11.966  20.359  0.00  0.00    +0.000 A 
ATOM     25  C   UNL     1       9.469  10.627  20.215  0.00  0.00    +0.000 A 
ENDBRANCH  18  19
ENDBRANCH  17  18
ENDBRANCH  16  17
ENDBRANCH  15  16
ENDBRANCH   6  15
TORSDOF 8
ENDMDL
MODEL 3
REMARK VINA RESULT:      -7.5      1.533      2.136
REMARK  Name = 
REMARK  10 active torsions:
REMARK  status: ('A' for Active; 'I' for Inactive)
REMARK    1  A    between atoms: C_2  and  C_3
REMARK    2  A    between atoms: C_3  and  C_4
REMARK    3  A    between atoms: C_5  and  C_6
REMARK    4  A    between atoms: C_6  and  C_7
REMARK    5  A    between atoms: C_11  and  C_12
REMARK    6  A    between atoms: C_12  and  C_13
REMARK    7  A    between atoms: C_13  and  C_14
REMARK    8  A    between atoms: C_14  and  C_15
REMARK    9  A    between atoms: C_15  and  C_16
REMARK   10  A    between atoms: C_23  and  O_24
REMARK                            x       y       z     vdW  Elec       q    Type
REMARK                         _______ _______ _______ _____ _____    ______ ____
ROOT
ATOM      1  C   UNL     1       4.143   4.052  19.190  0.00  0.00    +0.000 C 
ATOM      2  C   UNL     1       4.193   2.741  19.986  0.00  0.00    +0.000 C 
ATOM      3  S   UNL     1       3.545   3.723  17.493  0.00  0.00    +0.000 S 
ATOM      4  C   UNL     1       5.061   4.157  16.738  0.00  0.00    +0.000 C 
ATOM      5  O   UNL     1       5.277   4.046  15.543  0.00  0.00    +0.000 OA
ATOM      6  C   UNL     1       6.045   4.659  17.716  0.00  0.00    +0.000 C 
ATOM      7  C   UNL     1       5.564   4.580  18.968  0.00  0.00    +0.000 C 
ENDROOT
BRANCH   1  10
ATOM      8  C   UNL     1       2.658   6.240  19.426  0.00  0.00    +0.000 C 
ATOM      9  C   UNL     1       1.843   6.971  20.474  0.00  0.00    +0.000 C 
ATOM     10  C   UNL     1       3.306   5.133  19.859  0.00  0.00    +0.000 C 
BRANCH   8  12
ATOM     11  C   UNL     1       3.082   7.951  17.646  0.00  0.00    +0.000 C 
ATOM     12  C   UNL     1       2.697   6.735  18.060  0.00  0.00    +0.000 C 
ENDBRANCH   8  12
ENDBRANCH   1  10
BRANCH   7  13
ATOM     13  O   UNL     1       6.242   5.005  20.094  0.00  0.00    +0.000 OA
ATOM     14  H   UNL     1       5.785   4.699  20.896  0.00  0.00    +0.000 HD
ENDBRANCH   7  13
BRANCH   6  15
ATOM     15  C   UNL     1       7.350   5.209  17.219  0.00  0.00    +0.000 C 
BRANCH  15  16
ATOM     16  C   UNL     1       7.237   6.676  16.804  0.00  0.00    +0.000 C 
BRANCH  16  17
ATOM     17  C   UNL     1       7.789   7.616  17.881  0.00  0.00    +0.000 C 
BRANCH  17  18
ATOM     18  C   UNL     1       7.508   9.076  17.515  0.00  0.00    +0.000 C 
BRANCH  18  19
ATOM     19  C   UNL     1       8.468  10.028  18.184  0.00  0.00    +0.000 A 
ATOM     20  C   UNL     1       8.696  11.299  17.639  0.00  0.00    +0.000 A 
ATOM     21  C   UNL     1       9.584  12.184  18.253  0.00  0.00    +0.000 A 
ATOM     22  C   UNL     1      10.252  11.801  19.413  0.00  0.00    +0.000 A 
ATOM     23 CL   UNL     1      11.349  12.889  20.168  0.00  0.00    +0.000 Cl
ATOM     24  C   UNL     1      10.037  10.540  19.965  0.00  0.00    +0.000 A 
ATOM     25  C   UNL     1       9.149   9.654  19.350  0.00  0.00    +0.000 A 
ENDBRANCH  18  19
ENDBRANCH  17  18
ENDBRANCH  16  17
ENDBRANCH  15  16
ENDBRANCH   6  15
TORSDOF 8
ENDMDL
MODEL 4
REMARK VINA RESULT:      -7.4      0.817      1.260
REMARK  Name = 
REMARK  10 active torsions:
REMARK  status: ('A' for Active; 'I' for Inactive)
REMARK    1  A    between atoms: C_2  and  C_3
REMARK    2  A    between atoms: C_3  and  C_4
REMARK    3  A    between atoms: C_5  and  C_6
REMARK    4  A    between atoms: C_6  and  C_7
REMARK    5  A    between atoms: C_11  and  C_12
REMARK    6  A    between atoms: C_12  and  C_13
REMARK    7  A    between atoms: C_13  and  C_14
REMARK    8  A    between atoms: C_14  and  C_15
REMARK    9  A    between atoms: C_15  and  C_16
REMARK   10  A    between atoms: C_23  and  O_24
REMARK                            x       y       z     vdW  Elec       q    Type
REMARK                         _______ _______ _______ _____ _____    ______ ____
ROOT
ATOM      1  C   UNL     1       4.342   4.210  18.833  0.00  0.00    +0.000 C 
ATOM      2  C   UNL     1       4.773   2.936  19.574  0.00  0.00    +0.000 C 
ATOM      3  S   UNL     1       3.764   3.781  17.151  0.00  0.00    +0.000 S 
ATOM      4  C   UNL     1       5.074   4.617  16.350  0.00  0.00    +0.000 C 
ATOM      5  O   UNL     1       5.250   4.599  15.143  0.00  0.00    +0.000 OA
ATOM      6  C   UNL     1       5.942   5.333  17.305  0.00  0.00    +0.000 C 
ATOM      7  C   UNL     1       5.564   5.097  18.571  0.00  0.00    +0.000 C 
ENDROOT
BRANCH   1  10
ATOM      8  C   UNL     1       2.112   4.718  20.181  0.00  0.00    +0.000 C 
ATOM      9  C   UNL     1       1.443   5.867  20.909  0.00  0.00    +0.000 C 
ATOM     10  C   UNL     1       3.288   5.015  19.579  0.00  0.00    +0.000 C 
BRANCH   8  12
ATOM     11  C   UNL     1       0.634   2.915  19.265  0.00  0.00    +0.000 C 
ATOM     12  C   UNL     1       1.492   3.403  20.172  0.00  0.00    +0.000 C 
ENDBRANCH   8  12
ENDBRANCH   1  10
BRANCH   7  13
ATOM     13  O   UNL     1       6.165   5.654  19.683  0.00  0.00    +0.000 OA
ATOM     14  H   UNL     1       6.545   6.521  19.459  0.00  0.00    +0.000 HD
ENDBRANCH   7  13
BRANCH   6  15
ATOM     15  C   UNL     1       7.032   6.219  16.774  0.00  0.00    +0.000 C 
BRANCH  15  16
ATOM     16  C   UNL     1       7.853   6.857  17.895  0.00  0.00    +0.000 C 
BRANCH  16  17
ATOM     17  C   UNL     1       7.950   8.377  17.734  0.00  0.00    +0.000 C 
BRANCH  17  18
ATOM     18  C   UNL     1       8.757   8.989  18.884  0.00  0.00    +0.000 C 
BRANCH  18  19
ATOM     19  C   UNL     1       9.189  10.404  18.591  0.00  0.00    +0.000 A 
ATOM     20  C   UNL     1      10.421  10.877  19.063  0.00  0.00    +0.000 A 
ATOM     21  C   UNL     1      10.825  12.187  18.796  0.00  0.00    +0.000 A 
ATOM     22  C   UNL     1       9.997  13.030  18.060  0.00  0.00    +0.000 A 
ATOM     23 CL   UNL     1      10.494  14.644  17.734  0.00  0.00    +0.000 Cl
ATOM     24  C   UNL     1       8.769  12.574  17.586  0.00  0.00    +0.000 A 
ATOM     25  C   UNL     1       8.364  11.264  17.854  0.00  0.00    +0.000 A 
ENDBRANCH  18  19
ENDBRANCH  17  18
ENDBRANCH  16  17
ENDBRANCH  15  16
ENDBRANCH   6  15
TORSDOF 8
ENDMDL
MODEL 5
REMARK VINA RESULT:      -7.4      5.121      6.345
REMARK  Name = 
REMARK  10 active torsions:
REMARK  status: ('A' for Active; 'I' for Inactive)
REMARK    1  A    between atoms: C_2  and  C_3
REMARK    2  A    between atoms: C_3  and  C_4
REMARK    3  A    between atoms: C_5  and  C_6
REMARK    4  A    between atoms: C_6  and  C_7
REMARK    5  A    between atoms: C_11  and  C_12
REMARK    6  A    between atoms: C_12  and  C_13
REMARK    7  A    between atoms: C_13  and  C_14
REMARK    8  A    between atoms: C_14  and  C_15
REMARK    9  A    between atoms: C_15  and  C_16
REMARK   10  A    between atoms: C_23  and  O_24
REMARK                            x       y       z     vdW  Elec       q    Type
REMARK                         _______ _______ _______ _____ _____    ______ ____
ROOT
ATOM      1  C   UNL     1       3.433   3.179  18.591  0.00  0.00    +0.000 C 
ATOM      2  C   UNL     1       3.664   1.975  17.668  0.00  0.00    +0.000 C 
ATOM      3  S   UNL     1       2.590   4.514  17.666  0.00  0.00    +0.000 S 
ATOM      4  C   UNL     1       3.947   5.611  17.759  0.00  0.00    +0.000 C 
ATOM      5  O   UNL     1       3.977   6.699  17.208  0.00  0.00    +0.000 OA
ATOM      6  C   UNL     1       5.051   5.061  18.569  0.00  0.00    +0.000 C 
ATOM      7  C   UNL     1       4.778   3.809  18.970  0.00  0.00    +0.000 C 
ENDROOT
BRANCH   1  10
ATOM      8  C   UNL     1       1.750   3.469  20.623  0.00  0.00    +0.000 C 
ATOM      9  C   UNL     1       1.173   2.657  21.766  0.00  0.00    +0.000 C 
ATOM     10  C   UNL     1       2.667   2.831  19.859  0.00  0.00    +0.000 C 
BRANCH   8  12
ATOM     11  C   UNL     1       1.888   5.962  20.833  0.00  0.00    +0.000 C 
ATOM     12  C   UNL     1       1.302   4.834  20.403  0.00  0.00    +0.000 C 
ENDBRANCH   8  12
ENDBRANCH   1  10
BRANCH   7  13
ATOM     13  O   UNL     1       5.607   3.046  19.770  0.00  0.00    +0.000 OA
ATOM     14  H   UNL     1       6.384   2.753  19.263  0.00  0.00    +0.000 HD
ENDBRANCH   7  13
BRANCH   6  15
ATOM     15  C   UNL     1       6.237   5.931  18.869  0.00  0.00    +0.000 C 
BRANCH  15  16
ATOM     16  C   UNL     1       7.553   5.280  18.443  0.00  0.00    +0.000 C 
BRANCH  16  17
ATOM     17  C   UNL     1       7.408   4.515  17.124  0.00  0.00    +0.000 C 
BRANCH  17  18
ATOM     18  C   UNL     1       7.231   5.487  15.955  0.00  0.00    +0.000 C 
BRANCH  18  19
ATOM     19  C   UNL     1       6.680   4.809  14.725  0.00  0.00    +0.000 A 
ATOM     20  C   UNL     1       5.393   4.255  14.742  0.00  0.00    +0.000 A 
ATOM     21  C   UNL     1       4.879   3.624  13.607  0.00  0.00    +0.000 A 
ATOM     22  C   UNL     1       5.652   3.542  12.452  0.00  0.00    +0.000 A 
ATOM     23 CL   UNL     1       5.020   2.762  11.055  0.00  0.00    +0.000 Cl
ATOM     24  C   UNL     1       6.934   4.086  12.422  0.00  0.00    +0.000 A 
ATOM     25  C   UNL     1       7.448   4.716  13.557  0.00  0.00    +0.000 A 
ENDBRANCH  18  19
ENDBRANCH  17  18
ENDBRANCH  16  17
ENDBRANCH  15  16
ENDBRANCH   6  15
TORSDOF 8
ENDMDL
MODEL 6
REMARK VINA RESULT:      -7.4      1.894      2.234
REMARK  Name = 
REMARK  10 active torsions:
REMARK  status: ('A' for Active; 'I' for Inactive)
REMARK    1  A    between atoms: C_2  and  C_3
REMARK    2  A    between atoms: C_3  and  C_4
REMARK    3  A    between atoms: C_5  and  C_6
REMARK    4  A    between atoms: C_6  and  C_7
REMARK    5  A    between atoms: C_11  and  C_12
REMARK    6  A    between atoms: C_12  and  C_13
REMARK    7  A    between atoms: C_13  and  C_14
REMARK    8  A    between atoms: C_14  and  C_15
REMARK    9  A    between atoms: C_15  and  C_16
REMARK   10  A    between atoms: C_23  and  O_24
REMARK                            x       y       z     vdW  Elec       q    Type
REMARK                         _______ _______ _______ _____ _____    ______ ____
ROOT
ATOM      1  C   UNL     1       3.552   4.428  18.039  0.00  0.00    +0.000 C 
ATOM      2  C   UNL     1       3.059   3.537  16.890  0.00  0.00    +0.000 C 
ATOM      3  S   UNL     1       2.507   5.926  18.152  0.00  0.00    +0.000 S 
ATOM      4  C   UNL     1       3.799   7.016  17.704  0.00  0.00    +0.000 C 
ATOM      5  O   UNL     1       3.644   8.214  17.534  0.00  0.00    +0.000 OA
ATOM      6  C   UNL     1       5.087   6.315  17.547  0.00  0.00    +0.000 C 
ATOM      7  C   UNL     1       4.938   4.989  17.703  0.00  0.00    +0.000 C 
ENDROOT
BRANCH   1  10
ATOM      8  C   UNL     1       2.694   3.162  20.209  0.00  0.00    +0.000 C 
ATOM      9  C   UNL     1       3.255   2.437  21.416  0.00  0.00    +0.000 C 
ATOM     10  C   UNL     1       3.613   3.708  19.379  0.00  0.00    +0.000 C 
BRANCH   8  12
ATOM     11  C   UNL     1       0.520   2.477  19.169  0.00  0.00    +0.000 C 
ATOM     12  C   UNL     1       1.257   3.227  20.002  0.00  0.00    +0.000 C 
ENDBRANCH   8  12
ENDBRANCH   1  10
BRANCH   7  13
ATOM     13  O   UNL     1       5.971   4.074  17.645  0.00  0.00    +0.000 OA
ATOM     14  H   UNL     1       6.221   3.910  16.719  0.00  0.00    +0.000 HD
ENDBRANCH   7  13
BRANCH   6  15
ATOM     15  C   UNL     1       6.330   7.122  17.303  0.00  0.00    +0.000 C 
BRANCH  15  16
ATOM     16  C   UNL     1       7.537   6.565  18.059  0.00  0.00    +0.000 C 
BRANCH  16  17
ATOM     17  C   UNL     1       8.378   7.679  18.688  0.00  0.00    +0.000 C 
BRANCH  17  18
ATOM     18  C   UNL     1       8.082   9.022  18.015  0.00  0.00    +0.000 C 
BRANCH  18  19
ATOM     19  C   UNL     1       9.008  10.115  18.486  0.00  0.00    +0.000 A 
ATOM     20  C   UNL     1       9.748  10.861  17.557  0.00  0.00    +0.000 A 
ATOM     21  C   UNL     1      10.609  11.873  17.987  0.00  0.00    +0.000 A 
ATOM     22  C   UNL     1      10.737  12.140  19.347  0.00  0.00    +0.000 A 
ATOM     23 CL   UNL     1      11.800  13.385  19.877  0.00  0.00    +0.000 Cl
ATOM     24  C   UNL     1      10.009  11.406  20.281  0.00  0.00    +0.000 A 
ATOM     25  C   UNL     1       9.149  10.393  19.852  0.00  0.00    +0.000 A 
ENDBRANCH  18  19
ENDBRANCH  17  18
ENDBRANCH  16  17
ENDBRANCH  15  16
ENDBRANCH   6  15
TORSDOF 8
ENDMDL
MODEL 7
REMARK VINA RESULT:      -7.3      5.557      7.852
REMARK  Name = 
REMARK  10 active torsions:
REMARK  status: ('A' for Active; 'I' for Inactive)
REMARK    1  A    between atoms: C_2  and  C_3
REMARK    2  A    between atoms: C_3  and  C_4
REMARK    3  A    between atoms: C_5  and  C_6
REMARK    4  A    between atoms: C_6  and  C_7
REMARK    5  A    between atoms: C_11  and  C_12
REMARK    6  A    between atoms: C_12  and  C_13
REMARK    7  A    between atoms: C_13  and  C_14
REMARK    8  A    between atoms: C_14  and  C_15
REMARK    9  A    between atoms: C_15  and  C_16
REMARK   10  A    between atoms: C_23  and  O_24
REMARK                            x       y       z     vdW  Elec       q    Type
REMARK                         _______ _______ _______ _____ _____    ______ ____
ROOT
ATOM      1  C   UNL     1       5.592   4.792  16.400  0.00  0.00    +0.000 C 
ATOM      2  C   UNL     1       6.911   4.498  17.128  0.00  0.00    +0.000 C 
ATOM      3  S   UNL     1       5.303   6.599  16.352  0.00  0.00    +0.000 S 
ATOM      4  C   UNL     1       3.891   6.528  17.380  0.00  0.00    +0.000 C 
ATOM      5  O   UNL     1       3.291   7.515  17.773  0.00  0.00    +0.000 OA
ATOM      6  C   UNL     1       3.521   5.141  17.722  0.00  0.00    +0.000 C 
ATOM      7  C   UNL     1       4.414   4.268  17.228  0.00  0.00    +0.000 C 
ENDROOT
BRANCH   1  10
ATOM      8  C   UNL     1       6.322   4.248  13.906  0.00  0.00    +0.000 C 
ATOM      9  C   UNL     1       5.888   3.378  12.744  0.00  0.00    +0.000 C 
ATOM     10  C   UNL     1       5.528   4.196  15.001  0.00  0.00    +0.000 C 
BRANCH   8  12
ATOM     11  C   UNL     1       8.070   5.562  12.684  0.00  0.00    +0.000 C 
ATOM     12  C   UNL     1       7.525   5.056  13.800  0.00  0.00    +0.000 C 
ENDBRANCH   8  12
ENDBRANCH   1  10
BRANCH   7  13
ATOM     13  O   UNL     1       4.319   2.896  17.357  0.00  0.00    +0.000 OA
ATOM     14  H   UNL     1       3.517   2.661  17.853  0.00  0.00    +0.000 HD
ENDBRANCH   7  13
BRANCH   6  15
ATOM     15  C   UNL     1       2.250   4.893  18.481  0.00  0.00    +0.000 C 
BRANCH  15  16
ATOM     16  C   UNL     1       2.418   5.133  19.982  0.00  0.00    +0.000 C 
BRANCH  16  17
ATOM     17  C   UNL     1       1.383   6.126  20.519  0.00  0.00    +0.000 C 
BRANCH  17  18
ATOM     18  C   UNL     1       2.066   7.415  20.985  0.00  0.00    +0.000 C 
BRANCH  18  19
ATOM     19  C   UNL     1       1.127   8.595  20.977  0.00  0.00    +0.000 A 
ATOM     20  C   UNL     1       0.503   9.009  22.163  0.00  0.00    +0.000 A 
ATOM     21  C   UNL     1      -0.369  10.099  22.162  0.00  0.00    +0.000 A 
ATOM     22  C   UNL     1      -0.624  10.779  20.975  0.00  0.00    +0.000 A 
ATOM     23 CL   UNL     1      -1.701  12.121  20.972  0.00  0.00    +0.000 Cl
ATOM     24  C   UNL     1      -0.014  10.378  19.788  0.00  0.00    +0.000 A 
ATOM     25  C   UNL     1       0.857   9.287  19.789  0.00  0.00    +0.000 A 
ENDBRANCH  18  19
ENDBRANCH  17  18
ENDBRANCH  16  17
ENDBRANCH  15  16
ENDBRANCH   6  15
TORSDOF 8
ENDMDL
MODEL 8
REMARK VINA RESULT:      -7.3      5.519      7.273
REMARK  Name = 
REMARK  10 active torsions:
REMARK  status: ('A' for Active; 'I' for Inactive)
REMARK    1  A    between atoms: C_2  and  C_3
REMARK    2  A    between atoms: C_3  and  C_4
REMARK    3  A    between atoms: C_5  and  C_6
REMARK    4  A    between atoms: C_6  and  C_7
REMARK    5  A    between atoms: C_11  and  C_12
REMARK    6  A    between atoms: C_12  and  C_13
REMARK    7  A    between atoms: C_13  and  C_14
REMARK    8  A    between atoms: C_14  and  C_15
REMARK    9  A    between atoms: C_15  and  C_16
REMARK   10  A    between atoms: C_23  and  O_24
REMARK                            x       y       z     vdW  Elec       q    Type
REMARK                         _______ _______ _______ _____ _____    ______ ____
ROOT
ATOM      1  C   UNL     1       3.977   4.335  18.356  0.00  0.00    +0.000 C 
ATOM      2  C   UNL     1       5.058   3.831  19.323  0.00  0.00    +0.000 C 
ATOM      3  S   UNL     1       4.677   4.486  16.672  0.00  0.00    +0.000 S 
ATOM      4  C   UNL     1       4.520   6.227  16.624  0.00  0.00    +0.000 C 
ATOM      5  O   UNL     1       4.928   6.917  15.706  0.00  0.00    +0.000 OA
ATOM      6  C   UNL     1       3.848   6.756  17.826  0.00  0.00    +0.000 C 
ATOM      7  C   UNL     1       3.596   5.777  18.709  0.00  0.00    +0.000 C 
ENDROOT
BRANCH   1  10
ATOM      8  C   UNL     1       1.908   2.969  19.302  0.00  0.00    +0.000 C 
ATOM      9  C   UNL     1       0.684   2.233  18.794  0.00  0.00    +0.000 C 
ATOM     10  C   UNL     1       2.724   3.472  18.347  0.00  0.00    +0.000 C 
BRANCH   8  12
ATOM     11  C   UNL     1       1.481   2.475  21.721  0.00  0.00    +0.000 C 
ATOM     12  C   UNL     1       2.134   3.102  20.732  0.00  0.00    +0.000 C 
ENDBRANCH   8  12
ENDBRANCH   1  10
BRANCH   7  13
ATOM     13  O   UNL     1       2.947   5.959  19.915  0.00  0.00    +0.000 OA
ATOM     14  H   UNL     1       2.037   6.267  19.763  0.00  0.00    +0.000 HD
ENDBRANCH   7  13
BRANCH   6  15
ATOM     15  C   UNL     1       3.505   8.217  17.884  0.00  0.00    +0.000 C 
BRANCH  15  16
ATOM     16  C   UNL     1       2.016   8.470  17.647  0.00  0.00    +0.000 C 
BRANCH  16  17
ATOM     17  C   UNL     1       1.457   9.524  18.607  0.00  0.00    +0.000 C 
BRANCH  17  18
ATOM     18  C   UNL     1       1.256   8.927  20.003  0.00  0.00    +0.000 C 
BRANCH  18  19
ATOM     19  C   UNL     1       0.338   9.764  20.857  0.00  0.00    +0.000 A 
ATOM     20  C   UNL     1      -0.306  10.885  20.312  0.00  0.00    +0.000 A 
ATOM     21  C   UNL     1      -1.156  11.665  21.098  0.00  0.00    +0.000 A 
ATOM     22  C   UNL     1      -1.362  11.332  22.434  0.00  0.00    +0.000 A 
ATOM     23 CL   UNL     1      -2.407  12.295  23.404  0.00  0.00    +0.000 Cl
ATOM     24  C   UNL     1      -0.727  10.223  22.990  0.00  0.00    +0.000 A 
ATOM     25  C   UNL     1       0.123   9.443  22.203  0.00  0.00    +0.000 A 
ENDBRANCH  18  19
ENDBRANCH  17  18
ENDBRANCH  16  17
ENDBRANCH  15  16
ENDBRANCH   6  15
TORSDOF 8
ENDMDL
MODEL 9
REMARK VINA RESULT:      -7.3      1.562      1.980
REMARK  Name = 
REMARK  10 active torsions:
REMARK  status: ('A' for Active; 'I' for Inactive)
REMARK    1  A    between atoms: C_2  and  C_3
REMARK    2  A    between atoms: C_3  and  C_4
REMARK    3  A    between atoms: C_5  and  C_6
REMARK    4  A    between atoms: C_6  and  C_7
REMARK    5  A    between atoms: C_11  and  C_12
REMARK    6  A    between atoms: C_12  and  C_13
REMARK    7  A    between atoms: C_13  and  C_14
REMARK    8  A    between atoms: C_14  and  C_15
REMARK    9  A    between atoms: C_15  and  C_16
REMARK   10  A    between atoms: C_23  and  O_24
REMARK                            x       y       z     vdW  Elec       q    Type
REMARK                         _______ _______ _______ _____ _____    ______ ____
ROOT
ATOM      1  C   UNL     1       4.367   4.586  17.723  0.00  0.00    +0.000 C 
ATOM      2  C   UNL     1       3.793   3.276  18.279  0.00  0.00    +0.000 C 
ATOM      3  S   UNL     1       5.071   4.297  16.059  0.00  0.00    +0.000 S 
ATOM      4  C   UNL     1       6.715   4.622  16.557  0.00  0.00    +0.000 C 
ATOM      5  O   UNL     1       7.681   4.495  15.825  0.00  0.00    +0.000 OA
ATOM      6  C   UNL     1       6.792   5.056  17.966  0.00  0.00    +0.000 C 
ATOM      7  C   UNL     1       5.584   5.012  18.551  0.00  0.00    +0.000 C 
ENDROOT
BRANCH   1  10
ATOM      8  C   UNL     1       2.511   6.269  18.599  0.00  0.00    +0.000 C 
ATOM      9  C   UNL     1       1.754   7.495  18.128  0.00  0.00    +0.000 C 
ATOM     10  C   UNL     1       3.357   5.724  17.694  0.00  0.00    +0.000 C 
BRANCH   8  12
ATOM     11  C   UNL     1       1.255   5.075  20.408  0.00  0.00    +0.000 C 
ATOM     12  C   UNL     1       2.310   5.764  19.947  0.00  0.00    +0.000 C 
ENDBRANCH   8  12
ENDBRANCH   1  10
BRANCH   7  13
ATOM     13  O   UNL     1       5.334   5.390  19.856  0.00  0.00    +0.000 OA
ATOM     14  H   UNL     1       5.018   6.310  19.884  0.00  0.00    +0.000 HD
ENDBRANCH   7  13
BRANCH   6  15
ATOM     15  C   UNL     1       8.113   5.512  18.515  0.00  0.00    +0.000 C 
BRANCH  15  16
ATOM     16  C   UNL     1       8.115   7.004  18.847  0.00  0.00    +0.000 C 
BRANCH  16  17
ATOM     17  C   UNL     1       8.162   7.869  17.583  0.00  0.00    +0.000 C 
BRANCH  17  18
ATOM     18  C   UNL     1       7.735   9.305  17.898  0.00  0.00    +0.000 C 
BRANCH  18  19
ATOM     19  C   UNL     1       8.888  10.155  18.371  0.00  0.00    +0.000 A 
ATOM     20  C   UNL     1       9.194  10.232  19.737  0.00  0.00    +0.000 A 
ATOM     21  C   UNL     1      10.260  11.018  20.180  0.00  0.00    +0.000 A 
ATOM     22  C   UNL     1      11.020  11.734  19.260  0.00  0.00    +0.000 A 
ATOM     23 CL   UNL     1      12.331  12.706  19.806  0.00  0.00    +0.000 Cl
ATOM     24  C   UNL     1      10.726  11.669  17.900  0.00  0.00    +0.000 A 
ATOM     25  C   UNL     1       9.660  10.883  17.456  0.00  0.00    +0.000 A 
ENDBRANCH  18  19
ENDBRANCH  17  18
ENDBRANCH  16  17
ENDBRANCH  15  16
ENDBRANCH   6  15
TORSDOF 8
ENDMDL
