MODEL 1
REMARK VINA RESULT:      -5.0      0.000      0.000
REMARK  Name = 
REMARK  3 active torsions:
REMARK  status: ('A' for Active; 'I' for Inactive)
REMARK    1  A    between atoms: C_1  and  C_2
REMARK    2  A    between atoms: C_2  and  C_3
REMARK    3  A    between atoms: C_3  and  C_4
REMARK                            x       y       z     vdW  Elec       q    Type
REMARK                         _______ _______ _______ _____ _____    ______ ____
ROOT
ATOM      1  C   UNL     1       2.157   5.185  18.718  0.00  0.00    +0.000 A 
ATOM      2  C   UNL     1       1.782   4.105  17.907  0.00  0.00    +0.000 A 
ATOM      3  C   UNL     1       1.143   2.991  18.457  0.00  0.00    +0.000 A 
ATOM      4  C   UNL     1       0.883   2.941  19.825  0.00  0.00    +0.000 A 
ATOM      5  C   UNL     1       1.271   3.995  20.644  0.00  0.00    +0.000 A 
ATOM      6  C   UNL     1       1.908   5.111  20.095  0.00  0.00    +0.000 A 
ENDROOT
BRANCH   1   7
ATOM      7  C   UNL     1       2.806   6.421  18.144  0.00  0.00    +0.000 C 
BRANCH   7   9
ATOM      8  C   UNL     1       2.090   8.841  17.776  0.00  0.00    +0.000 C 
ATOM      9  C   UNL     1       2.349   7.734  18.789  0.00  0.00    +0.000 C 
ENDBRANCH   7   9
ENDBRANCH   1   7
TORSDOF 2
ENDMDL
MODEL 2
REMARK VINA RESULT:      -4.9      0.732      1.705
REMARK  Name = 
REMARK  3 active torsions:
REMARK  status: ('A' for Active; 'I' for Inactive)
REMARK    1  A    between atoms: C_1  and  C_2
REMARK    2  A    between atoms: C_2  and  C_3
REMARK    3  A    between atoms: C_3  and  C_4
REMARK                            x       y       z     vdW  Elec       q    Type
REMARK                         _______ _______ _______ _____ _____    ______ ____
ROOT
ATOM      1  C   UNL     1       2.020   5.381  19.397  0.00  0.00    +0.000 A 
ATOM      2  C   UNL     1       1.536   4.760  20.556  0.00  0.00    +0.000 A 
ATOM      3  C   UNL     1       1.037   3.457  20.509  0.00  0.00    +0.000 A 
ATOM      4  C   UNL     1       1.005   2.765  19.299  0.00  0.00    +0.000 A 
ATOM      5  C   UNL     1       1.460   3.379  18.137  0.00  0.00    +0.000 A 
ATOM      6  C   UNL     1       1.962   4.681  18.184  0.00  0.00    +0.000 A 
ENDROOT
BRANCH   1   7
ATOM      7  C   UNL     1       2.608   6.772  19.427  0.00  0.00    +0.000 C 
BRANCH   7   9
ATOM      8  C   UNL     1       2.147   8.675  17.792  0.00  0.00    +0.000 C 
ATOM      9  C   UNL     1       2.891   7.370  18.044  0.00  0.00    +0.000 C 
ENDBRANCH   7   9
ENDBRANCH   1   7
TORSDOF 2
ENDMDL
MODEL 3
REMARK VINA RESULT:      -4.8      1.514      4.037
REMARK  Name = 
REMARK  3 active torsions:
REMARK  status: ('A' for Active; 'I' for Inactive)
REMARK    1  A    between atoms: C_1  and  C_2
REMARK    2  A    between atoms: C_2  and  C_3
REMARK    3  A    between atoms: C_3  and  C_4
REMARK                            x       y       z     vdW  Elec       q    Type
REMARK                         _______ _______ _______ _____ _____    ______ ____
ROOT
ATOM      1  C   UNL     1       2.255   4.005  18.150  0.00  0.00    +0.000 A 
ATOM      2  C   UNL     1       3.177   3.339  17.331  0.00  0.00    +0.000 A 
ATOM      3  C   UNL     1       4.261   4.024  16.777  0.00  0.00    +0.000 A 
ATOM      4  C   UNL     1       4.428   5.385  17.027  0.00  0.00    +0.000 A 
ATOM      5  C   UNL     1       3.507   6.063  17.819  0.00  0.00    +0.000 A 
ATOM      6  C   UNL     1       2.424   5.378  18.376  0.00  0.00    +0.000 A 
ENDROOT
BRANCH   1   7
ATOM      7  C   UNL     1       1.101   3.280  18.799  0.00  0.00    +0.000 C 
BRANCH   7   9
ATOM      8  C   UNL     1       1.621   2.907  21.269  0.00  0.00    +0.000 C 
ATOM      9  C   UNL     1       0.821   3.703  20.246  0.00  0.00    +0.000 C 
ENDBRANCH   7   9
ENDBRANCH   1   7
TORSDOF 2
ENDMDL
MODEL 4
REMARK VINA RESULT:      -4.8      1.053      1.693
REMARK  Name = 
REMARK  3 active torsions:
REMARK  status: ('A' for Active; 'I' for Inactive)
REMARK    1  A    between atoms: C_1  and  C_2
REMARK    2  A    between atoms: C_2  and  C_3
REMARK    3  A    between atoms: C_3  and  C_4
REMARK                            x       y       z     vdW  Elec       q    Type
REMARK                         _______ _______ _______ _____ _____    ______ ____
ROOT
ATOM      1  C   UNL     1       2.206   5.172  18.662  0.00  0.00    +0.000 A 
ATOM      2  C   UNL     1       1.795   4.068  17.903  0.00  0.00    +0.000 A 
ATOM      3  C   UNL     1       1.130   2.998  18.506  0.00  0.00    +0.000 A 
ATOM      4  C   UNL     1       0.880   3.016  19.877  0.00  0.00    +0.000 A 
ATOM      5  C   UNL     1       1.304   4.095  20.646  0.00  0.00    +0.000 A 
ATOM      6  C   UNL     1       1.966   5.167  20.042  0.00  0.00    +0.000 A 
ENDROOT
BRANCH   1   7
ATOM      7  C   UNL     1       2.885   6.363  18.028  0.00  0.00    +0.000 C 
BRANCH   7   9
ATOM      8  C   UNL     1       4.857   5.813  16.506  0.00  0.00    +0.000 C 
ATOM      9  C   UNL     1       4.407   6.229  17.900  0.00  0.00    +0.000 C 
ENDBRANCH   7   9
ENDBRANCH   1   7
TORSDOF 2
ENDMDL
MODEL 5
REMARK VINA RESULT:      -4.8      1.027      2.421
REMARK  Name = 
REMARK  3 active torsions:
REMARK  status: ('A' for Active; 'I' for Inactive)
REMARK    1  A    between atoms: C_1  and  C_2
REMARK    2  A    between atoms: C_2  and  C_3
REMARK    3  A    between atoms: C_3  and  C_4
REMARK                            x       y       z     vdW  Elec       q    Type
REMARK                         _______ _______ _______ _____ _____    ______ ____
ROOT
ATOM      1  C   UNL     1       2.167   5.204  18.794  0.00  0.00    +0.000 A 
ATOM      2  C   UNL     1       1.882   5.106  20.163  0.00  0.00    +0.000 A 
ATOM      3  C   UNL     1       1.258   3.968  20.680  0.00  0.00    +0.000 A 
ATOM      4  C   UNL     1       0.904   2.920  19.831  0.00  0.00    +0.000 A 
ATOM      5  C   UNL     1       1.160   3.016  18.467  0.00  0.00    +0.000 A 
ATOM      6  C   UNL     1       1.786   4.153  17.950  0.00  0.00    +0.000 A 
ENDROOT
BRANCH   1   7
ATOM      7  C   UNL     1       2.882   6.402  18.217  0.00  0.00    +0.000 C 
BRANCH   7   9
ATOM      8  C   UNL     1       5.233   5.498  18.621  0.00  0.00    +0.000 C 
ATOM      9  C   UNL     1       4.256   6.089  17.613  0.00  0.00    +0.000 C 
ENDBRANCH   7   9
ENDBRANCH   1   7
TORSDOF 2
ENDMDL
MODEL 6
REMARK VINA RESULT:      -4.8      1.521      4.273
REMARK  Name = 
REMARK  3 active torsions:
REMARK  status: ('A' for Active; 'I' for Inactive)
REMARK    1  A    between atoms: C_1  and  C_2
REMARK    2  A    between atoms: C_2  and  C_3
REMARK    3  A    between atoms: C_3  and  C_4
REMARK                            x       y       z     vdW  Elec       q    Type
REMARK                         _______ _______ _______ _____ _____    ______ ____
ROOT
ATOM      1  C   UNL     1       2.311   4.041  18.228  0.00  0.00    +0.000 A 
ATOM      2  C   UNL     1       2.489   5.417  18.426  0.00  0.00    +0.000 A 
ATOM      3  C   UNL     1       3.549   6.093  17.817  0.00  0.00    +0.000 A 
ATOM      4  C   UNL     1       4.450   5.396  17.013  0.00  0.00    +0.000 A 
ATOM      5  C   UNL     1       4.299   4.026  16.828  0.00  0.00    +0.000 A 
ATOM      6  C   UNL     1       3.237   3.351  17.435  0.00  0.00    +0.000 A 
ENDROOT
BRANCH   1   7
ATOM      7  C   UNL     1       1.148   3.295  18.837  0.00  0.00    +0.000 C 
BRANCH   7   9
ATOM      8  C   UNL     1       1.624   2.883  21.308  0.00  0.00    +0.000 C 
ATOM      9  C   UNL     1       0.833   3.687  20.285  0.00  0.00    +0.000 C 
ENDBRANCH   7   9
ENDBRANCH   1   7
TORSDOF 2
ENDMDL
MODEL 7
REMARK VINA RESULT:      -4.7      0.790      1.041
REMARK  Name = 
REMARK  3 active torsions:
REMARK  status: ('A' for Active; 'I' for Inactive)
REMARK    1  A    between atoms: C_1  and  C_2
REMARK    2  A    between atoms: C_2  and  C_3
REMARK    3  A    between atoms: C_3  and  C_4
REMARK                            x       y       z     vdW  Elec       q    Type
REMARK                         _______ _______ _______ _____ _____    ______ ____
ROOT
ATOM      1  C   UNL     1       2.334   4.651  18.848  0.00  0.00    +0.000 A 
ATOM      2  C   UNL     1       1.410   3.632  18.579  0.00  0.00    +0.000 A 
ATOM      3  C   UNL     1       0.846   2.890  19.620  0.00  0.00    +0.000 A 
ATOM      4  C   UNL     1       1.209   3.152  20.940  0.00  0.00    +0.000 A 
ATOM      5  C   UNL     1       2.143   4.144  21.218  0.00  0.00    +0.000 A 
ATOM      6  C   UNL     1       2.705   4.889  20.179  0.00  0.00    +0.000 A 
ENDROOT
BRANCH   1   7
ATOM      7  C   UNL     1       2.923   5.499  17.747  0.00  0.00    +0.000 C 
BRANCH   7   9
ATOM      8  C   UNL     1       2.206   7.927  18.059  0.00  0.00    +0.000 C 
ATOM      9  C   UNL     1       3.333   6.910  18.185  0.00  0.00    +0.000 C 
ENDBRANCH   7   9
ENDBRANCH   1   7
TORSDOF 2
ENDMDL
MODEL 8
REMARK VINA RESULT:      -4.7      6.953      8.457
REMARK  Name = 
REMARK  3 active torsions:
REMARK  status: ('A' for Active; 'I' for Inactive)
REMARK    1  A    between atoms: C_1  and  C_2
REMARK    2  A    between atoms: C_2  and  C_3
REMARK    3  A    between atoms: C_3  and  C_4
REMARK                            x       y       z     vdW  Elec       q    Type
REMARK                         _______ _______ _______ _____ _____    ______ ____
ROOT
ATOM      1  C   UNL     1       5.807   3.536  12.316  0.00  0.00    +0.000 A 
ATOM      2  C   UNL     1       5.409   3.719  13.647  0.00  0.00    +0.000 A 
ATOM      3  C   UNL     1       6.162   4.516  14.512  0.00  0.00    +0.000 A 
ATOM      4  C   UNL     1       7.328   5.130  14.057  0.00  0.00    +0.000 A 
ATOM      5  C   UNL     1       7.746   4.937  12.745  0.00  0.00    +0.000 A 
ATOM      6  C   UNL     1       6.992   4.143  11.879  0.00  0.00    +0.000 A 
ENDROOT
BRANCH   1   7
ATOM      7  C   UNL     1       4.987   2.718  11.348  0.00  0.00    +0.000 C 
BRANCH   7   9
ATOM      8  C   UNL     1       3.277   3.890   9.861  0.00  0.00    +0.000 C 
ATOM      9  C   UNL     1       3.537   3.190  11.188  0.00  0.00    +0.000 C 
ENDBRANCH   7   9
ENDBRANCH   1   7
TORSDOF 2
ENDMDL
MODEL 9
REMARK VINA RESULT:      -4.7      6.915      8.329
REMARK  Name = 
REMARK  3 active torsions:
REMARK  status: ('A' for Active; 'I' for Inactive)
REMARK    1  A    between atoms: C_1  and  C_2
REMARK    2  A    between atoms: C_2  and  C_3
REMARK    3  A    between atoms: C_3  and  C_4
REMARK                            x       y       z     vdW  Elec       q    Type
REMARK                         _______ _______ _______ _____ _____    ______ ____
ROOT
ATOM      1  C   UNL     1       5.787   3.545  12.301  0.00  0.00    +0.000 A 
ATOM      2  C   UNL     1       6.991   4.164  11.936  0.00  0.00    +0.000 A 
ATOM      3  C   UNL     1       7.715   4.915  12.865  0.00  0.00    +0.000 A 
ATOM      4  C   UNL     1       7.237   5.065  14.165  0.00  0.00    +0.000 A 
ATOM      5  C   UNL     1       6.032   4.477  14.533  0.00  0.00    +0.000 A 
ATOM      6  C   UNL     1       5.309   3.723  13.606  0.00  0.00    +0.000 A 
ENDROOT
BRANCH   1   7
ATOM      7  C   UNL     1       5.008   2.690  11.332  0.00  0.00    +0.000 C 
BRANCH   7   9
ATOM      8  C   UNL     1       3.302   3.944   9.910  0.00  0.00    +0.000 C 
ATOM      9  C   UNL     1       3.543   3.104  11.157  0.00  0.00    +0.000 C 
ENDBRANCH   7   9
ENDBRANCH   1   7
TORSDOF 2
ENDMDL
