MODEL 1
REMARK VINA RESULT:      -7.0      0.000      0.000
REMARK  Name = 
REMARK  11 active torsions:
REMARK  status: ('A' for Active; 'I' for Inactive)
REMARK    1  A    between atoms: C_1  and  O_2
REMARK    2  A    between atoms: O_2  and  C_3
REMARK    3  A    between atoms: C_13  and  O_14
REMARK    4  A    between atoms: O_14  and  C_15
REMARK    5  A    between atoms: N_18  and  C_19
REMARK    6  A    between atoms: C_19  and  C_20
REMARK    7  A    between atoms: C_20  and  N_21
REMARK    8  A    between atoms: C_22  and  C_23
REMARK    9  A    between atoms: C_22  and  C_24
REMARK   10  A    between atoms: C_28  and  C_29
REMARK   11  A    between atoms: C_28  and  C_30
REMARK                            x       y       z     vdW  Elec       q    Type
REMARK                         _______ _______ _______ _____ _____    ______ ____
ROOT
ATOM      1  C   UNL     1       2.464   6.107  19.718  0.00  0.00    +0.000 A 
ATOM      2  C   UNL     1       1.793   6.601  20.843  0.00  0.00    +0.000 A 
ATOM      3  C   UNL     1       1.293   7.901  20.845  0.00  0.00    +0.000 A 
ATOM      4  O   UNL     1       0.604   8.285  22.006  0.00  0.00    +0.000 OA
ATOM      5  C   UNL     1       0.015   9.532  22.113  0.00  0.00    +0.000 A 
ATOM      6  O   UNL     1      -0.619   9.856  23.109  0.00  0.00    +0.000 OA
ATOM      7  C   UNL     1       0.218  10.455  20.975  0.00  0.00    +0.000 A 
ATOM      8  C   UNL     1       0.916  10.113  19.873  0.00  0.00    +0.000 A 
ATOM      9  C   UNL     1       1.455   8.758  19.767  0.00  0.00    +0.000 A 
ATOM     10  C   UNL     1       2.123   8.262  18.645  0.00  0.00    +0.000 A 
ATOM     11  C   UNL     1       2.637   6.951  18.608  0.00  0.00    +0.000 A 
ATOM     12  C   UNL     1       1.129  11.105  18.753  0.00  0.00    +0.000 C 
ATOM     13  C   UNL     1       0.594  12.512  19.091  0.00  0.00    +0.000 C 
ATOM     14  N   UNL     1      -0.675  12.496  19.847  0.00  0.00    +0.000 NA
ATOM     15  C   UNL     1      -0.448  11.793  21.124  0.00  0.00    +0.000 C 
ENDROOT
BRANCH   1  17
ATOM     16  C   UNL     1       2.514   3.945  20.697  0.00  0.00    +0.000 C 
ATOM     17  O   UNL     1       2.983   4.843  19.694  0.00  0.00    +0.000 OA
ENDBRANCH   1  17
BRANCH  11  18
ATOM     18  O   UNL     1       3.260   6.679  17.418  0.00  0.00    +0.000 OA
ATOM     19  C   UNL     1       4.666   6.846  17.325  0.00  0.00    +0.000 C 
ENDBRANCH  11  18
BRANCH  14  20
ATOM     20  C   UNL     1      -1.758  11.901  19.027  0.00  0.00    +0.000 C 
BRANCH  20  21
ATOM     21  C   UNL     1      -3.118  12.638  19.060  0.00  0.00    +0.000 C 
BRANCH  21  22
ATOM     22  N   UNL     1      -4.332  11.853  19.431  0.00  0.00    +0.000 NA
ATOM     23  C   UNL     1      -5.061  11.203  18.289  0.00  0.00    +0.000 C 
ATOM     24  C   UNL     1      -4.289   9.971  17.728  0.00  0.00    +0.000 C 
ATOM     25  C   UNL     1      -5.327  12.158  17.104  0.00  0.00    +0.000 C 
ATOM     26  C   UNL     1      -6.405  10.561  18.735  0.00  0.00    +0.000 C 
ATOM     27  C   UNL     1      -7.280  11.468  19.564  0.00  0.00    +0.000 C 
ATOM     28  C   UNL     1      -6.490  11.872  20.788  0.00  0.00    +0.000 C 
ATOM     29  C   UNL     1      -5.171  12.606  20.440  0.00  0.00    +0.000 C 
ATOM     30  C   UNL     1      -4.419  12.701  21.802  0.00  0.00    +0.000 C 
ATOM     31  C   UNL     1      -5.514  14.060  20.025  0.00  0.00    +0.000 C 
ENDBRANCH  21  22
ENDBRANCH  20  21
ENDBRANCH  14  20
TORSDOF 5
ENDMDL
MODEL 2
REMARK VINA RESULT:      -6.8      6.418     10.898
REMARK  Name = 
REMARK  11 active torsions:
REMARK  status: ('A' for Active; 'I' for Inactive)
REMARK    1  A    between atoms: C_1  and  O_2
REMARK    2  A    between atoms: O_2  and  C_3
REMARK    3  A    between atoms: C_13  and  O_14
REMARK    4  A    between atoms: O_14  and  C_15
REMARK    5  A    between atoms: N_18  and  C_19
REMARK    6  A    between atoms: C_19  and  C_20
REMARK    7  A    between atoms: C_20  and  N_21
REMARK    8  A    between atoms: C_22  and  C_23
REMARK    9  A    between atoms: C_22  and  C_24
REMARK   10  A    between atoms: C_28  and  C_29
REMARK   11  A    between atoms: C_28  and  C_30
REMARK                            x       y       z     vdW  Elec       q    Type
REMARK                         _______ _______ _______ _____ _____    ______ ____
ROOT
ATOM      1  C   UNL     1      -0.113  12.816  19.669  0.00  0.00    +0.000 A 
ATOM      2  C   UNL     1       0.213  13.925  18.880  0.00  0.00    +0.000 A 
ATOM      3  C   UNL     1       1.423  14.587  19.068  0.00  0.00    +0.000 A 
ATOM      4  O   UNL     1       1.670  15.662  18.200  0.00  0.00    +0.000 OA
ATOM      5  C   UNL     1       2.857  16.369  18.250  0.00  0.00    +0.000 A 
ATOM      6  O   UNL     1       3.090  17.282  17.468  0.00  0.00    +0.000 OA
ATOM      7  C   UNL     1       3.810  15.979  19.312  0.00  0.00    +0.000 A 
ATOM      8  C   UNL     1       3.566  14.978  20.180  0.00  0.00    +0.000 A 
ATOM      9  C   UNL     1       2.332  14.205  20.043  0.00  0.00    +0.000 A 
ATOM     10  C   UNL     1       2.007  13.096  20.828  0.00  0.00    +0.000 A 
ATOM     11  C   UNL     1       0.793  12.401  20.661  0.00  0.00    +0.000 A 
ATOM     12  C   UNL     1       4.555  14.643  21.273  0.00  0.00    +0.000 C 
ATOM     13  C   UNL     1       5.734  15.635  21.338  0.00  0.00    +0.000 C 
ATOM     14  N   UNL     1       6.205  16.078  20.010  0.00  0.00    +0.000 NA
ATOM     15  C   UNL     1       5.093  16.761  19.323  0.00  0.00    +0.000 C 
ENDROOT
BRANCH   1  17
ATOM     16  C   UNL     1      -1.701  11.861  18.185  0.00  0.00    +0.000 C 
ATOM     17  O   UNL     1      -1.302  12.158  19.521  0.00  0.00    +0.000 OA
ENDBRANCH   1  17
BRANCH  11  18
ATOM     18  O   UNL     1       0.676  11.356  21.540  0.00  0.00    +0.000 OA
ATOM     19  C   UNL     1       0.869  10.033  21.063  0.00  0.00    +0.000 C 
ENDBRANCH  11  18
BRANCH  14  20
ATOM     20  C   UNL     1       6.759  14.932  19.248  0.00  0.00    +0.000 C 
BRANCH  20  21
ATOM     21  C   UNL     1       8.299  14.790  19.257  0.00  0.00    +0.000 C 
BRANCH  21  22
ATOM     22  N   UNL     1       8.877  13.439  19.515  0.00  0.00    +0.000 NA
ATOM     23  C   UNL     1       9.755  13.327  20.729  0.00  0.00    +0.000 C 
ATOM     24  C   UNL     1       8.931  13.358  22.051  0.00  0.00    +0.000 C 
ATOM     25  C   UNL     1      10.820  14.442  20.824  0.00  0.00    +0.000 C 
ATOM     26  C   UNL     1      10.458  11.944  20.825  0.00  0.00    +0.000 C 
ATOM     27  C   UNL     1      11.140  11.505  19.552  0.00  0.00    +0.000 C 
ATOM     28  C   UNL     1      10.091  11.458  18.465  0.00  0.00    +0.000 C 
ATOM     29  C   UNL     1       9.398  12.824  18.234  0.00  0.00    +0.000 C 
ATOM     30  C   UNL     1       8.213  12.491  17.277  0.00  0.00    +0.000 C 
ATOM     31  C   UNL     1      10.365  13.736  17.437  0.00  0.00    +0.000 C 
ENDBRANCH  21  22
ENDBRANCH  20  21
ENDBRANCH  14  20
TORSDOF 5
ENDMDL
MODEL 3
REMARK VINA RESULT:      -6.7      0.797      2.124
REMARK  Name = 
REMARK  11 active torsions:
REMARK  status: ('A' for Active; 'I' for Inactive)
REMARK    1  A    between atoms: C_1  and  O_2
REMARK    2  A    between atoms: O_2  and  C_3
REMARK    3  A    between atoms: C_13  and  O_14
REMARK    4  A    between atoms: O_14  and  C_15
REMARK    5  A    between atoms: N_18  and  C_19
REMARK    6  A    between atoms: C_19  and  C_20
REMARK    7  A    between atoms: C_20  and  N_21
REMARK    8  A    between atoms: C_22  and  C_23
REMARK    9  A    between atoms: C_22  and  C_24
REMARK   10  A    between atoms: C_28  and  C_29
REMARK   11  A    between atoms: C_28  and  C_30
REMARK                            x       y       z     vdW  Elec       q    Type
REMARK                         _______ _______ _______ _____ _____    ______ ____
ROOT
ATOM      1  C   UNL     1       2.408   6.205  19.721  0.00  0.00    +0.000 A 
ATOM      2  C   UNL     1       1.693   6.710  20.815  0.00  0.00    +0.000 A 
ATOM      3  C   UNL     1       1.165   7.997  20.773  0.00  0.00    +0.000 A 
ATOM      4  O   UNL     1       0.433   8.391  21.904  0.00  0.00    +0.000 OA
ATOM      5  C   UNL     1      -0.185   9.626  21.967  0.00  0.00    +0.000 A 
ATOM      6  O   UNL     1      -0.855   9.957  22.937  0.00  0.00    +0.000 OA
ATOM      7  C   UNL     1       0.031  10.528  20.814  0.00  0.00    +0.000 A 
ATOM      8  C   UNL     1       0.767  10.178  19.741  0.00  0.00    +0.000 A 
ATOM      9  C   UNL     1       1.339   8.833  19.682  0.00  0.00    +0.000 A 
ATOM     10  C   UNL     1       2.050   8.329  18.590  0.00  0.00    +0.000 A 
ATOM     11  C   UNL     1       2.594   7.029  18.598  0.00  0.00    +0.000 A 
ATOM     12  C   UNL     1       0.991  11.150  18.606  0.00  0.00    +0.000 C 
ATOM     13  C   UNL     1       0.416  12.552  18.896  0.00  0.00    +0.000 C 
ATOM     14  N   UNL     1      -0.874  12.523  19.616  0.00  0.00    +0.000 NA
ATOM     15  C   UNL     1      -0.669  11.854  20.914  0.00  0.00    +0.000 C 
ENDROOT
BRANCH   1  17
ATOM     16  C   UNL     1       2.087   3.877  19.393  0.00  0.00    +0.000 C 
ATOM     17  O   UNL     1       2.954   4.954  19.741  0.00  0.00    +0.000 OA
ENDBRANCH   1  17
BRANCH  11  18
ATOM     18  O   UNL     1       3.257   6.745  17.432  0.00  0.00    +0.000 OA
ATOM     19  C   UNL     1       4.664   6.925  17.381  0.00  0.00    +0.000 C 
ENDBRANCH  11  18
BRANCH  14  20
ATOM     20  C   UNL     1      -1.919  11.886  18.778  0.00  0.00    +0.000 C 
BRANCH  20  21
ATOM     21  C   UNL     1      -3.297  11.680  19.451  0.00  0.00    +0.000 C 
BRANCH  21  22
ATOM     22  N   UNL     1      -4.338  12.731  19.253  0.00  0.00    +0.000 NA
ATOM     23  C   UNL     1      -4.692  13.534  20.473  0.00  0.00    +0.000 C 
ATOM     24  C   UNL     1      -3.570  14.548  20.851  0.00  0.00    +0.000 C 
ATOM     25  C   UNL     1      -4.971  12.669  21.722  0.00  0.00    +0.000 C 
ATOM     26  C   UNL     1      -5.904  14.477  20.228  0.00  0.00    +0.000 C 
ATOM     27  C   UNL     1      -7.094  13.805  19.589  0.00  0.00    +0.000 C 
ATOM     28  C   UNL     1      -6.637  13.226  18.270  0.00  0.00    +0.000 C 
ATOM     29  C   UNL     1      -5.487  12.199  18.426  0.00  0.00    +0.000 C 
ATOM     30  C   UNL     1      -5.018  11.930  16.963  0.00  0.00    +0.000 C 
ATOM     31  C   UNL     1      -6.087  10.868  18.948  0.00  0.00    +0.000 C 
ENDBRANCH  21  22
ENDBRANCH  20  21
ENDBRANCH  14  20
TORSDOF 5
ENDMDL
MODEL 4
REMARK VINA RESULT:      -6.5      6.774     11.158
REMARK  Name = 
REMARK  11 active torsions:
REMARK  status: ('A' for Active; 'I' for Inactive)
REMARK    1  A    between atoms: C_1  and  O_2
REMARK    2  A    between atoms: O_2  and  C_3
REMARK    3  A    between atoms: C_13  and  O_14
REMARK    4  A    between atoms: O_14  and  C_15
REMARK    5  A    between atoms: N_18  and  C_19
REMARK    6  A    between atoms: C_19  and  C_20
REMARK    7  A    between atoms: C_20  and  N_21
REMARK    8  A    between atoms: C_22  and  C_23
REMARK    9  A    between atoms: C_22  and  C_24
REMARK   10  A    between atoms: C_28  and  C_29
REMARK   11  A    between atoms: C_28  and  C_30
REMARK                            x       y       z     vdW  Elec       q    Type
REMARK                         _______ _______ _______ _____ _____    ______ ____
ROOT
ATOM      1  C   UNL     1       0.086  12.772  19.668  0.00  0.00    +0.000 A 
ATOM      2  C   UNL     1       0.417  13.873  18.867  0.00  0.00    +0.000 A 
ATOM      3  C   UNL     1       1.637  14.522  19.040  0.00  0.00    +0.000 A 
ATOM      4  O   UNL     1       1.887  15.588  18.162  0.00  0.00    +0.000 OA
ATOM      5  C   UNL     1       3.083  16.283  18.196  0.00  0.00    +0.000 A 
ATOM      6  O   UNL     1       3.319  17.188  17.406  0.00  0.00    +0.000 OA
ATOM      7  C   UNL     1       4.041  15.889  19.253  0.00  0.00    +0.000 A 
ATOM      8  C   UNL     1       3.793  14.897  20.131  0.00  0.00    +0.000 A 
ATOM      9  C   UNL     1       2.550  14.137  20.009  0.00  0.00    +0.000 A 
ATOM     10  C   UNL     1       2.219  13.037  20.805  0.00  0.00    +0.000 A 
ATOM     11  C   UNL     1       0.996  12.355  20.654  0.00  0.00    +0.000 A 
ATOM     12  C   UNL     1       4.788  14.559  21.217  0.00  0.00    +0.000 C 
ATOM     13  C   UNL     1       5.978  15.539  21.265  0.00  0.00    +0.000 C 
ATOM     14  N   UNL     1       6.443  15.968  19.929  0.00  0.00    +0.000 NA
ATOM     15  C   UNL     1       5.332  16.657  19.247  0.00  0.00    +0.000 C 
ENDROOT
BRANCH   1  17
ATOM     16  C   UNL     1      -1.631  12.020  18.211  0.00  0.00    +0.000 C 
ATOM     17  O   UNL     1      -1.111  12.127  19.534  0.00  0.00    +0.000 OA
ENDBRANCH   1  17
BRANCH  11  18
ATOM     18  O   UNL     1       0.876  11.317  21.541  0.00  0.00    +0.000 OA
ATOM     19  C   UNL     1       1.082   9.992  21.079  0.00  0.00    +0.000 C 
ENDBRANCH  11  18
BRANCH  14  20
ATOM     20  C   UNL     1       6.977  14.810  19.171  0.00  0.00    +0.000 C 
BRANCH  20  21
ATOM     21  C   UNL     1       8.411  14.362  19.536  0.00  0.00    +0.000 C 
BRANCH  21  22
ATOM     22  N   UNL     1       9.328  13.971  18.425  0.00  0.00    +0.000 NA
ATOM     23  C   UNL     1       9.874  12.573  18.493  0.00  0.00    +0.000 C 
ATOM     24  C   UNL     1       8.794  11.506  18.137  0.00  0.00    +0.000 C 
ATOM     25  C   UNL     1      10.449  12.201  19.878  0.00  0.00    +0.000 C 
ATOM     26  C   UNL     1      10.954  12.306  17.407  0.00  0.00    +0.000 C 
ATOM     27  C   UNL     1      12.028  13.364  17.329  0.00  0.00    +0.000 C 
ATOM     28  C   UNL     1      11.349  14.684  17.044  0.00  0.00    +0.000 C 
ATOM     29  C   UNL     1      10.316  15.078  18.130  0.00  0.00    +0.000 C 
ATOM     30  C   UNL     1       9.578  16.309  17.521  0.00  0.00    +0.000 C 
ATOM     31  C   UNL     1      11.085  15.596  19.373  0.00  0.00    +0.000 C 
ENDBRANCH  21  22
ENDBRANCH  20  21
ENDBRANCH  14  20
TORSDOF 5
ENDMDL
MODEL 5
REMARK VINA RESULT:      -6.5      6.269     10.636
REMARK  Name = 
REMARK  11 active torsions:
REMARK  status: ('A' for Active; 'I' for Inactive)
REMARK    1  A    between atoms: C_1  and  O_2
REMARK    2  A    between atoms: O_2  and  C_3
REMARK    3  A    between atoms: C_13  and  O_14
REMARK    4  A    between atoms: O_14  and  C_15
REMARK    5  A    between atoms: N_18  and  C_19
REMARK    6  A    between atoms: C_19  and  C_20
REMARK    7  A    between atoms: C_20  and  N_21
REMARK    8  A    between atoms: C_22  and  C_23
REMARK    9  A    between atoms: C_22  and  C_24
REMARK   10  A    between atoms: C_28  and  C_29
REMARK   11  A    between atoms: C_28  and  C_30
REMARK                            x       y       z     vdW  Elec       q    Type
REMARK                         _______ _______ _______ _____ _____    ______ ____
ROOT
ATOM      1  C   UNL     1       0.194  11.634  19.595  0.00  0.00    +0.000 A 
ATOM      2  C   UNL     1       0.783  12.418  18.595  0.00  0.00    +0.000 A 
ATOM      3  C   UNL     1       1.807  13.306  18.913  0.00  0.00    +0.000 A 
ATOM      4  O   UNL     1       2.354  14.015  17.832  0.00  0.00    +0.000 OA
ATOM      5  C   UNL     1       3.411  14.891  18.007  0.00  0.00    +0.000 A 
ATOM      6  O   UNL     1       3.915  15.481  17.061  0.00  0.00    +0.000 OA
ATOM      7  C   UNL     1       3.874  15.091  19.398  0.00  0.00    +0.000 A 
ATOM      8  C   UNL     1       3.327  14.450  20.450  0.00  0.00    +0.000 A 
ATOM      9  C   UNL     1       2.264  13.474  20.211  0.00  0.00    +0.000 A 
ATOM     10  C   UNL     1       1.678  12.690  21.207  0.00  0.00    +0.000 A 
ATOM     11  C   UNL     1       0.643  11.779  20.919  0.00  0.00    +0.000 A 
ATOM     12  C   UNL     1       3.810  14.719  21.856  0.00  0.00    +0.000 C 
ATOM     13  C   UNL     1       4.847  15.859  21.926  0.00  0.00    +0.000 C 
ATOM     14  N   UNL     1       5.795  15.863  20.793  0.00  0.00    +0.000 NA
ATOM     15  C   UNL     1       5.031  16.038  19.544  0.00  0.00    +0.000 C 
ENDROOT
BRANCH   1  17
ATOM     16  C   UNL     1      -0.928  10.322  17.966  0.00  0.00    +0.000 C 
ATOM     17  O   UNL     1      -0.825  10.768  19.316  0.00  0.00    +0.000 OA
ENDBRANCH   1  17
BRANCH  11  18
ATOM     18  O   UNL     1       0.210  11.124  22.043  0.00  0.00    +0.000 OA
ATOM     19  C   UNL     1      -0.916  11.631  22.741  0.00  0.00    +0.000 C 
ENDBRANCH  11  18
BRANCH  14  20
ATOM     20  C   UNL     1       6.628  14.635  20.812  0.00  0.00    +0.000 C 
BRANCH  20  21
ATOM     21  C   UNL     1       7.929  14.684  19.976  0.00  0.00    +0.000 C 
BRANCH  21  22
ATOM     22  N   UNL     1       8.721  13.426  19.837  0.00  0.00    +0.000 NA
ATOM     23  C   UNL     1       9.738  13.176  20.914  0.00  0.00    +0.000 C 
ATOM     24  C   UNL     1       9.073  12.750  22.258  0.00  0.00    +0.000 C 
ATOM     25  C   UNL     1      10.636  14.397  21.211  0.00  0.00    +0.000 C 
ATOM     26  C   UNL     1      10.639  11.948  20.602  0.00  0.00    +0.000 C 
ATOM     27  C   UNL     1      11.227  11.948  19.212  0.00  0.00    +0.000 C 
ATOM     28  C   UNL     1      10.079  11.987  18.230  0.00  0.00    +0.000 C 
ATOM     29  C   UNL     1       9.175  13.233  18.407  0.00  0.00    +0.000 C 
ATOM     30  C   UNL     1       7.950  12.946  17.487  0.00  0.00    +0.000 C 
ATOM     31  C   UNL     1       9.905  14.458  17.799  0.00  0.00    +0.000 C 
ENDBRANCH  21  22
ENDBRANCH  20  21
ENDBRANCH  14  20
TORSDOF 5
ENDMDL
MODEL 6
REMARK VINA RESULT:      -6.4      3.836      7.461
REMARK  Name = 
REMARK  11 active torsions:
REMARK  status: ('A' for Active; 'I' for Inactive)
REMARK    1  A    between atoms: C_1  and  O_2
REMARK    2  A    between atoms: O_2  and  C_3
REMARK    3  A    between atoms: C_13  and  O_14
REMARK    4  A    between atoms: O_14  and  C_15
REMARK    5  A    between atoms: N_18  and  C_19
REMARK    6  A    between atoms: C_19  and  C_20
REMARK    7  A    between atoms: C_20  and  N_21
REMARK    8  A    between atoms: C_22  and  C_23
REMARK    9  A    between atoms: C_22  and  C_24
REMARK   10  A    between atoms: C_28  and  C_29
REMARK   11  A    between atoms: C_28  and  C_30
REMARK                            x       y       z     vdW  Elec       q    Type
REMARK                         _______ _______ _______ _____ _____    ______ ____
ROOT
ATOM      1  C   UNL     1      -5.160  12.135  17.711  0.00  0.00    +0.000 A 
ATOM      2  C   UNL     1      -4.985  12.528  19.044  0.00  0.00    +0.000 A 
ATOM      3  C   UNL     1      -3.784  12.269  19.699  0.00  0.00    +0.000 A 
ATOM      4  O   UNL     1      -3.698  12.738  21.019  0.00  0.00    +0.000 OA
ATOM      5  C   UNL     1      -2.540  12.589  21.761  0.00  0.00    +0.000 A 
ATOM      6  O   UNL     1      -2.449  13.031  22.899  0.00  0.00    +0.000 OA
ATOM      7  C   UNL     1      -1.435  11.847  21.113  0.00  0.00    +0.000 A 
ATOM      8  C   UNL     1      -1.522  11.353  19.863  0.00  0.00    +0.000 A 
ATOM      9  C   UNL     1      -2.736  11.601  19.085  0.00  0.00    +0.000 A 
ATOM     10  C   UNL     1      -2.910  11.212  17.754  0.00  0.00    +0.000 A 
ATOM     11  C   UNL     1      -4.111  11.462  17.061  0.00  0.00    +0.000 A 
ATOM     12  C   UNL     1      -0.380  10.568  19.260  0.00  0.00    +0.000 C 
ATOM     13  C   UNL     1       0.762  10.307  20.263  0.00  0.00    +0.000 C 
ATOM     14  N   UNL     1       1.028  11.447  21.164  0.00  0.00    +0.000 NA
ATOM     15  C   UNL     1      -0.192  11.720  21.946  0.00  0.00    +0.000 C 
ENDROOT
BRANCH   1  17
ATOM     16  C   UNL     1      -7.377  12.979  17.797  0.00  0.00    +0.000 C 
ATOM     17  O   UNL     1      -6.334  12.359  17.049  0.00  0.00    +0.000 OA
ENDBRANCH   1  17
BRANCH  11  18
ATOM     18  O   UNL     1      -4.069  10.989  15.776  0.00  0.00    +0.000 OA
ATOM     19  C   UNL     1      -2.853  10.448  15.284  0.00  0.00    +0.000 C 
ENDBRANCH  11  18
BRANCH  14  20
ATOM     20  C   UNL     1       1.510  12.617  20.388  0.00  0.00    +0.000 C 
BRANCH  20  21
ATOM     21  C   UNL     1       1.307  14.000  21.049  0.00  0.00    +0.000 C 
BRANCH  21  22
ATOM     22  N   UNL     1       1.461  15.215  20.196  0.00  0.00    +0.000 NA
ATOM     23  C   UNL     1       2.316  16.309  20.769  0.00  0.00    +0.000 C 
ATOM     24  C   UNL     1       3.831  15.946  20.734  0.00  0.00    +0.000 C 
ATOM     25  C   UNL     1       1.962  16.667  22.229  0.00  0.00    +0.000 C 
ATOM     26  C   UNL     1       2.279  17.602  19.906  0.00  0.00    +0.000 C 
ATOM     27  C   UNL     1       0.889  18.061  19.536  0.00  0.00    +0.000 C 
ATOM     28  C   UNL     1       0.224  16.935  18.778  0.00  0.00    +0.000 C 
ATOM     29  C   UNL     1       0.132  15.625  19.600  0.00  0.00    +0.000 C 
ATOM     30  C   UNL     1      -0.345  14.561  18.565  0.00  0.00    +0.000 C 
ATOM     31  C   UNL     1      -1.012  15.775  20.636  0.00  0.00    +0.000 C 
ENDBRANCH  21  22
ENDBRANCH  20  21
ENDBRANCH  14  20
TORSDOF 5
ENDMDL
MODEL 7
REMARK VINA RESULT:      -6.4      1.376      1.923
REMARK  Name = 
REMARK  11 active torsions:
REMARK  status: ('A' for Active; 'I' for Inactive)
REMARK    1  A    between atoms: C_1  and  O_2
REMARK    2  A    between atoms: O_2  and  C_3
REMARK    3  A    between atoms: C_13  and  O_14
REMARK    4  A    between atoms: O_14  and  C_15
REMARK    5  A    between atoms: N_18  and  C_19
REMARK    6  A    between atoms: C_19  and  C_20
REMARK    7  A    between atoms: C_20  and  N_21
REMARK    8  A    between atoms: C_22  and  C_23
REMARK    9  A    between atoms: C_22  and  C_24
REMARK   10  A    between atoms: C_28  and  C_29
REMARK   11  A    between atoms: C_28  and  C_30
REMARK                            x       y       z     vdW  Elec       q    Type
REMARK                         _______ _______ _______ _____ _____    ______ ____
ROOT
ATOM      1  C   UNL     1       1.872   7.587  19.995  0.00  0.00    +0.000 A 
ATOM      2  C   UNL     1       1.337   8.097  21.185  0.00  0.00    +0.000 A 
ATOM      3  C   UNL     1       0.689   9.330  21.190  0.00  0.00    +0.000 A 
ATOM      4  O   UNL     1       0.156   9.731  22.424  0.00  0.00    +0.000 OA
ATOM      5  C   UNL     1      -0.555  10.910  22.552  0.00  0.00    +0.000 A 
ATOM      6  O   UNL     1      -1.053  11.244  23.619  0.00  0.00    +0.000 OA
ATOM      7  C   UNL     1      -0.654  11.752  21.339  0.00  0.00    +0.000 A 
ATOM      8  C   UNL     1      -0.108  11.399  20.159  0.00  0.00    +0.000 A 
ATOM      9  C   UNL     1       0.568  10.107  20.048  0.00  0.00    +0.000 A 
ATOM     10  C   UNL     1       1.099   9.596  18.861  0.00  0.00    +0.000 A 
ATOM     11  C   UNL     1       1.758   8.351  18.820  0.00  0.00    +0.000 A 
ATOM     12  C   UNL     1      -0.203  12.312  18.958  0.00  0.00    +0.000 C 
ATOM     13  C   UNL     1      -0.843  13.675  19.292  0.00  0.00    +0.000 C 
ATOM     14  N   UNL     1      -1.961  13.582  20.254  0.00  0.00    +0.000 NA
ATOM     15  C   UNL     1      -1.446  13.016  21.515  0.00  0.00    +0.000 C 
ENDROOT
BRANCH   1  17
ATOM     16  C   UNL     1       1.885   5.294  20.606  0.00  0.00    +0.000 C 
ATOM     17  O   UNL     1       2.530   6.391  19.963  0.00  0.00    +0.000 OA
ENDBRANCH   1  17
BRANCH  11  18
ATOM     18  O   UNL     1       2.207   8.051  17.561  0.00  0.00    +0.000 OA
ATOM     19  C   UNL     1       3.552   7.633  17.393  0.00  0.00    +0.000 C 
ENDBRANCH  11  18
BRANCH  14  20
ATOM     20  C   UNL     1      -3.082  12.806  19.670  0.00  0.00    +0.000 C 
BRANCH  20  21
ATOM     21  C   UNL     1      -4.504  13.335  19.973  0.00  0.00    +0.000 C 
BRANCH  21  22
ATOM     22  N   UNL     1      -5.405  12.488  20.808  0.00  0.00    +0.000 NA
ATOM     23  C   UNL     1      -6.625  11.954  20.113  0.00  0.00    +0.000 C 
ATOM     24  C   UNL     1      -6.275  10.808  19.115  0.00  0.00    +0.000 C 
ATOM     25  C   UNL     1      -7.406  13.028  19.324  0.00  0.00    +0.000 C 
ATOM     26  C   UNL     1      -7.597  11.237  21.092  0.00  0.00    +0.000 C 
ATOM     27  C   UNL     1      -7.916  12.026  22.338  0.00  0.00    +0.000 C 
ATOM     28  C   UNL     1      -6.612  12.308  23.046  0.00  0.00    +0.000 C 
ATOM     29  C   UNL     1      -5.610  13.106  22.174  0.00  0.00    +0.000 C 
ATOM     30  C   UNL     1      -4.281  13.064  22.988  0.00  0.00    +0.000 C 
ATOM     31  C   UNL     1      -6.060  14.589  22.142  0.00  0.00    +0.000 C 
ENDBRANCH  21  22
ENDBRANCH  20  21
ENDBRANCH  14  20
TORSDOF 5
ENDMDL
MODEL 8
REMARK VINA RESULT:      -6.2      1.955      2.956
REMARK  Name = 
REMARK  11 active torsions:
REMARK  status: ('A' for Active; 'I' for Inactive)
REMARK    1  A    between atoms: C_1  and  O_2
REMARK    2  A    between atoms: O_2  and  C_3
REMARK    3  A    between atoms: C_13  and  O_14
REMARK    4  A    between atoms: O_14  and  C_15
REMARK    5  A    between atoms: N_18  and  C_19
REMARK    6  A    between atoms: C_19  and  C_20
REMARK    7  A    between atoms: C_20  and  N_21
REMARK    8  A    between atoms: C_22  and  C_23
REMARK    9  A    between atoms: C_22  and  C_24
REMARK   10  A    between atoms: C_28  and  C_29
REMARK   11  A    between atoms: C_28  and  C_30
REMARK                            x       y       z     vdW  Elec       q    Type
REMARK                         _______ _______ _______ _____ _____    ______ ____
ROOT
ATOM      1  C   UNL     1       2.241   6.682  19.595  0.00  0.00    +0.000 A 
ATOM      2  C   UNL     1       1.710   7.045  20.839  0.00  0.00    +0.000 A 
ATOM      3  C   UNL     1       1.234   8.337  21.047  0.00  0.00    +0.000 A 
ATOM      4  O   UNL     1       0.687   8.586  22.315  0.00  0.00    +0.000 OA
ATOM      5  C   UNL     1       0.134   9.814  22.632  0.00  0.00    +0.000 A 
ATOM      6  O   UNL     1      -0.377  10.022  23.724  0.00  0.00    +0.000 OA
ATOM      7  C   UNL     1       0.221  10.862  21.590  0.00  0.00    +0.000 A 
ATOM      8  C   UNL     1       0.784  10.648  20.385  0.00  0.00    +0.000 A 
ATOM      9  C   UNL     1       1.286   9.312  20.063  0.00  0.00    +0.000 A 
ATOM     10  C   UNL     1       1.814   8.948  18.822  0.00  0.00    +0.000 A 
ATOM     11  C   UNL     1       2.300   7.649  18.577  0.00  0.00    +0.000 A 
ATOM     12  C   UNL     1       0.884  11.762  19.369  0.00  0.00    +0.000 C 
ATOM     13  C   UNL     1       0.413  13.122  19.924  0.00  0.00    +0.000 C 
ATOM     14  N   UNL     1      -0.762  13.021  20.814  0.00  0.00    +0.000 NA
ATOM     15  C   UNL     1      -0.403  12.175  21.967  0.00  0.00    +0.000 C 
ENDROOT
BRANCH   1  17
ATOM     16  C   UNL     1       1.789   4.438  18.967  0.00  0.00    +0.000 C 
ATOM     17  O   UNL     1       2.734   5.428  19.367  0.00  0.00    +0.000 OA
ENDBRANCH   1  17
BRANCH  11  18
ATOM     18  O   UNL     1       2.779   7.514  17.299  0.00  0.00    +0.000 OA
ATOM     19  C   UNL     1       4.148   7.194  17.110  0.00  0.00    +0.000 C 
ENDBRANCH  11  18
BRANCH  14  20
ATOM     20  C   UNL     1      -1.941  12.528  20.061  0.00  0.00    +0.000 C 
BRANCH  20  21
ATOM     21  C   UNL     1      -3.297  13.179  20.420  0.00  0.00    +0.000 C 
BRANCH  21  22
ATOM     22  N   UNL     1      -3.369  14.012  21.657  0.00  0.00    +0.000 NA
ATOM     23  C   UNL     1      -4.139  13.414  22.800  0.00  0.00    +0.000 C 
ATOM     24  C   UNL     1      -3.359  12.252  23.485  0.00  0.00    +0.000 C 
ATOM     25  C   UNL     1      -5.522  12.862  22.391  0.00  0.00    +0.000 C 
ATOM     26  C   UNL     1      -4.319  14.413  23.977  0.00  0.00    +0.000 C 
ATOM     27  C   UNL     1      -4.824  15.774  23.564  0.00  0.00    +0.000 C 
ATOM     28  C   UNL     1      -3.838  16.345  22.572  0.00  0.00    +0.000 C 
ATOM     29  C   UNL     1      -3.662  15.457  21.314  0.00  0.00    +0.000 C 
ATOM     30  C   UNL     1      -2.448  16.090  20.569  0.00  0.00    +0.000 C 
ATOM     31  C   UNL     1      -4.896  15.657  20.397  0.00  0.00    +0.000 C 
ENDBRANCH  21  22
ENDBRANCH  20  21
ENDBRANCH  14  20
TORSDOF 5
ENDMDL
MODEL 9
REMARK VINA RESULT:      -6.2      6.203     11.073
REMARK  Name = 
REMARK  11 active torsions:
REMARK  status: ('A' for Active; 'I' for Inactive)
REMARK    1  A    between atoms: C_1  and  O_2
REMARK    2  A    between atoms: O_2  and  C_3
REMARK    3  A    between atoms: C_13  and  O_14
REMARK    4  A    between atoms: O_14  and  C_15
REMARK    5  A    between atoms: N_18  and  C_19
REMARK    6  A    between atoms: C_19  and  C_20
REMARK    7  A    between atoms: C_20  and  N_21
REMARK    8  A    between atoms: C_22  and  C_23
REMARK    9  A    between atoms: C_22  and  C_24
REMARK   10  A    between atoms: C_28  and  C_29
REMARK   11  A    between atoms: C_28  and  C_30
REMARK                            x       y       z     vdW  Elec       q    Type
REMARK                         _______ _______ _______ _____ _____    ______ ____
ROOT
ATOM      1  C   UNL     1      -0.177  14.284  22.431  0.00  0.00    +0.000 A 
ATOM      2  C   UNL     1       0.174  13.489  21.332  0.00  0.00    +0.000 A 
ATOM      3  C   UNL     1       1.264  13.835  20.537  0.00  0.00    +0.000 A 
ATOM      4  O   UNL     1       1.553  12.951  19.486  0.00  0.00    +0.000 OA
ATOM      5  C   UNL     1       2.640  13.153  18.655  0.00  0.00    +0.000 A 
ATOM      6  O   UNL     1       2.917  12.364  17.762  0.00  0.00    +0.000 OA
ATOM      7  C   UNL     1       3.427  14.384  18.890  0.00  0.00    +0.000 A 
ATOM      8  C   UNL     1       3.133  15.263  19.868  0.00  0.00    +0.000 A 
ATOM      9  C   UNL     1       2.022  14.971  20.774  0.00  0.00    +0.000 A 
ATOM     10  C   UNL     1       1.673  15.762  21.871  0.00  0.00    +0.000 A 
ATOM     11  C   UNL     1       0.579  15.439  22.698  0.00  0.00    +0.000 A 
ATOM     12  C   UNL     1       3.943  16.527  20.043  0.00  0.00    +0.000 C 
ATOM     13  C   UNL     1       4.993  16.723  18.929  0.00  0.00    +0.000 C 
ATOM     14  N   UNL     1       5.643  15.467  18.503  0.00  0.00    +0.000 NA
ATOM     15  C   UNL     1       4.607  14.559  17.977  0.00  0.00    +0.000 C 
ENDROOT
BRANCH   1  17
ATOM     16  C   UNL     1      -1.795  12.672  23.073  0.00  0.00    +0.000 C 
ATOM     17  O   UNL     1      -1.252  13.982  23.217  0.00  0.00    +0.000 OA
ENDBRANCH   1  17
BRANCH  11  18
ATOM     18  O   UNL     1       0.412  16.353  23.706  0.00  0.00    +0.000 OA
ATOM     19  C   UNL     1       0.582  17.732  23.417  0.00  0.00    +0.000 C 
ENDBRANCH  11  18
BRANCH  14  20
ATOM     20  C   UNL     1       6.428  14.886  19.620  0.00  0.00    +0.000 C 
BRANCH  20  21
ATOM     21  C   UNL     1       7.949  14.742  19.378  0.00  0.00    +0.000 C 
BRANCH  21  22
ATOM     22  N   UNL     1       8.556  13.385  19.519  0.00  0.00    +0.000 NA
ATOM     23  C   UNL     1       9.427  13.184  20.726  0.00  0.00    +0.000 C 
ATOM     24  C   UNL     1       8.592  13.078  22.038  0.00  0.00    +0.000 C 
ATOM     25  C   UNL     1      10.466  14.308  20.931  0.00  0.00    +0.000 C 
ATOM     26  C   UNL     1      10.160  11.813  20.704  0.00  0.00    +0.000 C 
ATOM     27  C   UNL     1      10.861  11.506  19.403  0.00  0.00    +0.000 C 
ATOM     28  C   UNL     1       9.821  11.534  18.307  0.00  0.00    +0.000 C 
ATOM     29  C   UNL     1       9.099  12.900  18.193  0.00  0.00    +0.000 C 
ATOM     30  C   UNL     1       7.930  12.629  17.198  0.00  0.00    +0.000 C 
ATOM     31  C   UNL     1      10.052  13.901  17.489  0.00  0.00    +0.000 C 
ENDBRANCH  21  22
ENDBRANCH  20  21
ENDBRANCH  14  20
TORSDOF 5
ENDMDL
