MODEL 1
REMARK VINA RESULT:      -8.6      0.000      0.000
REMARK  Name = 
REMARK  7 active torsions:
REMARK  status: ('A' for Active; 'I' for Inactive)
REMARK    1  A    between atoms: C_1  and  C_2
REMARK    2  A    between atoms: C_2  and  C_3
REMARK    3  A    between atoms: C_2  and  O_4
REMARK    4  A    between atoms: C_2  and  C_12
REMARK    5  A    between atoms: O_4  and  C_5
REMARK    6  A    between atoms: N_14  and  C_15
REMARK    7  A    between atoms: C_22  and  C_23
REMARK                            x       y       z     vdW  Elec       q    Type
REMARK                         _______ _______ _______ _____ _____    ______ ____
ROOT
ATOM      1  C   UNL     1       2.162   8.111  18.399  0.00  0.00    +0.000 C 
ATOM      2  O   UNL     1       3.069   8.035  17.566  0.00  0.00    +0.000 OA
ATOM      3  N   UNL     1       1.857   7.045  19.235  0.00  0.00    +0.000 N 
ATOM      4  H   UNL     1       1.253   7.269  20.020  0.00  0.00    +0.000 HD
ENDROOT
BRANCH   3   5
ATOM      5  C   UNL     1       2.742   5.865  19.334  0.00  0.00    +0.000 C 
ATOM      6  C   UNL     1       2.339   4.939  20.511  0.00  0.00    +0.000 C 
ATOM      7  C   UNL     1       0.954   4.323  20.230  0.00  0.00    +0.000 C 
ATOM      8  C   UNL     1       0.992   3.493  18.942  0.00  0.00    +0.000 C 
ATOM      9  C   UNL     1       1.420   4.374  17.757  0.00  0.00    +0.000 C 
ATOM     10  C   UNL     1       2.795   5.006  18.036  0.00  0.00    +0.000 C 
ATOM     11  C   UNL     1       3.815   3.840  18.196  0.00  0.00    +0.000 C 
ATOM     12  C   UNL     1       3.425   2.927  19.384  0.00  0.00    +0.000 C 
ATOM     13  C   UNL     1       2.004   2.362  19.131  0.00  0.00    +0.000 C 
ATOM     14  C   UNL     1       3.388   3.812  20.652  0.00  0.00    +0.000 C 
BRANCH  12  15
ATOM     15  C   UNL     1       4.386   1.736  19.558  0.00  0.00    +0.000 C 
ATOM     16  N   UNL     1       4.309   0.731  18.649  0.00  0.00    +0.000 N 
ATOM     17  O   UNL     1       5.212   1.653  20.469  0.00  0.00    +0.000 OA
ATOM     18  H   UNL     1       5.017   0.004  18.726  0.00  0.00    +0.000 HD
ATOM     19  H   UNL     1       3.770   0.779  17.798  0.00  0.00    +0.000 HD
ENDBRANCH  12  15
ENDBRANCH   3   5
BRANCH   1  21
ATOM     20  C   UNL     1       2.162  10.616  18.198  0.00  0.00    +0.000 C 
ATOM     21  C   UNL     1       1.276   9.400  18.534  0.00  0.00    +0.000 C 
ATOM     22  C   UNL     1       0.812   9.607  19.994  0.00  0.00    +0.000 C 
BRANCH  21  23
ATOM     23  O   UNL     1       0.187   9.512  17.603  0.00  0.00    +0.000 OA
BRANCH  23  24
ATOM     24  C   UNL     1      -0.948  10.215  17.877  0.00  0.00    +0.000 A 
ATOM     25  C   UNL     1      -1.036  11.358  18.660  0.00  0.00    +0.000 A 
ATOM     26  C   UNL     1      -2.278  11.962  18.896  0.00  0.00    +0.000 A 
ATOM     27  C   UNL     1      -3.440  11.415  18.357  0.00  0.00    +0.000 A 
ATOM     28 CL   UNL     1      -4.962  12.141  18.682  0.00  0.00    +0.000 Cl
ATOM     29  C   UNL     1      -3.369  10.267  17.569  0.00  0.00    +0.000 A 
ATOM     30  C   UNL     1      -2.120   9.673  17.333  0.00  0.00    +0.000 A 
ENDBRANCH  23  24
ENDBRANCH  21  23
ENDBRANCH   1  21
TORSDOF 5
ENDMDL
MODEL 2
REMARK VINA RESULT:      -8.5      3.594      5.656
REMARK  Name = 
REMARK  7 active torsions:
REMARK  status: ('A' for Active; 'I' for Inactive)
REMARK    1  A    between atoms: C_1  and  C_2
REMARK    2  A    between atoms: C_2  and  C_3
REMARK    3  A    between atoms: C_2  and  O_4
REMARK    4  A    between atoms: C_2  and  C_12
REMARK    5  A    between atoms: O_4  and  C_5
REMARK    6  A    between atoms: N_14  and  C_15
REMARK    7  A    between atoms: C_22  and  C_23
REMARK                            x       y       z     vdW  Elec       q    Type
REMARK                         _______ _______ _______ _____ _____    ______ ____
ROOT
ATOM      1  C   UNL     1       2.823   4.103  18.934  0.00  0.00    +0.000 C 
ATOM      2  O   UNL     1       2.249   3.472  18.043  0.00  0.00    +0.000 OA
ATOM      3  N   UNL     1       4.148   4.498  18.803  0.00  0.00    +0.000 N 
ATOM      4  H   UNL     1       4.464   5.186  19.478  0.00  0.00    +0.000 HD
ENDROOT
BRANCH   3   5
ATOM      5  C   UNL     1       4.859   4.390  17.511  0.00  0.00    +0.000 C 
ATOM      6  C   UNL     1       4.590   5.618  16.601  0.00  0.00    +0.000 C 
ATOM      7  C   UNL     1       5.204   6.878  17.242  0.00  0.00    +0.000 C 
ATOM      8  C   UNL     1       6.718   6.709  17.405  0.00  0.00    +0.000 C 
ATOM      9  C   UNL     1       7.023   5.481  18.276  0.00  0.00    +0.000 C 
ATOM     10  C   UNL     1       6.400   4.219  17.651  0.00  0.00    +0.000 C 
ATOM     11  C   UNL     1       7.056   4.025  16.252  0.00  0.00    +0.000 C 
ATOM     12  C   UNL     1       6.771   5.241  15.337  0.00  0.00    +0.000 C 
ATOM     13  C   UNL     1       7.330   6.517  16.016  0.00  0.00    +0.000 C 
ATOM     14  C   UNL     1       5.234   5.376  15.217  0.00  0.00    +0.000 C 
BRANCH  12  15
ATOM     15  C   UNL     1       7.432   5.110  13.952  0.00  0.00    +0.000 C 
ATOM     16  N   UNL     1       6.891   4.221  13.081  0.00  0.00    +0.000 N 
ATOM     17  O   UNL     1       8.413   5.767  13.599  0.00  0.00    +0.000 OA
ATOM     18  H   UNL     1       7.281   4.222  12.142  0.00  0.00    +0.000 HD
ATOM     19  H   UNL     1       6.011   3.750  13.227  0.00  0.00    +0.000 HD
ENDBRANCH  12  15
ENDBRANCH   3   5
BRANCH   1  21
ATOM     20  C   UNL     1       2.595   3.472  21.356  0.00  0.00    +0.000 C 
ATOM     21  C   UNL     1       2.103   4.462  20.281  0.00  0.00    +0.000 C 
ATOM     22  C   UNL     1       0.576   4.244  20.174  0.00  0.00    +0.000 C 
BRANCH  21  23
ATOM     23  O   UNL     1       2.423   5.747  20.840  0.00  0.00    +0.000 OA
BRANCH  23  24
ATOM     24  C   UNL     1       1.994   6.918  20.291  0.00  0.00    +0.000 A 
ATOM     25  C   UNL     1       2.291   7.385  19.017  0.00  0.00    +0.000 A 
ATOM     26  C   UNL     1       1.816   8.632  18.590  0.00  0.00    +0.000 A 
ATOM     27  C   UNL     1       1.048   9.422  19.443  0.00  0.00    +0.000 A 
ATOM     28 CL   UNL     1       0.501  10.964  18.923  0.00  0.00    +0.000 Cl
ATOM     29  C   UNL     1       0.741   8.969  20.724  0.00  0.00    +0.000 A 
ATOM     30  C   UNL     1       1.217   7.715  21.141  0.00  0.00    +0.000 A 
ENDBRANCH  23  24
ENDBRANCH  21  23
ENDBRANCH   1  21
TORSDOF 5
ENDMDL
MODEL 3
REMARK VINA RESULT:      -8.4      2.095      2.669
REMARK  Name = 
REMARK  7 active torsions:
REMARK  status: ('A' for Active; 'I' for Inactive)
REMARK    1  A    between atoms: C_1  and  C_2
REMARK    2  A    between atoms: C_2  and  C_3
REMARK    3  A    between atoms: C_2  and  O_4
REMARK    4  A    between atoms: C_2  and  C_12
REMARK    5  A    between atoms: O_4  and  C_5
REMARK    6  A    between atoms: N_14  and  C_15
REMARK    7  A    between atoms: C_22  and  C_23
REMARK                            x       y       z     vdW  Elec       q    Type
REMARK                         _______ _______ _______ _____ _____    ______ ____
ROOT
ATOM      1  C   UNL     1       1.759   8.279  19.887  0.00  0.00    +0.000 C 
ATOM      2  O   UNL     1       1.802   8.115  21.109  0.00  0.00    +0.000 OA
ATOM      3  N   UNL     1       2.424   7.424  19.018  0.00  0.00    +0.000 N 
ATOM      4  H   UNL     1       2.159   7.505  18.042  0.00  0.00    +0.000 HD
ENDROOT
BRANCH   3   5
ATOM      5  C   UNL     1       3.015   6.153  19.491  0.00  0.00    +0.000 C 
ATOM      6  C   UNL     1       2.015   4.972  19.369  0.00  0.00    +0.000 C 
ATOM      7  C   UNL     1       1.723   4.698  17.881  0.00  0.00    +0.000 C 
ATOM      8  C   UNL     1       3.014   4.327  17.143  0.00  0.00    +0.000 C 
ATOM      9  C   UNL     1       4.041   5.464  17.270  0.00  0.00    +0.000 C 
ATOM     10  C   UNL     1       4.328   5.755  18.754  0.00  0.00    +0.000 C 
ATOM     11  C   UNL     1       4.927   4.458  19.372  0.00  0.00    +0.000 C 
ATOM     12  C   UNL     1       3.923   3.284  19.270  0.00  0.00    +0.000 C 
ATOM     13  C   UNL     1       3.578   3.054  17.776  0.00  0.00    +0.000 C 
ATOM     14  C   UNL     1       2.636   3.713  20.015  0.00  0.00    +0.000 C 
BRANCH  12  15
ATOM     15  C   UNL     1       4.487   1.967  19.836  0.00  0.00    +0.000 C 
ATOM     16  N   UNL     1       4.452   0.874  19.031  0.00  0.00    +0.000 N 
ATOM     17  O   UNL     1       4.965   1.859  20.966  0.00  0.00    +0.000 OA
ATOM     18  H   UNL     1       4.917   0.043  19.388  0.00  0.00    +0.000 HD
ATOM     19  H   UNL     1       4.214   0.901  18.052  0.00  0.00    +0.000 HD
ENDBRANCH  12  15
ENDBRANCH   3   5
BRANCH   1  21
ATOM     20  C   UNL     1       0.850   9.207  17.735  0.00  0.00    +0.000 C 
ATOM     21  C   UNL     1       0.984   9.484  19.246  0.00  0.00    +0.000 C 
ATOM     22  C   UNL     1       1.795  10.795  19.364  0.00  0.00    +0.000 C 
BRANCH  21  23
ATOM     23  O   UNL     1      -0.377   9.654  19.676  0.00  0.00    +0.000 OA
BRANCH  23  24
ATOM     24  C   UNL     1      -0.738  10.535  20.651  0.00  0.00    +0.000 A 
ATOM     25  C   UNL     1      -0.532  10.379  22.015  0.00  0.00    +0.000 A 
ATOM     26  C   UNL     1      -0.991  11.347  22.918  0.00  0.00    +0.000 A 
ATOM     27  C   UNL     1      -1.670  12.473  22.456  0.00  0.00    +0.000 A 
ATOM     28 CL   UNL     1      -2.262  13.636  23.572  0.00  0.00    +0.000 Cl
ATOM     29  C   UNL     1      -1.886  12.645  21.090  0.00  0.00    +0.000 A 
ATOM     30  C   UNL     1      -1.416  11.672  20.193  0.00  0.00    +0.000 A 
ENDBRANCH  23  24
ENDBRANCH  21  23
ENDBRANCH   1  21
TORSDOF 5
ENDMDL
MODEL 4
REMARK VINA RESULT:      -8.4      1.439      1.746
REMARK  Name = 
REMARK  7 active torsions:
REMARK  status: ('A' for Active; 'I' for Inactive)
REMARK    1  A    between atoms: C_1  and  C_2
REMARK    2  A    between atoms: C_2  and  C_3
REMARK    3  A    between atoms: C_2  and  O_4
REMARK    4  A    between atoms: C_2  and  C_12
REMARK    5  A    between atoms: O_4  and  C_5
REMARK    6  A    between atoms: N_14  and  C_15
REMARK    7  A    between atoms: C_22  and  C_23
REMARK                            x       y       z     vdW  Elec       q    Type
REMARK                         _______ _______ _______ _____ _____    ______ ____
ROOT
ATOM      1  C   UNL     1       1.744   7.702  20.317  0.00  0.00    +0.000 C 
ATOM      2  O   UNL     1       2.532   7.888  19.387  0.00  0.00    +0.000 OA
ATOM      3  N   UNL     1       1.567   6.444  20.876  0.00  0.00    +0.000 N 
ATOM      4  H   UNL     1       1.072   6.428  21.762  0.00  0.00    +0.000 HD
ENDROOT
BRANCH   3   5
ATOM      5  C   UNL     1       2.475   5.322  20.550  0.00  0.00    +0.000 C 
ATOM      6  C   UNL     1       1.963   3.978  21.133  0.00  0.00    +0.000 C 
ATOM      7  C   UNL     1       0.645   3.584  20.439  0.00  0.00    +0.000 C 
ATOM      8  C   UNL     1       0.867   3.413  18.932  0.00  0.00    +0.000 C 
ATOM      9  C   UNL     1       1.405   4.719  18.325  0.00  0.00    +0.000 C 
ATOM     10  C   UNL     1       2.714   5.129  19.023  0.00  0.00    +0.000 C 
ATOM     11  C   UNL     1       3.746   3.990  18.774  0.00  0.00    +0.000 C 
ATOM     12  C   UNL     1       3.247   2.653  19.374  0.00  0.00    +0.000 C 
ATOM     13  C   UNL     1       1.887   2.292  18.723  0.00  0.00    +0.000 C 
ATOM     14  C   UNL     1       3.025   2.882  20.889  0.00  0.00    +0.000 C 
BRANCH  12  15
ATOM     15  C   UNL     1       4.220   1.486  19.120  0.00  0.00    +0.000 C 
ATOM     16  N   UNL     1       5.209   1.287  20.028  0.00  0.00    +0.000 N 
ATOM     17  O   UNL     1       4.143   0.733  18.148  0.00  0.00    +0.000 OA
ATOM     18  H   UNL     1       5.778   0.454  19.893  0.00  0.00    +0.000 HD
ATOM     19  H   UNL     1       5.262   1.757  20.919  0.00  0.00    +0.000 HD
ENDBRANCH  12  15
ENDBRANCH   3   5
BRANCH   1  21
ATOM     20  C   UNL     1       1.500   9.317  22.228  0.00  0.00    +0.000 C 
ATOM     21  C   UNL     1       0.866   8.868  20.896  0.00  0.00    +0.000 C 
ATOM     22  C   UNL     1      -0.555   8.374  21.251  0.00  0.00    +0.000 C 
BRANCH  21  23
ATOM     23  O   UNL     1       0.836  10.076  20.117  0.00  0.00    +0.000 OA
BRANCH  23  24
ATOM     24  C   UNL     1      -0.272  10.489  19.440  0.00  0.00    +0.000 A 
ATOM     25  C   UNL     1      -1.216  11.401  19.891  0.00  0.00    +0.000 A 
ATOM     26  C   UNL     1      -2.337  11.708  19.108  0.00  0.00    +0.000 A 
ATOM     27  C   UNL     1      -2.520  11.094  17.871  0.00  0.00    +0.000 A 
ATOM     28 CL   UNL     1      -3.915  11.449  16.934  0.00  0.00    +0.000 Cl
ATOM     29  C   UNL     1      -1.582  10.176  17.403  0.00  0.00    +0.000 A 
ATOM     30  C   UNL     1      -0.460   9.879  18.193  0.00  0.00    +0.000 A 
ENDBRANCH  23  24
ENDBRANCH  21  23
ENDBRANCH   1  21
TORSDOF 5
ENDMDL
MODEL 5
REMARK VINA RESULT:      -8.3      2.183      2.889
REMARK  Name = 
REMARK  7 active torsions:
REMARK  status: ('A' for Active; 'I' for Inactive)
REMARK    1  A    between atoms: C_1  and  C_2
REMARK    2  A    between atoms: C_2  and  C_3
REMARK    3  A    between atoms: C_2  and  O_4
REMARK    4  A    between atoms: C_2  and  C_12
REMARK    5  A    between atoms: O_4  and  C_5
REMARK    6  A    between atoms: N_14  and  C_15
REMARK    7  A    between atoms: C_22  and  C_23
REMARK                            x       y       z     vdW  Elec       q    Type
REMARK                         _______ _______ _______ _____ _____    ______ ____
ROOT
ATOM      1  C   UNL     1       1.665   8.153  20.089  0.00  0.00    +0.000 C 
ATOM      2  O   UNL     1       1.437   7.762  21.236  0.00  0.00    +0.000 OA
ATOM      3  N   UNL     1       2.561   7.488  19.262  0.00  0.00    +0.000 N 
ATOM      4  H   UNL     1       2.522   7.748  18.282  0.00  0.00    +0.000 HD
ENDROOT
BRANCH   3   5
ATOM      5  C   UNL     1       3.100   6.159  19.623  0.00  0.00    +0.000 C 
ATOM      6  C   UNL     1       2.072   5.028  19.358  0.00  0.00    +0.000 C 
ATOM      7  C   UNL     1       1.817   4.909  17.842  0.00  0.00    +0.000 C 
ATOM      8  C   UNL     1       3.120   4.572  17.108  0.00  0.00    +0.000 C 
ATOM      9  C   UNL     1       4.174   5.658  17.374  0.00  0.00    +0.000 C 
ATOM     10  C   UNL     1       4.424   5.795  18.887  0.00  0.00    +0.000 C 
ATOM     11  C   UNL     1       4.967   4.425  19.390  0.00  0.00    +0.000 C 
ATOM     12  C   UNL     1       3.934   3.298  19.145  0.00  0.00    +0.000 C 
ATOM     13  C   UNL     1       3.628   3.226  17.628  0.00  0.00    +0.000 C 
ATOM     14  C   UNL     1       2.638   3.692  19.894  0.00  0.00    +0.000 C 
BRANCH  12  15
ATOM     15  C   UNL     1       4.443   1.916  19.594  0.00  0.00    +0.000 C 
ATOM     16  N   UNL     1       4.235   0.870  18.754  0.00  0.00    +0.000 N 
ATOM     17  O   UNL     1       5.025   1.716  20.662  0.00  0.00    +0.000 OA
ATOM     18  H   UNL     1       4.665  -0.012  19.025  0.00  0.00    +0.000 HD
ATOM     19  H   UNL     1       3.901   0.962  17.807  0.00  0.00    +0.000 HD
ENDBRANCH  12  15
ENDBRANCH   3   5
BRANCH   1  21
ATOM     20  C   UNL     1      -0.525   9.177  19.402  0.00  0.00    +0.000 C 
ATOM     21  C   UNL     1       0.989   9.447  19.511  0.00  0.00    +0.000 C 
ATOM     22  C   UNL     1       1.471   9.733  18.071  0.00  0.00    +0.000 C 
BRANCH  21  23
ATOM     23  O   UNL     1       1.060  10.616  20.345  0.00  0.00    +0.000 OA
BRANCH  23  24
ATOM     24  C   UNL     1      -0.010  11.087  21.046  0.00  0.00    +0.000 A 
ATOM     25  C   UNL     1      -0.871  12.100  20.647  0.00  0.00    +0.000 A 
ATOM     26  C   UNL     1      -1.912  12.518  21.486  0.00  0.00    +0.000 A 
ATOM     27  C   UNL     1      -2.088  11.928  22.736  0.00  0.00    +0.000 A 
ATOM     28 CL   UNL     1      -3.343  12.472  23.773  0.00  0.00    +0.000 Cl
ATOM     29  C   UNL     1      -1.232  10.910  23.152  0.00  0.00    +0.000 A 
ATOM     30  C   UNL     1      -0.196  10.494  22.302  0.00  0.00    +0.000 A 
ENDBRANCH  23  24
ENDBRANCH  21  23
ENDBRANCH   1  21
TORSDOF 5
ENDMDL
MODEL 6
REMARK VINA RESULT:      -8.3      5.591      7.409
REMARK  Name = 
REMARK  7 active torsions:
REMARK  status: ('A' for Active; 'I' for Inactive)
REMARK    1  A    between atoms: C_1  and  C_2
REMARK    2  A    between atoms: C_2  and  C_3
REMARK    3  A    between atoms: C_2  and  O_4
REMARK    4  A    between atoms: C_2  and  C_12
REMARK    5  A    between atoms: O_4  and  C_5
REMARK    6  A    between atoms: N_14  and  C_15
REMARK    7  A    between atoms: C_22  and  C_23
REMARK                            x       y       z     vdW  Elec       q    Type
REMARK                         _______ _______ _______ _____ _____    ______ ____
ROOT
ATOM      1  C   UNL     1       6.310   5.506  17.834  0.00  0.00    +0.000 C 
ATOM      2  O   UNL     1       7.116   4.836  18.483  0.00  0.00    +0.000 OA
ATOM      3  N   UNL     1       4.942   5.398  18.046  0.00  0.00    +0.000 N 
ATOM      4  H   UNL     1       4.379   6.131  17.628  0.00  0.00    +0.000 HD
ENDROOT
BRANCH   3   5
ATOM      5  C   UNL     1       4.399   4.660  19.207  0.00  0.00    +0.000 C 
ATOM      6  C   UNL     1       2.961   5.121  19.562  0.00  0.00    +0.000 C 
ATOM      7  C   UNL     1       2.001   4.741  18.417  0.00  0.00    +0.000 C 
ATOM      8  C   UNL     1       1.994   3.222  18.211  0.00  0.00    +0.000 C 
ATOM      9  C   UNL     1       3.412   2.725  17.888  0.00  0.00    +0.000 C 
ATOM     10  C   UNL     1       4.381   3.114  19.019  0.00  0.00    +0.000 C 
ATOM     11  C   UNL     1       3.880   2.414  20.317  0.00  0.00    +0.000 C 
ATOM     12  C   UNL     1       2.453   2.889  20.684  0.00  0.00    +0.000 C 
ATOM     13  C   UNL     1       1.503   2.566  19.503  0.00  0.00    +0.000 C 
ATOM     14  C   UNL     1       2.512   4.425  20.867  0.00  0.00    +0.000 C 
BRANCH  12  15
ATOM     15  C   UNL     1       1.900   2.195  21.942  0.00  0.00    +0.000 C 
ATOM     16  N   UNL     1       0.674   2.578  22.381  0.00  0.00    +0.000 N 
ATOM     17  O   UNL     1       2.506   1.318  22.560  0.00  0.00    +0.000 OA
ATOM     18  H   UNL     1       0.287   2.040  23.153  0.00  0.00    +0.000 HD
ATOM     19  H   UNL     1       0.050   3.177  21.863  0.00  0.00    +0.000 HD
ENDBRANCH  12  15
ENDBRANCH   3   5
BRANCH   1  21
ATOM     20  C   UNL     1       7.755   7.502  17.338  0.00  0.00    +0.000 C 
ATOM     21  C   UNL     1       6.780   6.490  16.704  0.00  0.00    +0.000 C 
ATOM     22  C   UNL     1       5.597   7.326  16.164  0.00  0.00    +0.000 C 
BRANCH  21  23
ATOM     23  O   UNL     1       7.552   5.903  15.644  0.00  0.00    +0.000 OA
BRANCH  23  24
ATOM     24  C   UNL     1       7.007   5.078  14.705  0.00  0.00    +0.000 A 
ATOM     25  C   UNL     1       5.964   4.184  14.905  0.00  0.00    +0.000 A 
ATOM     26  C   UNL     1       5.525   3.360  13.859  0.00  0.00    +0.000 A 
ATOM     27  C   UNL     1       6.139   3.423  12.610  0.00  0.00    +0.000 A 
ATOM     28 CL   UNL     1       5.619   2.384  11.345  0.00  0.00    +0.000 Cl
ATOM     29  C   UNL     1       7.188   4.314  12.393  0.00  0.00    +0.000 A 
ATOM     30  C   UNL     1       7.616   5.139  13.445  0.00  0.00    +0.000 A 
ENDBRANCH  23  24
ENDBRANCH  21  23
ENDBRANCH   1  21
TORSDOF 5
ENDMDL
MODEL 7
REMARK VINA RESULT:      -8.3      3.448      5.634
REMARK  Name = 
REMARK  7 active torsions:
REMARK  status: ('A' for Active; 'I' for Inactive)
REMARK    1  A    between atoms: C_1  and  C_2
REMARK    2  A    between atoms: C_2  and  C_3
REMARK    3  A    between atoms: C_2  and  O_4
REMARK    4  A    between atoms: C_2  and  C_12
REMARK    5  A    between atoms: O_4  and  C_5
REMARK    6  A    between atoms: N_14  and  C_15
REMARK    7  A    between atoms: C_22  and  C_23
REMARK                            x       y       z     vdW  Elec       q    Type
REMARK                         _______ _______ _______ _____ _____    ______ ____
ROOT
ATOM      1  C   UNL     1       2.901   3.702  19.256  0.00  0.00    +0.000 C 
ATOM      2  O   UNL     1       2.434   2.935  18.411  0.00  0.00    +0.000 OA
ATOM      3  N   UNL     1       4.183   4.222  19.132  0.00  0.00    +0.000 N 
ATOM      4  H   UNL     1       4.397   4.999  19.747  0.00  0.00    +0.000 HD
ENDROOT
BRANCH   3   5
ATOM      5  C   UNL     1       4.956   4.072  17.880  0.00  0.00    +0.000 C 
ATOM      6  C   UNL     1       4.279   4.806  16.693  0.00  0.00    +0.000 C 
ATOM      7  C   UNL     1       4.302   6.326  16.947  0.00  0.00    +0.000 C 
ATOM      8  C   UNL     1       5.746   6.823  17.072  0.00  0.00    +0.000 C 
ATOM      9  C   UNL     1       6.459   6.093  18.222  0.00  0.00    +0.000 C 
ATOM     10  C   UNL     1       6.427   4.572  17.984  0.00  0.00    +0.000 C 
ATOM     11  C   UNL     1       7.191   4.296  16.655  0.00  0.00    +0.000 C 
ATOM     12  C   UNL     1       6.504   5.011  15.466  0.00  0.00    +0.000 C 
ATOM     13  C   UNL     1       6.468   6.534  15.755  0.00  0.00    +0.000 C 
ATOM     14  C   UNL     1       5.050   4.487  15.392  0.00  0.00    +0.000 C 
BRANCH  12  15
ATOM     15  C   UNL     1       7.247   4.797  14.134  0.00  0.00    +0.000 C 
ATOM     16  N   UNL     1       6.820   3.786  13.335  0.00  0.00    +0.000 N 
ATOM     17  O   UNL     1       8.194   5.492  13.761  0.00  0.00    +0.000 OA
ATOM     18  H   UNL     1       7.259   3.725  12.420  0.00  0.00    +0.000 HD
ATOM     19  H   UNL     1       5.971   3.264  13.489  0.00  0.00    +0.000 HD
ENDBRANCH  12  15
ENDBRANCH   3   5
BRANCH   1  21
ATOM     20  C   UNL     1       2.385   3.057  21.630  0.00  0.00    +0.000 C 
ATOM     21  C   UNL     1       2.090   4.106  20.538  0.00  0.00    +0.000 C 
ATOM     22  C   UNL     1       0.568   4.031  20.282  0.00  0.00    +0.000 C 
BRANCH  21  23
ATOM     23  O   UNL     1       2.471   5.346  21.156  0.00  0.00    +0.000 OA
BRANCH  23  24
ATOM     24  C   UNL     1       1.987   6.553  20.747  0.00  0.00    +0.000 A 
ATOM     25  C   UNL     1       1.054   7.332  21.418  0.00  0.00    +0.000 A 
ATOM     26  C   UNL     1       0.608   8.539  20.864  0.00  0.00    +0.000 A 
ATOM     27  C   UNL     1       1.089   8.966  19.628  0.00  0.00    +0.000 A 
ATOM     28 CL   UNL     1       0.510  10.428  18.939  0.00  0.00    +0.000 Cl
ATOM     29  C   UNL     1       2.025   8.195  18.941  0.00  0.00    +0.000 A 
ATOM     30  C   UNL     1       2.470   6.990  19.507  0.00  0.00    +0.000 A 
ENDBRANCH  23  24
ENDBRANCH  21  23
ENDBRANCH   1  21
TORSDOF 5
ENDMDL
MODEL 8
REMARK VINA RESULT:      -8.2      5.514      7.397
REMARK  Name = 
REMARK  7 active torsions:
REMARK  status: ('A' for Active; 'I' for Inactive)
REMARK    1  A    between atoms: C_1  and  C_2
REMARK    2  A    between atoms: C_2  and  C_3
REMARK    3  A    between atoms: C_2  and  O_4
REMARK    4  A    between atoms: C_2  and  C_12
REMARK    5  A    between atoms: O_4  and  C_5
REMARK    6  A    between atoms: N_14  and  C_15
REMARK    7  A    between atoms: C_22  and  C_23
REMARK                            x       y       z     vdW  Elec       q    Type
REMARK                         _______ _______ _______ _____ _____    ______ ____
ROOT
ATOM      1  C   UNL     1       6.206   5.356  17.668  0.00  0.00    +0.000 C 
ATOM      2  O   UNL     1       6.953   4.537  18.208  0.00  0.00    +0.000 OA
ATOM      3  N   UNL     1       4.860   5.435  17.998  0.00  0.00    +0.000 N 
ATOM      4  H   UNL     1       4.380   6.266  17.669  0.00  0.00    +0.000 HD
ENDROOT
BRANCH   3   5
ATOM      5  C   UNL     1       4.309   4.712  19.165  0.00  0.00    +0.000 C 
ATOM      6  C   UNL     1       2.885   5.207  19.531  0.00  0.00    +0.000 C 
ATOM      7  C   UNL     1       1.908   4.847  18.395  0.00  0.00    +0.000 C 
ATOM      8  C   UNL     1       1.863   3.329  18.192  0.00  0.00    +0.000 C 
ATOM      9  C   UNL     1       3.266   2.798  17.858  0.00  0.00    +0.000 C 
ATOM     10  C   UNL     1       4.253   3.166  18.980  0.00  0.00    +0.000 C 
ATOM     11  C   UNL     1       3.747   2.480  20.284  0.00  0.00    +0.000 C 
ATOM     12  C   UNL     1       2.335   2.989  20.662  0.00  0.00    +0.000 C 
ATOM     13  C   UNL     1       1.367   2.687  19.489  0.00  0.00    +0.000 C 
ATOM     14  C   UNL     1       2.431   4.523  20.841  0.00  0.00    +0.000 C 
BRANCH  12  15
ATOM     15  C   UNL     1       1.776   2.311  21.926  0.00  0.00    +0.000 C 
ATOM     16  N   UNL     1       2.448   1.232  22.406  0.00  0.00    +0.000 N 
ATOM     17  O   UNL     1       0.766   2.695  22.518  0.00  0.00    +0.000 OA
ATOM     18  H   UNL     1       2.119   0.861  23.294  0.00  0.00    +0.000 HD
ATOM     19  H   UNL     1       3.354   0.938  22.076  0.00  0.00    +0.000 HD
ENDBRANCH  12  15
ENDBRANCH   3   5
BRANCH   1  21
ATOM     20  C   UNL     1       7.607   7.396  17.229  0.00  0.00    +0.000 C 
ATOM     21  C   UNL     1       6.724   6.330  16.551  0.00  0.00    +0.000 C 
ATOM     22  C   UNL     1       5.555   7.104  15.900  0.00  0.00    +0.000 C 
BRANCH  21  23
ATOM     23  O   UNL     1       7.597   5.749  15.569  0.00  0.00    +0.000 OA
BRANCH  23  24
ATOM     24  C   UNL     1       7.140   4.999  14.527  0.00  0.00    +0.000 A 
ATOM     25  C   UNL     1       7.606   5.040  13.220  0.00  0.00    +0.000 A 
ATOM     26  C   UNL     1       7.016   4.242  12.231  0.00  0.00    +0.000 A 
ATOM     27  C   UNL     1       5.948   3.405  12.547  0.00  0.00    +0.000 A 
ATOM     28 CL   UNL     1       5.208   2.457  11.321  0.00  0.00    +0.000 Cl
ATOM     29  C   UNL     1       5.468   3.352  13.854  0.00  0.00    +0.000 A 
ATOM     30  C   UNL     1       6.069   4.151  14.839  0.00  0.00    +0.000 A 
ENDBRANCH  23  24
ENDBRANCH  21  23
ENDBRANCH   1  21
TORSDOF 5
ENDMDL
MODEL 9
REMARK VINA RESULT:      -8.1      3.624      5.443
REMARK  Name = 
REMARK  7 active torsions:
REMARK  status: ('A' for Active; 'I' for Inactive)
REMARK    1  A    between atoms: C_1  and  C_2
REMARK    2  A    between atoms: C_2  and  C_3
REMARK    3  A    between atoms: C_2  and  O_4
REMARK    4  A    between atoms: C_2  and  C_12
REMARK    5  A    between atoms: O_4  and  C_5
REMARK    6  A    between atoms: N_14  and  C_15
REMARK    7  A    between atoms: C_22  and  C_23
REMARK                            x       y       z     vdW  Elec       q    Type
REMARK                         _______ _______ _______ _____ _____    ______ ____
ROOT
ATOM      1  C   UNL     1       2.615   4.551  18.893  0.00  0.00    +0.000 C 
ATOM      2  O   UNL     1       2.025   3.726  18.192  0.00  0.00    +0.000 OA
ATOM      3  N   UNL     1       3.845   5.073  18.517  0.00  0.00    +0.000 N 
ATOM      4  H   UNL     1       4.147   5.891  19.037  0.00  0.00    +0.000 HD
ENDROOT
BRANCH   3   5
ATOM      5  C   UNL     1       4.395   4.849  17.163  0.00  0.00    +0.000 C 
ATOM      6  C   UNL     1       4.822   6.179  16.487  0.00  0.00    +0.000 C 
ATOM      7  C   UNL     1       6.009   6.790  17.257  0.00  0.00    +0.000 C 
ATOM      8  C   UNL     1       7.202   5.828  17.246  0.00  0.00    +0.000 C 
ATOM      9  C   UNL     1       6.805   4.486  17.882  0.00  0.00    +0.000 C 
ATOM     10  C   UNL     1       5.610   3.875  17.128  0.00  0.00    +0.000 C 
ATOM     11  C   UNL     1       6.067   3.627  15.660  0.00  0.00    +0.000 C 
ATOM     12  C   UNL     1       6.473   4.956  14.978  0.00  0.00    +0.000 C 
ATOM     13  C   UNL     1       7.622   5.603  15.793  0.00  0.00    +0.000 C 
ATOM     14  C   UNL     1       5.243   5.894  15.027  0.00  0.00    +0.000 C 
BRANCH  12  15
ATOM     15  C   UNL     1       6.969   4.756  13.534  0.00  0.00    +0.000 C 
ATOM     16  N   UNL     1       7.939   5.592  13.083  0.00  0.00    +0.000 N 
ATOM     17  O   UNL     1       6.537   3.884  12.778  0.00  0.00    +0.000 OA
ATOM     18  H   UNL     1       8.319   5.380  12.164  0.00  0.00    +0.000 HD
ATOM     19  H   UNL     1       8.449   6.234  13.670  0.00  0.00    +0.000 HD
ENDBRANCH  12  15
ENDBRANCH   3   5
BRANCH   1  21
ATOM     20  C   UNL     1       2.547   4.072  21.360  0.00  0.00    +0.000 C 
ATOM     21  C   UNL     1       2.029   5.030  20.269  0.00  0.00    +0.000 C 
ATOM     22  C   UNL     1       0.488   4.903  20.294  0.00  0.00    +0.000 C 
BRANCH  21  23
ATOM     23  O   UNL     1       2.469   6.321  20.722  0.00  0.00    +0.000 OA
BRANCH  23  24
ATOM     24  C   UNL     1       1.858   7.481  20.350  0.00  0.00    +0.000 A 
ATOM     25  C   UNL     1       0.978   8.229  21.120  0.00  0.00    +0.000 A 
ATOM     26  C   UNL     1       0.385   9.387  20.598  0.00  0.00    +0.000 A 
ATOM     27  C   UNL     1       0.665   9.794  19.295  0.00  0.00    +0.000 A 
ATOM     28 CL   UNL     1      -0.094  11.193  18.652  0.00  0.00    +0.000 Cl
ATOM     29  C   UNL     1       1.546   9.054  18.508  0.00  0.00    +0.000 A 
ATOM     30  C   UNL     1       2.139   7.899  19.042  0.00  0.00    +0.000 A 
ENDBRANCH  23  24
ENDBRANCH  21  23
ENDBRANCH   1  21
TORSDOF 5
ENDMDL
