MODEL 1
REMARK VINA RESULT:      -7.7      0.000      0.000
REMARK  Name = 
REMARK  10 active torsions:
REMARK  status: ('A' for Active; 'I' for Inactive)
REMARK    1  A    between atoms: C_1  and  C_2
REMARK    2  A    between atoms: C_2  and  O_3
REMARK    3  A    between atoms: O_3  and  C_4
REMARK    4  A    between atoms: C_4  and  C_6
REMARK    5  A    between atoms: C_6  and  C_7
REMARK    6  A    between atoms: C_6  and  N_8
REMARK    7  A    between atoms: C_9  and  C_11
REMARK    8  A    between atoms: C_14  and  O_15
REMARK    9  A    between atoms: O_15  and  C_16
REMARK   10  A    between atoms: C_24  and  C_25
REMARK                            x       y       z     vdW  Elec       q    Type
REMARK                         _______ _______ _______ _____ _____    ______ ____
ROOT
ATOM      1  O   UNL     1       0.490  11.133  18.800  0.00  0.00    +0.000 OA
ENDROOT
BRANCH   1   2
ATOM      2  C   UNL     1       1.084  12.303  19.212  0.00  0.00    +0.000 A 
ATOM      3  C   UNL     1       0.903  12.835  20.490  0.00  0.00    +0.000 A 
ATOM      4  C   UNL     1       1.476  14.057  20.823  0.00  0.00    +0.000 A 
ATOM      5  C   UNL     1       2.236  14.744  19.879  0.00  0.00    +0.000 A 
ATOM      6  C   UNL     1       2.524  14.172  18.634  0.00  0.00    +0.000 A 
ATOM      7  C   UNL     1       1.939  12.940  18.305  0.00  0.00    +0.000 A 
ATOM      8  C   UNL     1       3.384  14.897  17.637  0.00  0.00    +0.000 C 
ATOM      9  C   UNL     1       3.946  16.190  18.221  0.00  0.00    +0.000 C 
ATOM     10  C   UNL     1       2.905  16.876  19.116  0.00  0.00    +0.000 C 
ATOM     11  O   UNL     1       2.632  16.007  20.237  0.00  0.00    +0.000 OA
BRANCH  10  12
ATOM     12  C   UNL     1       1.633  17.391  18.435  0.00  0.00    +0.000 A 
ATOM     13  C   UNL     1       1.698  17.995  17.165  0.00  0.00    +0.000 A 
ATOM     14  C   UNL     1       0.547  18.469  16.528  0.00  0.00    +0.000 A 
ATOM     15  C   UNL     1      -0.696  18.326  17.140  0.00  0.00    +0.000 A 
ATOM     16  C   UNL     1      -0.783  17.703  18.376  0.00  0.00    +0.000 A 
ATOM     17  C   UNL     1       0.367  17.234  19.017  0.00  0.00    +0.000 A 
ENDBRANCH  10  12
ENDBRANCH   1   2
BRANCH   1  21
ATOM     18  C   UNL     1       2.234   7.836  18.955  0.00  0.00    +0.000 A 
ATOM     19  C   UNL     1       2.456   8.443  17.735  0.00  0.00    +0.000 A 
ATOM     20  N   UNL     1       1.874   9.687  17.573  0.00  0.00    +0.000 NA
ATOM     21  C   UNL     1       1.196  10.008  18.656  0.00  0.00    +0.000 A 
ATOM     22  S   UNL     1       1.282   8.875  19.935  0.00  0.00    +0.000 S 
BRANCH  18  24
ATOM     23  N   UNL     1       3.825   6.073  18.760  0.00  0.00    +0.000 N 
ATOM     24  C   UNL     1       2.705   6.544  19.405  0.00  0.00    +0.000 C 
ATOM     25  O   UNL     1       2.159   5.905  20.299  0.00  0.00    +0.000 OA
ATOM     26  H   UNL     1       4.276   6.664  18.071  0.00  0.00    +0.000 HD
BRANCH  23  27
ATOM     27  C   UNL     1       4.469   4.804  19.085  0.00  0.00    +0.000 C 
ATOM     28  C   UNL     1       3.946   3.700  18.181  0.00  0.00    +0.000 C 
BRANCH  27  29
ATOM     29  C   UNL     1       5.997   4.890  18.973  0.00  0.00    +0.000 C 
ATOM     30  O   UNL     1       6.721   5.390  19.824  0.00  0.00    +0.000 OA
BRANCH  29  31
ATOM     31  O   UNL     1       6.429   4.397  17.773  0.00  0.00    +0.000 OA
BRANCH  31  33
ATOM     32  C   UNL     1       7.001   4.742  15.486  0.00  0.00    +0.000 C 
ATOM     33  C   UNL     1       6.928   5.385  16.861  0.00  0.00    +0.000 C 
ENDBRANCH  31  33
ENDBRANCH  29  31
ENDBRANCH  27  29
ENDBRANCH  23  27
ENDBRANCH  18  24
ENDBRANCH   1  21
TORSDOF 8
ENDMDL
MODEL 2
REMARK VINA RESULT:      -7.7      1.198      1.390
REMARK  Name = 
REMARK  10 active torsions:
REMARK  status: ('A' for Active; 'I' for Inactive)
REMARK    1  A    between atoms: C_1  and  C_2
REMARK    2  A    between atoms: C_2  and  O_3
REMARK    3  A    between atoms: O_3  and  C_4
REMARK    4  A    between atoms: C_4  and  C_6
REMARK    5  A    between atoms: C_6  and  C_7
REMARK    6  A    between atoms: C_6  and  N_8
REMARK    7  A    between atoms: C_9  and  C_11
REMARK    8  A    between atoms: C_14  and  O_15
REMARK    9  A    between atoms: O_15  and  C_16
REMARK   10  A    between atoms: C_24  and  C_25
REMARK                            x       y       z     vdW  Elec       q    Type
REMARK                         _______ _______ _______ _____ _____    ______ ____
ROOT
ATOM      1  O   UNL     1       0.713  10.979  18.572  0.00  0.00    +0.000 OA
ENDROOT
BRANCH   1   2
ATOM      2  C   UNL     1       1.248  12.155  19.042  0.00  0.00    +0.000 A 
ATOM      3  C   UNL     1       0.968  12.660  20.313  0.00  0.00    +0.000 A 
ATOM      4  C   UNL     1       1.488  13.889  20.704  0.00  0.00    +0.000 A 
ATOM      5  C   UNL     1       2.293  14.609  19.825  0.00  0.00    +0.000 A 
ATOM      6  C   UNL     1       2.679  14.066  18.594  0.00  0.00    +0.000 A 
ATOM      7  C   UNL     1       2.148  12.827  18.207  0.00  0.00    +0.000 A 
ATOM      8  C   UNL     1       3.588  14.828  17.670  0.00  0.00    +0.000 C 
ATOM      9  C   UNL     1       4.077  16.123  18.312  0.00  0.00    +0.000 C 
ATOM     10  C   UNL     1       2.961  16.769  19.143  0.00  0.00    +0.000 C 
ATOM     11  O   UNL     1       2.633  15.875  20.229  0.00  0.00    +0.000 OA
BRANCH  10  12
ATOM     12  C   UNL     1       1.727  17.267  18.385  0.00  0.00    +0.000 A 
ATOM     13  C   UNL     1       1.865  17.909  17.140  0.00  0.00    +0.000 A 
ATOM     14  C   UNL     1       0.749  18.368  16.434  0.00  0.00    +0.000 A 
ATOM     15  C   UNL     1      -0.530  18.171  16.948  0.00  0.00    +0.000 A 
ATOM     16  C   UNL     1      -0.687  17.510  18.157  0.00  0.00    +0.000 A 
ATOM     17  C   UNL     1       0.428  17.056  18.868  0.00  0.00    +0.000 A 
ENDBRANCH  10  12
ENDBRANCH   1   2
BRANCH   1  21
ATOM     18  C   UNL     1       2.274   7.645  19.190  0.00  0.00    +0.000 A 
ATOM     19  C   UNL     1       1.579   8.067  20.306  0.00  0.00    +0.000 A 
ATOM     20  N   UNL     1       0.936   9.285  20.183  0.00  0.00    +0.000 NA
ATOM     21  C   UNL     1       1.165   9.793  18.988  0.00  0.00    +0.000 A 
ATOM     22  S   UNL     1       2.095   8.810  17.942  0.00  0.00    +0.000 S 
BRANCH  18  24
ATOM     23  N   UNL     1       3.795   6.363  17.878  0.00  0.00    +0.000 N 
ATOM     24  C   UNL     1       3.041   6.429  19.027  0.00  0.00    +0.000 C 
ATOM     25  O   UNL     1       3.036   5.517  19.848  0.00  0.00    +0.000 OA
ATOM     26  H   UNL     1       3.815   7.167  17.262  0.00  0.00    +0.000 HD
BRANCH  23  27
ATOM     27  C   UNL     1       4.657   5.234  17.543  0.00  0.00    +0.000 C 
ATOM     28  C   UNL     1       3.835   4.099  16.954  0.00  0.00    +0.000 C 
BRANCH  27  29
ATOM     29  C   UNL     1       5.772   5.632  16.567  0.00  0.00    +0.000 C 
ATOM     30  O   UNL     1       6.081   6.788  16.311  0.00  0.00    +0.000 OA
BRANCH  29  31
ATOM     31  O   UNL     1       6.323   4.528  15.976  0.00  0.00    +0.000 OA
BRANCH  31  33
ATOM     32  C   UNL     1       6.161   3.883  13.688  0.00  0.00    +0.000 C 
ATOM     33  C   UNL     1       6.900   4.761  14.684  0.00  0.00    +0.000 C 
ENDBRANCH  31  33
ENDBRANCH  29  31
ENDBRANCH  27  29
ENDBRANCH  23  27
ENDBRANCH  18  24
ENDBRANCH   1  21
TORSDOF 8
ENDMDL
MODEL 3
REMARK VINA RESULT:      -7.6      3.789      5.239
REMARK  Name = 
REMARK  10 active torsions:
REMARK  status: ('A' for Active; 'I' for Inactive)
REMARK    1  A    between atoms: C_1  and  C_2
REMARK    2  A    between atoms: C_2  and  O_3
REMARK    3  A    between atoms: O_3  and  C_4
REMARK    4  A    between atoms: C_4  and  C_6
REMARK    5  A    between atoms: C_6  and  C_7
REMARK    6  A    between atoms: C_6  and  N_8
REMARK    7  A    between atoms: C_9  and  C_11
REMARK    8  A    between atoms: C_14  and  O_15
REMARK    9  A    between atoms: O_15  and  C_16
REMARK   10  A    between atoms: C_24  and  C_25
REMARK                            x       y       z     vdW  Elec       q    Type
REMARK                         _______ _______ _______ _____ _____    ______ ____
ROOT
ATOM      1  O   UNL     1       1.561   6.125  20.961  0.00  0.00    +0.000 OA
ENDROOT
BRANCH   1   2
ATOM      2  C   UNL     1       1.388   7.483  20.827  0.00  0.00    +0.000 A 
ATOM      3  C   UNL     1       0.959   8.298  21.875  0.00  0.00    +0.000 A 
ATOM      4  C   UNL     1       0.739   9.654  21.657  0.00  0.00    +0.000 A 
ATOM      5  C   UNL     1       0.954  10.194  20.392  0.00  0.00    +0.000 A 
ATOM      6  C   UNL     1       1.494   9.417  19.361  0.00  0.00    +0.000 A 
ATOM      7  C   UNL     1       1.710   8.050  19.588  0.00  0.00    +0.000 A 
ATOM      8  C   UNL     1       1.768  10.017  18.010  0.00  0.00    +0.000 C 
ATOM      9  C   UNL     1       1.503  11.520  18.003  0.00  0.00    +0.000 C 
ATOM     10  C   UNL     1       0.273  11.855  18.857  0.00  0.00    +0.000 C 
ATOM     11  O   UNL     1       0.564  11.498  20.226  0.00  0.00    +0.000 OA
BRANCH  10  12
ATOM     12  C   UNL     1      -1.078  11.317  18.374  0.00  0.00    +0.000 A 
ATOM     13  C   UNL     1      -1.135  10.248  17.460  0.00  0.00    +0.000 A 
ATOM     14  C   UNL     1      -2.359   9.743  17.010  0.00  0.00    +0.000 A 
ATOM     15  C   UNL     1      -3.551  10.283  17.486  0.00  0.00    +0.000 A 
ATOM     16  C   UNL     1      -3.514  11.314  18.412  0.00  0.00    +0.000 A 
ATOM     17  C   UNL     1      -2.292  11.824  18.859  0.00  0.00    +0.000 A 
ENDBRANCH  10  12
ENDBRANCH   1   2
BRANCH   1  21
ATOM     18  C   UNL     1       3.197   4.156  18.244  0.00  0.00    +0.000 A 
ATOM     19  C   UNL     1       1.831   3.962  18.226  0.00  0.00    +0.000 A 
ATOM     20  N   UNL     1       1.115   4.664  19.178  0.00  0.00    +0.000 NA
ATOM     21  C   UNL     1       1.939   5.367  19.928  0.00  0.00    +0.000 A 
ATOM     22  S   UNL     1       3.589   5.275  19.486  0.00  0.00    +0.000 S 
BRANCH  18  24
ATOM     23  N   UNL     1       4.913   4.443  16.616  0.00  0.00    +0.000 N 
ATOM     24  C   UNL     1       4.193   3.557  17.383  0.00  0.00    +0.000 C 
ATOM     25  O   UNL     1       4.396   2.348  17.332  0.00  0.00    +0.000 OA
ATOM     26  H   UNL     1       4.751   5.436  16.738  0.00  0.00    +0.000 HD
BRANCH  23  27
ATOM     27  C   UNL     1       5.979   4.040  15.704  0.00  0.00    +0.000 C 
ATOM     28  C   UNL     1       5.505   4.136  14.263  0.00  0.00    +0.000 C 
BRANCH  27  29
ATOM     29  C   UNL     1       7.247   4.883  15.893  0.00  0.00    +0.000 C 
ATOM     30  O   UNL     1       7.601   5.773  15.130  0.00  0.00    +0.000 OA
BRANCH  29  31
ATOM     31  O   UNL     1       7.957   4.462  16.983  0.00  0.00    +0.000 OA
BRANCH  31  33
ATOM     32  C   UNL     1       7.745   6.352  18.417  0.00  0.00    +0.000 C 
ATOM     33  C   UNL     1       7.423   4.877  18.247  0.00  0.00    +0.000 C 
ENDBRANCH  31  33
ENDBRANCH  29  31
ENDBRANCH  27  29
ENDBRANCH  23  27
ENDBRANCH  18  24
ENDBRANCH   1  21
TORSDOF 8
ENDMDL
MODEL 4
REMARK VINA RESULT:      -7.5      1.360      1.827
REMARK  Name = 
REMARK  10 active torsions:
REMARK  status: ('A' for Active; 'I' for Inactive)
REMARK    1  A    between atoms: C_1  and  C_2
REMARK    2  A    between atoms: C_2  and  O_3
REMARK    3  A    between atoms: O_3  and  C_4
REMARK    4  A    between atoms: C_4  and  C_6
REMARK    5  A    between atoms: C_6  and  C_7
REMARK    6  A    between atoms: C_6  and  N_8
REMARK    7  A    between atoms: C_9  and  C_11
REMARK    8  A    between atoms: C_14  and  O_15
REMARK    9  A    between atoms: O_15  and  C_16
REMARK   10  A    between atoms: C_24  and  C_25
REMARK                            x       y       z     vdW  Elec       q    Type
REMARK                         _______ _______ _______ _____ _____    ______ ____
ROOT
ATOM      1  O   UNL     1       1.035  10.601  18.443  0.00  0.00    +0.000 OA
ENDROOT
BRANCH   1   2
ATOM      2  C   UNL     1       1.519  11.766  18.991  0.00  0.00    +0.000 A 
ATOM      3  C   UNL     1       1.202  12.184  20.284  0.00  0.00    +0.000 A 
ATOM      4  C   UNL     1       1.670  13.406  20.755  0.00  0.00    +0.000 A 
ATOM      5  C   UNL     1       2.460  14.207  19.933  0.00  0.00    +0.000 A 
ATOM      6  C   UNL     1       2.883  13.752  18.679  0.00  0.00    +0.000 A 
ATOM      7  C   UNL     1       2.404  12.520  18.210  0.00  0.00    +0.000 A 
ATOM      8  C   UNL     1       3.775  14.601  17.816  0.00  0.00    +0.000 C 
ATOM      9  C   UNL     1       4.206  15.873  18.541  0.00  0.00    +0.000 C 
ATOM     10  C   UNL     1       3.055  16.427  19.390  0.00  0.00    +0.000 C 
ATOM     11  O   UNL     1       2.746  15.458  20.416  0.00  0.00    +0.000 OA
BRANCH  10  12
ATOM     12  C   UNL     1       1.813  16.923  18.643  0.00  0.00    +0.000 A 
ATOM     13  C   UNL     1       0.526  16.681  19.158  0.00  0.00    +0.000 A 
ATOM     14  C   UNL     1      -0.618  17.128  18.489  0.00  0.00    +0.000 A 
ATOM     15  C   UNL     1      -0.494  17.848  17.304  0.00  0.00    +0.000 A 
ATOM     16  C   UNL     1       0.767  18.125  16.799  0.00  0.00    +0.000 A 
ATOM     17  C   UNL     1       1.912  17.674  17.463  0.00  0.00    +0.000 A 
ENDBRANCH  10  12
ENDBRANCH   1   2
BRANCH   1  21
ATOM     18  C   UNL     1       2.554   7.244  19.043  0.00  0.00    +0.000 A 
ATOM     19  C   UNL     1       1.858   7.666  20.158  0.00  0.00    +0.000 A 
ATOM     20  N   UNL     1       1.231   8.892  20.042  0.00  0.00    +0.000 NA
ATOM     21  C   UNL     1       1.472   9.407  18.852  0.00  0.00    +0.000 A 
ATOM     22  S   UNL     1       2.395   8.421  17.803  0.00  0.00    +0.000 S 
BRANCH  18  24
ATOM     23  N   UNL     1       4.381   6.109  18.019  0.00  0.00    +0.000 N 
ATOM     24  C   UNL     1       3.308   6.021  18.874  0.00  0.00    +0.000 C 
ATOM     25  O   UNL     1       3.026   4.974  19.449  0.00  0.00    +0.000 OA
ATOM     26  H   UNL     1       4.611   7.010  17.616  0.00  0.00    +0.000 HD
BRANCH  23  27
ATOM     27  C   UNL     1       5.281   4.995  17.736  0.00  0.00    +0.000 C 
ATOM     28  C   UNL     1       4.861   4.289  16.457  0.00  0.00    +0.000 C 
BRANCH  27  29
ATOM     29  C   UNL     1       6.743   5.449  17.626  0.00  0.00    +0.000 C 
ATOM     30  O   UNL     1       7.651   4.746  17.203  0.00  0.00    +0.000 OA
BRANCH  29  31
ATOM     31  O   UNL     1       6.902   6.712  18.125  0.00  0.00    +0.000 OA
BRANCH  31  33
ATOM     32  C   UNL     1       8.222   8.694  18.066  0.00  0.00    +0.000 C 
ATOM     33  C   UNL     1       7.519   7.642  17.225  0.00  0.00    +0.000 C 
ENDBRANCH  31  33
ENDBRANCH  29  31
ENDBRANCH  27  29
ENDBRANCH  23  27
ENDBRANCH  18  24
ENDBRANCH   1  21
TORSDOF 8
ENDMDL
MODEL 5
REMARK VINA RESULT:      -7.5      1.718      2.694
REMARK  Name = 
REMARK  10 active torsions:
REMARK  status: ('A' for Active; 'I' for Inactive)
REMARK    1  A    between atoms: C_1  and  C_2
REMARK    2  A    between atoms: C_2  and  O_3
REMARK    3  A    between atoms: O_3  and  C_4
REMARK    4  A    between atoms: C_4  and  C_6
REMARK    5  A    between atoms: C_6  and  C_7
REMARK    6  A    between atoms: C_6  and  N_8
REMARK    7  A    between atoms: C_9  and  C_11
REMARK    8  A    between atoms: C_14  and  O_15
REMARK    9  A    between atoms: O_15  and  C_16
REMARK   10  A    between atoms: C_24  and  C_25
REMARK                            x       y       z     vdW  Elec       q    Type
REMARK                         _______ _______ _______ _____ _____    ______ ____
ROOT
ATOM      1  O   UNL     1       0.312  11.218  19.252  0.00  0.00    +0.000 OA
ENDROOT
BRANCH   1   2
ATOM      2  C   UNL     1       0.977  12.388  19.537  0.00  0.00    +0.000 A 
ATOM      3  C   UNL     1       0.886  13.028  20.773  0.00  0.00    +0.000 A 
ATOM      4  C   UNL     1       1.529  14.245  20.976  0.00  0.00    +0.000 A 
ATOM      5  C   UNL     1       2.268  14.816  19.943  0.00  0.00    +0.000 A 
ATOM      6  C   UNL     1       2.465  14.133  18.738  0.00  0.00    +0.000 A 
ATOM      7  C   UNL     1       1.811  12.908  18.540  0.00  0.00    +0.000 A 
ATOM      8  C   UNL     1       3.304  14.734  17.643  0.00  0.00    +0.000 C 
ATOM      9  C   UNL     1       3.952  16.041  18.091  0.00  0.00    +0.000 C 
ATOM     10  C   UNL     1       2.989  16.846  18.975  0.00  0.00    +0.000 C 
ATOM     11  O   UNL     1       2.737  16.083  20.176  0.00  0.00    +0.000 OA
BRANCH  10  12
ATOM     12  C   UNL     1       1.708  17.365  18.315  0.00  0.00    +0.000 A 
ATOM     13  C   UNL     1       1.752  17.966  17.044  0.00  0.00    +0.000 A 
ATOM     14  C   UNL     1       0.592  18.444  16.427  0.00  0.00    +0.000 A 
ATOM     15  C   UNL     1      -0.640  18.306  17.061  0.00  0.00    +0.000 A 
ATOM     16  C   UNL     1      -0.708  17.686  18.299  0.00  0.00    +0.000 A 
ATOM     17  C   UNL     1       0.452  17.213  18.920  0.00  0.00    +0.000 A 
ENDBRANCH  10  12
ENDBRANCH   1   2
BRANCH   1  21
ATOM     18  C   UNL     1       2.212   8.034  18.823  0.00  0.00    +0.000 A 
ATOM     19  C   UNL     1       1.746   8.148  20.118  0.00  0.00    +0.000 A 
ATOM     20  N   UNL     1       1.004   9.283  20.387  0.00  0.00    +0.000 NA
ATOM     21  C   UNL     1       0.930  10.035  19.307  0.00  0.00    +0.000 A 
ATOM     22  S   UNL     1       1.680   9.388  17.913  0.00  0.00    +0.000 S 
BRANCH  18  24
ATOM     23  N   UNL     1       2.780   5.720  18.782  0.00  0.00    +0.000 N 
ATOM     24  C   UNL     1       3.013   6.970  18.257  0.00  0.00    +0.000 C 
ATOM     25  O   UNL     1       3.839   7.153  17.368  0.00  0.00    +0.000 OA
ATOM     26  H   UNL     1       2.045   5.609  19.470  0.00  0.00    +0.000 HD
BRANCH  23  27
ATOM     27  C   UNL     1       3.466   4.514  18.327  0.00  0.00    +0.000 C 
ATOM     28  C   UNL     1       4.646   4.205  19.233  0.00  0.00    +0.000 C 
BRANCH  27  29
ATOM     29  C   UNL     1       2.523   3.305  18.267  0.00  0.00    +0.000 C 
ATOM     30  O   UNL     1       2.606   2.410  17.435  0.00  0.00    +0.000 OA
BRANCH  29  31
ATOM     31  O   UNL     1       1.545   3.398  19.218  0.00  0.00    +0.000 OA
BRANCH  31  33
ATOM     32  C   UNL     1       1.643   2.908  21.547  0.00  0.00    +0.000 C 
ATOM     33  C   UNL     1       1.511   2.314  20.155  0.00  0.00    +0.000 C 
ENDBRANCH  31  33
ENDBRANCH  29  31
ENDBRANCH  27  29
ENDBRANCH  23  27
ENDBRANCH  18  24
ENDBRANCH   1  21
TORSDOF 8
ENDMDL
MODEL 6
REMARK VINA RESULT:      -7.4      1.524      2.079
REMARK  Name = 
REMARK  10 active torsions:
REMARK  status: ('A' for Active; 'I' for Inactive)
REMARK    1  A    between atoms: C_1  and  C_2
REMARK    2  A    between atoms: C_2  and  O_3
REMARK    3  A    between atoms: O_3  and  C_4
REMARK    4  A    between atoms: C_4  and  C_6
REMARK    5  A    between atoms: C_6  and  C_7
REMARK    6  A    between atoms: C_6  and  N_8
REMARK    7  A    between atoms: C_9  and  C_11
REMARK    8  A    between atoms: C_14  and  O_15
REMARK    9  A    between atoms: O_15  and  C_16
REMARK   10  A    between atoms: C_24  and  C_25
REMARK                            x       y       z     vdW  Elec       q    Type
REMARK                         _______ _______ _______ _____ _____    ______ ____
ROOT
ATOM      1  O   UNL     1       0.259  11.404  18.891  0.00  0.00    +0.000 OA
ENDROOT
BRANCH   1   2
ATOM      2  C   UNL     1       0.856  12.577  19.292  0.00  0.00    +0.000 A 
ATOM      3  C   UNL     1       0.630  13.153  20.543  0.00  0.00    +0.000 A 
ATOM      4  C   UNL     1       1.211  14.375  20.862  0.00  0.00    +0.000 A 
ATOM      5  C   UNL     1       2.023  15.018  19.931  0.00  0.00    +0.000 A 
ATOM      6  C   UNL     1       2.354  14.401  18.719  0.00  0.00    +0.000 A 
ATOM      7  C   UNL     1       1.761  13.170  18.404  0.00  0.00    +0.000 A 
ATOM      8  C   UNL     1       3.269  15.079  17.737  0.00  0.00    +0.000 C 
ATOM      9  C   UNL     1       3.830  16.381  18.305  0.00  0.00    +0.000 C 
ATOM     10  C   UNL     1       2.763  17.113  19.130  0.00  0.00    +0.000 C 
ATOM     11  O   UNL     1       2.426  16.285  20.266  0.00  0.00    +0.000 OA
BRANCH  10  12
ATOM     12  C   UNL     1       1.532  17.627  18.378  0.00  0.00    +0.000 A 
ATOM     13  C   UNL     1       0.299  17.770  19.041  0.00  0.00    +0.000 A 
ATOM     14  C   UNL     1      -0.835  18.239  18.371  0.00  0.00    +0.000 A 
ATOM     15  C   UNL     1      -0.749  18.600  17.028  0.00  0.00    +0.000 A 
ATOM     16  C   UNL     1       0.465  18.498  16.368  0.00  0.00    +0.000 A 
ATOM     17  C   UNL     1       1.599  18.023  17.035  0.00  0.00    +0.000 A 
ENDBRANCH  10  12
ENDBRANCH   1   2
BRANCH   1  21
ATOM     18  C   UNL     1       1.997   8.106  19.076  0.00  0.00    +0.000 A 
ATOM     19  C   UNL     1       1.467   8.442  20.305  0.00  0.00    +0.000 A 
ATOM     20  N   UNL     1       0.777   9.639  20.350  0.00  0.00    +0.000 NA
ATOM     21  C   UNL     1       0.806  10.217  19.166  0.00  0.00    +0.000 A 
ATOM     22  S   UNL     1       1.595   9.326  17.937  0.00  0.00    +0.000 S 
BRANCH  18  24
ATOM     23  N   UNL     1       2.372   5.769  19.352  0.00  0.00    +0.000 N 
ATOM     24  C   UNL     1       2.768   6.931  18.730  0.00  0.00    +0.000 C 
ATOM     25  O   UNL     1       3.704   6.952  17.938  0.00  0.00    +0.000 OA
ATOM     26  H   UNL     1       1.554   5.791  19.950  0.00  0.00    +0.000 HD
BRANCH  23  27
ATOM     27  C   UNL     1       3.003   4.474  19.117  0.00  0.00    +0.000 C 
ATOM     28  C   UNL     1       2.715   3.530  20.273  0.00  0.00    +0.000 C 
BRANCH  27  29
ATOM     29  C   UNL     1       2.542   3.840  17.798  0.00  0.00    +0.000 C 
ATOM     30  O   UNL     1       1.395   3.893  17.374  0.00  0.00    +0.000 OA
BRANCH  29  31
ATOM     31  O   UNL     1       3.564   3.155  17.201  0.00  0.00    +0.000 OA
BRANCH  31  33
ATOM     32  C   UNL     1       5.105   4.336  15.820  0.00  0.00    +0.000 C 
ATOM     33  C   UNL     1       4.832   3.824  17.224  0.00  0.00    +0.000 C 
ENDBRANCH  31  33
ENDBRANCH  29  31
ENDBRANCH  27  29
ENDBRANCH  23  27
ENDBRANCH  18  24
ENDBRANCH   1  21
TORSDOF 8
ENDMDL
MODEL 7
REMARK VINA RESULT:      -7.4      0.574      1.029
REMARK  Name = 
REMARK  10 active torsions:
REMARK  status: ('A' for Active; 'I' for Inactive)
REMARK    1  A    between atoms: C_1  and  C_2
REMARK    2  A    between atoms: C_2  and  O_3
REMARK    3  A    between atoms: O_3  and  C_4
REMARK    4  A    between atoms: C_4  and  C_6
REMARK    5  A    between atoms: C_6  and  C_7
REMARK    6  A    between atoms: C_6  and  N_8
REMARK    7  A    between atoms: C_9  and  C_11
REMARK    8  A    between atoms: C_14  and  O_15
REMARK    9  A    between atoms: O_15  and  C_16
REMARK   10  A    between atoms: C_24  and  C_25
REMARK                            x       y       z     vdW  Elec       q    Type
REMARK                         _______ _______ _______ _____ _____    ______ ____
ROOT
ATOM      1  O   UNL     1       0.505  10.799  18.796  0.00  0.00    +0.000 OA
ENDROOT
BRANCH   1   2
ATOM      2  C   UNL     1       1.050  11.965  19.282  0.00  0.00    +0.000 A 
ATOM      3  C   UNL     1       0.732  12.482  20.539  0.00  0.00    +0.000 A 
ATOM      4  C   UNL     1       1.265  13.701  20.945  0.00  0.00    +0.000 A 
ATOM      5  C   UNL     1       2.121  14.398  20.095  0.00  0.00    +0.000 A 
ATOM      6  C   UNL     1       2.541  13.839  18.883  0.00  0.00    +0.000 A 
ATOM      7  C   UNL     1       1.996  12.611  18.480  0.00  0.00    +0.000 A 
ATOM      8  C   UNL     1       3.503  14.575  17.991  0.00  0.00    +0.000 C 
ATOM      9  C   UNL     1       3.998  15.862  18.647  0.00  0.00    +0.000 C 
ATOM     10  C   UNL     1       2.866  16.538  19.431  0.00  0.00    +0.000 C 
ATOM     11  O   UNL     1       2.475  15.657  20.507  0.00  0.00    +0.000 OA
BRANCH  10  12
ATOM     12  C   UNL     1       1.674  17.061  18.623  0.00  0.00    +0.000 A 
ATOM     13  C   UNL     1       0.361  16.897  19.102  0.00  0.00    +0.000 A 
ATOM     14  C   UNL     1      -0.738  17.369  18.378  0.00  0.00    +0.000 A 
ATOM     15  C   UNL     1      -0.542  18.038  17.172  0.00  0.00    +0.000 A 
ATOM     16  C   UNL     1       0.747  18.239  16.702  0.00  0.00    +0.000 A 
ATOM     17  C   UNL     1       1.847  17.762  17.421  0.00  0.00    +0.000 A 
ENDBRANCH  10  12
ENDBRANCH   1   2
BRANCH   1  21
ATOM     18  C   UNL     1       2.390   7.580  18.921  0.00  0.00    +0.000 A 
ATOM     19  C   UNL     1       2.505   8.159  17.673  0.00  0.00    +0.000 A 
ATOM     20  N   UNL     1       1.864   9.374  17.517  0.00  0.00    +0.000 NA
ATOM     21  C   UNL     1       1.246   9.699  18.635  0.00  0.00    +0.000 A 
ATOM     22  S   UNL     1       1.462   8.608  19.934  0.00  0.00    +0.000 S 
BRANCH  18  24
ATOM     23  N   UNL     1       3.956   5.815  18.592  0.00  0.00    +0.000 N 
ATOM     24  C   UNL     1       2.942   6.321  19.371  0.00  0.00    +0.000 C 
ATOM     25  O   UNL     1       2.549   5.737  20.376  0.00  0.00    +0.000 OA
ATOM     26  H   UNL     1       4.288   6.364  17.807  0.00  0.00    +0.000 HD
BRANCH  23  27
ATOM     27  C   UNL     1       4.661   4.572  18.891  0.00  0.00    +0.000 C 
ATOM     28  C   UNL     1       3.801   3.375  18.518  0.00  0.00    +0.000 C 
BRANCH  27  29
ATOM     29  C   UNL     1       6.013   4.489  18.170  0.00  0.00    +0.000 C 
ATOM     30  O   UNL     1       7.094   4.433  18.742  0.00  0.00    +0.000 OA
BRANCH  29  31
ATOM     31  O   UNL     1       5.850   4.554  16.814  0.00  0.00    +0.000 OA
BRANCH  31  33
ATOM     32  C   UNL     1       6.729   4.686  14.604  0.00  0.00    +0.000 C 
ATOM     33  C   UNL     1       7.050   4.361  16.053  0.00  0.00    +0.000 C 
ENDBRANCH  31  33
ENDBRANCH  29  31
ENDBRANCH  27  29
ENDBRANCH  23  27
ENDBRANCH  18  24
ENDBRANCH   1  21
TORSDOF 8
ENDMDL
MODEL 8
REMARK VINA RESULT:      -7.4      1.105      1.450
REMARK  Name = 
REMARK  10 active torsions:
REMARK  status: ('A' for Active; 'I' for Inactive)
REMARK    1  A    between atoms: C_1  and  C_2
REMARK    2  A    between atoms: C_2  and  O_3
REMARK    3  A    between atoms: O_3  and  C_4
REMARK    4  A    between atoms: C_4  and  C_6
REMARK    5  A    between atoms: C_6  and  C_7
REMARK    6  A    between atoms: C_6  and  N_8
REMARK    7  A    between atoms: C_9  and  C_11
REMARK    8  A    between atoms: C_14  and  O_15
REMARK    9  A    between atoms: O_15  and  C_16
REMARK   10  A    between atoms: C_24  and  C_25
REMARK                            x       y       z     vdW  Elec       q    Type
REMARK                         _______ _______ _______ _____ _____    ______ ____
ROOT
ATOM      1  O   UNL     1       0.871  10.945  18.518  0.00  0.00    +0.000 OA
ENDROOT
BRANCH   1   2
ATOM      2  C   UNL     1       1.384  12.122  19.011  0.00  0.00    +0.000 A 
ATOM      3  C   UNL     1       1.079  12.606  20.284  0.00  0.00    +0.000 A 
ATOM      4  C   UNL     1       1.576  13.837  20.698  0.00  0.00    +0.000 A 
ATOM      5  C   UNL     1       2.382  14.580  19.839  0.00  0.00    +0.000 A 
ATOM      6  C   UNL     1       2.792  14.059  18.607  0.00  0.00    +0.000 A 
ATOM      7  C   UNL     1       2.284  12.818  18.196  0.00  0.00    +0.000 A 
ATOM      8  C   UNL     1       3.702  14.846  17.705  0.00  0.00    +0.000 C 
ATOM      9  C   UNL     1       4.165  16.139  18.370  0.00  0.00    +0.000 C 
ATOM     10  C   UNL     1       3.028  16.759  19.195  0.00  0.00    +0.000 C 
ATOM     11  O   UNL     1       2.698  15.845  20.265  0.00  0.00    +0.000 OA
BRANCH  10  12
ATOM     12  C   UNL     1       1.797  17.249  18.426  0.00  0.00    +0.000 A 
ATOM     13  C   UNL     1       1.939  17.861  17.167  0.00  0.00    +0.000 A 
ATOM     14  C   UNL     1       0.826  18.312  16.451  0.00  0.00    +0.000 A 
ATOM     15  C   UNL     1      -0.454  18.137  16.971  0.00  0.00    +0.000 A 
ATOM     16  C   UNL     1      -0.615  17.505  18.195  0.00  0.00    +0.000 A 
ATOM     17  C   UNL     1       0.497  17.059  18.915  0.00  0.00    +0.000 A 
ENDBRANCH  10  12
ENDBRANCH   1   2
BRANCH   1  21
ATOM     18  C   UNL     1       2.131   7.546  19.411  0.00  0.00    +0.000 A 
ATOM     19  C   UNL     1       1.512   8.133  20.497  0.00  0.00    +0.000 A 
ATOM     20  N   UNL     1       0.983   9.391  20.275  0.00  0.00    +0.000 NA
ATOM     21  C   UNL     1       1.223   9.763  19.033  0.00  0.00    +0.000 A 
ATOM     22  S   UNL     1       2.024   8.605  18.064  0.00  0.00    +0.000 S 
BRANCH  18  24
ATOM     23  N   UNL     1       3.330   5.936  18.128  0.00  0.00    +0.000 N 
ATOM     24  C   UNL     1       2.776   6.253  19.346  0.00  0.00    +0.000 C 
ATOM     25  O   UNL     1       2.838   5.485  20.302  0.00  0.00    +0.000 OA
ATOM     26  H   UNL     1       3.307   6.628  17.387  0.00  0.00    +0.000 HD
BRANCH  23  27
ATOM     27  C   UNL     1       4.046   4.692  17.866  0.00  0.00    +0.000 C 
ATOM     28  C   UNL     1       3.120   3.675  17.219  0.00  0.00    +0.000 C 
BRANCH  27  29
ATOM     29  C   UNL     1       5.279   4.913  16.980  0.00  0.00    +0.000 C 
ATOM     30  O   UNL     1       5.328   4.635  15.789  0.00  0.00    +0.000 OA
BRANCH  29  31
ATOM     31  O   UNL     1       6.329   5.396  17.712  0.00  0.00    +0.000 OA
BRANCH  31  33
ATOM     32  C   UNL     1       7.903   7.114  18.207  0.00  0.00    +0.000 C 
ATOM     33  C   UNL     1       6.989   6.534  17.141  0.00  0.00    +0.000 C 
ENDBRANCH  31  33
ENDBRANCH  29  31
ENDBRANCH  27  29
ENDBRANCH  23  27
ENDBRANCH  18  24
ENDBRANCH   1  21
TORSDOF 8
ENDMDL
MODEL 9
REMARK VINA RESULT:      -7.3      0.986      1.387
REMARK  Name = 
REMARK  10 active torsions:
REMARK  status: ('A' for Active; 'I' for Inactive)
REMARK    1  A    between atoms: C_1  and  C_2
REMARK    2  A    between atoms: C_2  and  O_3
REMARK    3  A    between atoms: O_3  and  C_4
REMARK    4  A    between atoms: C_4  and  C_6
REMARK    5  A    between atoms: C_6  and  C_7
REMARK    6  A    between atoms: C_6  and  N_8
REMARK    7  A    between atoms: C_9  and  C_11
REMARK    8  A    between atoms: C_14  and  O_15
REMARK    9  A    between atoms: O_15  and  C_16
REMARK   10  A    between atoms: C_24  and  C_25
REMARK                            x       y       z     vdW  Elec       q    Type
REMARK                         _______ _______ _______ _____ _____    ______ ____
ROOT
ATOM      1  O   UNL     1       1.249  10.785  18.354  0.00  0.00    +0.000 OA
ENDROOT
BRANCH   1   2
ATOM      2  C   UNL     1       1.697  11.971  18.889  0.00  0.00    +0.000 A 
ATOM      3  C   UNL     1       1.374  12.389  20.180  0.00  0.00    +0.000 A 
ATOM      4  C   UNL     1       1.803  13.630  20.638  0.00  0.00    +0.000 A 
ATOM      5  C   UNL     1       2.560  14.450  19.804  0.00  0.00    +0.000 A 
ATOM      6  C   UNL     1       2.990  13.999  18.551  0.00  0.00    +0.000 A 
ATOM      7  C   UNL     1       2.551  12.747  18.097  0.00  0.00    +0.000 A 
ATOM      8  C   UNL     1       3.847  14.870  17.675  0.00  0.00    +0.000 C 
ATOM      9  C   UNL     1       4.240  16.162  18.387  0.00  0.00    +0.000 C 
ATOM     10  C   UNL     1       3.076  16.684  19.239  0.00  0.00    +0.000 C 
ATOM     11  O   UNL     1       2.806  15.714  20.275  0.00  0.00    +0.000 OA
BRANCH  10  12
ATOM     12  C   UNL     1       1.814  17.131  18.496  0.00  0.00    +0.000 A 
ATOM     13  C   UNL     1       0.540  16.896  19.046  0.00  0.00    +0.000 A 
ATOM     14  C   UNL     1      -0.622  17.298  18.382  0.00  0.00    +0.000 A 
ATOM     15  C   UNL     1      -0.531  17.968  17.164  0.00  0.00    +0.000 A 
ATOM     16  C   UNL     1       0.716  18.239  16.623  0.00  0.00    +0.000 A 
ATOM     17  C   UNL     1       1.880  17.832  17.283  0.00  0.00    +0.000 A 
ENDBRANCH  10  12
ENDBRANCH   1   2
BRANCH   1  21
ATOM     18  C   UNL     1       2.079   7.365  19.596  0.00  0.00    +0.000 A 
ATOM     19  C   UNL     1       1.463   8.102  20.587  0.00  0.00    +0.000 A 
ATOM     20  N   UNL     1       1.087   9.384  20.231  0.00  0.00    +0.000 NA
ATOM     21  C   UNL     1       1.439   9.623  18.984  0.00  0.00    +0.000 A 
ATOM     22  S   UNL     1       2.169   8.309  18.166  0.00  0.00    +0.000 S 
BRANCH  18  24
ATOM     23  N   UNL     1       3.319   5.595  18.592  0.00  0.00    +0.000 N 
ATOM     24  C   UNL     1       2.584   6.011  19.678  0.00  0.00    +0.000 C 
ATOM     25  O   UNL     1       2.384   5.277  20.641  0.00  0.00    +0.000 OA
ATOM     26  H   UNL     1       3.509   6.257  17.849  0.00  0.00    +0.000 HD
BRANCH  23  27
ATOM     27  C   UNL     1       3.935   4.275  18.494  0.00  0.00    +0.000 C 
ATOM     28  C   UNL     1       3.113   3.375  17.586  0.00  0.00    +0.000 C 
BRANCH  27  29
ATOM     29  C   UNL     1       5.380   4.353  17.983  0.00  0.00    +0.000 C 
ATOM     30  O   UNL     1       6.349   4.582  18.695  0.00  0.00    +0.000 OA
BRANCH  29  31
ATOM     31  O   UNL     1       5.429   4.200  16.625  0.00  0.00    +0.000 OA
BRANCH  31  33
ATOM     32  C   UNL     1       6.960   4.824  14.909  0.00  0.00    +0.000 C 
ATOM     33  C   UNL     1       5.936   5.334  15.909  0.00  0.00    +0.000 C 
ENDBRANCH  31  33
ENDBRANCH  29  31
ENDBRANCH  27  29
ENDBRANCH  23  27
ENDBRANCH  18  24
ENDBRANCH   1  21
TORSDOF 8
ENDMDL
