MODEL 1
REMARK VINA RESULT:      -7.6      0.000      0.000
REMARK  Name = 
REMARK  15 active torsions:
REMARK  status: ('A' for Active; 'I' for Inactive)
REMARK    1  A    between atoms: C_4  and  C_5
REMARK    2  A    between atoms: C_10  and  C_11
REMARK    3  A    between atoms: C_15  and  C_16
REMARK    4  A    between atoms: C_16  and  C_17
REMARK    5  A    between atoms: C_16  and  C_18
REMARK    6  A    between atoms: C_18  and  C_19
REMARK    7  A    between atoms: C_19  and  C_20
REMARK    8  A    between atoms: C_20  and  C_21
REMARK    9  A    between atoms: C_21  and  C_22
REMARK   10  A    between atoms: C_21  and  C_23
REMARK   11  A    between atoms: C_21  and  O_24
REMARK   12  A    between atoms: C_26  and  O_27
REMARK   13  A    between atoms: C_28  and  C_29
REMARK   14  A    between atoms: C_29  and  O_30
REMARK   15  A    between atoms: C_31  and  O_32
REMARK                            x       y       z     vdW  Elec       q    Type
REMARK                         _______ _______ _______ _____ _____    ______ ____
ROOT
ATOM      1  C   UNL     1       1.048   7.873  20.288  0.00  0.00    +0.000 C 
ATOM      2  C   UNL     1       0.137   8.659  20.898  0.00  0.00    +0.000 C 
ATOM      3  C   UNL     1      -0.299   8.529  22.355  0.00  0.00    +0.000 C 
ATOM      4  C   UNL     1      -0.317   9.858  23.138  0.00  0.00    +0.000 C 
ATOM      5  C   UNL     1      -0.928  11.025  22.348  0.00  0.00    +0.000 C 
ATOM      6  C   UNL     1      -0.268  11.151  20.958  0.00  0.00    +0.000 C 
ATOM      7  C   UNL     1       1.239  11.423  21.125  0.00  0.00    +0.000 C 
ATOM      8  C   UNL     1      -0.540   9.823  20.203  0.00  0.00    +0.000 C 
ATOM      9  C   UNL     1      -0.231  10.182  18.750  0.00  0.00    +0.000 C 
ATOM     10  C   UNL     1      -0.758  11.613  18.591  0.00  0.00    +0.000 C 
ATOM     11  C   UNL     1      -0.977  12.169  20.018  0.00  0.00    +0.000 C 
ENDROOT
BRANCH   1  15
ATOM     12  C   UNL     1       2.596   6.276  17.937  0.00  0.00    +0.000 C 
ATOM     13  C   UNL     1       2.095   5.375  18.807  0.00  0.00    +0.000 C 
ATOM     14  C   UNL     1       2.123   5.616  20.254  0.00  0.00    +0.000 C 
ATOM     15  C   UNL     1       1.694   6.728  20.886  0.00  0.00    +0.000 C 
ATOM     16  C   UNL     1       2.670   4.463  21.083  0.00  0.00    +0.000 C 
ATOM     17  C   UNL     1       2.057   3.110  20.685  0.00  0.00    +0.000 C 
ATOM     18  C   UNL     1       2.131   2.852  19.168  0.00  0.00    +0.000 C 
ATOM     19  C   UNL     1       1.496   4.034  18.408  0.00  0.00    +0.000 C 
BRANCH  17  20
ATOM     20  O   UNL     1       0.693   3.034  21.125  0.00  0.00    +0.000 OA
ATOM     21  H   UNL     1       0.605   2.289  21.745  0.00  0.00    +0.000 HD
ENDBRANCH  17  20
BRANCH  19  22
ATOM     22  O   UNL     1       1.560   3.799  17.000  0.00  0.00    +0.000 OA
ATOM     23  H   UNL     1       1.404   4.643  16.544  0.00  0.00    +0.000 HD
ENDBRANCH  19  22
BRANCH  18  24
ATOM     24  C   UNL     1       3.573   2.569  18.719  0.00  0.00    +0.000 C 
BRANCH  24  25
ATOM     25  O   UNL     1       3.715   1.218  18.297  0.00  0.00    +0.000 OA
ATOM     26  H   UNL     1       3.083   0.684  18.813  0.00  0.00    +0.000 HD
ENDBRANCH  24  25
ENDBRANCH  18  24
ENDBRANCH   1  15
BRANCH  11  27
ATOM     27  C   UNL     1      -0.699  13.693  20.172  0.00  0.00    +0.000 C 
ATOM     28  C   UNL     1      -0.162  14.430  18.936  0.00  0.00    +0.000 C 
BRANCH  27  29
ATOM     29  C   UNL     1      -1.980  14.458  20.597  0.00  0.00    +0.000 C 
BRANCH  29  30
ATOM     30  C   UNL     1      -3.117  13.615  21.172  0.00  0.00    +0.000 C 
BRANCH  30  31
ATOM     31  C   UNL     1      -3.179  13.653  22.699  0.00  0.00    +0.000 C 
BRANCH  31  32
ATOM     32  C   UNL     1      -4.532  13.225  23.293  0.00  0.00    +0.000 C 
ATOM     33  C   UNL     1      -4.371  12.468  24.613  0.00  0.00    +0.000 C 
ATOM     34  C   UNL     1      -5.472  14.420  23.463  0.00  0.00    +0.000 C 
BRANCH  32  35
ATOM     35  O   UNL     1      -5.157  12.341  22.352  0.00  0.00    +0.000 OA
ATOM     36  H   UNL     1      -4.556  12.234  21.596  0.00  0.00    +0.000 HD
ENDBRANCH  32  35
ENDBRANCH  31  32
ENDBRANCH  30  31
ENDBRANCH  29  30
ENDBRANCH  27  29
ENDBRANCH  11  27
TORSDOF 11
ENDMDL
MODEL 2
REMARK VINA RESULT:      -7.6      0.784      1.004
REMARK  Name = 
REMARK  15 active torsions:
REMARK  status: ('A' for Active; 'I' for Inactive)
REMARK    1  A    between atoms: C_4  and  C_5
REMARK    2  A    between atoms: C_10  and  C_11
REMARK    3  A    between atoms: C_15  and  C_16
REMARK    4  A    between atoms: C_16  and  C_17
REMARK    5  A    between atoms: C_16  and  C_18
REMARK    6  A    between atoms: C_18  and  C_19
REMARK    7  A    between atoms: C_19  and  C_20
REMARK    8  A    between atoms: C_20  and  C_21
REMARK    9  A    between atoms: C_21  and  C_22
REMARK   10  A    between atoms: C_21  and  C_23
REMARK   11  A    between atoms: C_21  and  O_24
REMARK   12  A    between atoms: C_26  and  O_27
REMARK   13  A    between atoms: C_28  and  C_29
REMARK   14  A    between atoms: C_29  and  O_30
REMARK   15  A    between atoms: C_31  and  O_32
REMARK                            x       y       z     vdW  Elec       q    Type
REMARK                         _______ _______ _______ _____ _____    ______ ____
ROOT
ATOM      1  C   UNL     1       1.014   7.871  20.335  0.00  0.00    +0.000 C 
ATOM      2  C   UNL     1       0.112   8.669  20.943  0.00  0.00    +0.000 C 
ATOM      3  C   UNL     1      -0.322   8.549  22.403  0.00  0.00    +0.000 C 
ATOM      4  C   UNL     1      -0.325   9.882  23.179  0.00  0.00    +0.000 C 
ATOM      5  C   UNL     1      -0.926  11.051  22.385  0.00  0.00    +0.000 C 
ATOM      6  C   UNL     1      -0.270  11.164  20.993  0.00  0.00    +0.000 C 
ATOM      7  C   UNL     1       1.240  11.423  21.154  0.00  0.00    +0.000 C 
ATOM      8  C   UNL     1      -0.556   9.836  20.245  0.00  0.00    +0.000 C 
ATOM      9  C   UNL     1      -0.248  10.184  18.789  0.00  0.00    +0.000 C 
ATOM     10  C   UNL     1      -0.762  11.620  18.625  0.00  0.00    +0.000 C 
ATOM     11  C   UNL     1      -0.971  12.185  20.050  0.00  0.00    +0.000 C 
ENDROOT
BRANCH   1  15
ATOM     12  C   UNL     1       2.644   6.318  18.010  0.00  0.00    +0.000 C 
ATOM     13  C   UNL     1       2.124   5.401  18.853  0.00  0.00    +0.000 C 
ATOM     14  C   UNL     1       2.107   5.623  20.303  0.00  0.00    +0.000 C 
ATOM     15  C   UNL     1       1.651   6.723  20.936  0.00  0.00    +0.000 C 
ATOM     16  C   UNL     1       2.638   4.463  21.132  0.00  0.00    +0.000 C 
ATOM     17  C   UNL     1       2.048   3.111  20.698  0.00  0.00    +0.000 C 
ATOM     18  C   UNL     1       2.170   2.874  19.181  0.00  0.00    +0.000 C 
ATOM     19  C   UNL     1       1.548   4.061  18.418  0.00  0.00    +0.000 C 
BRANCH  17  20
ATOM     20  O   UNL     1       0.672   3.018  21.095  0.00  0.00    +0.000 OA
ATOM     21  H   UNL     1       0.599   3.270  22.033  0.00  0.00    +0.000 HD
ENDBRANCH  17  20
BRANCH  19  22
ATOM     22  O   UNL     1       1.656   3.846  17.009  0.00  0.00    +0.000 OA
ATOM     23  H   UNL     1       1.886   2.914  16.861  0.00  0.00    +0.000 HD
ENDBRANCH  19  22
BRANCH  18  24
ATOM     24  C   UNL     1       3.627   2.608  18.771  0.00  0.00    +0.000 C 
BRANCH  24  25
ATOM     25  O   UNL     1       3.786   1.272  18.311  0.00  0.00    +0.000 OA
ATOM     26  H   UNL     1       4.730   1.147  18.101  0.00  0.00    +0.000 HD
ENDBRANCH  24  25
ENDBRANCH  18  24
ENDBRANCH   1  15
BRANCH  11  27
ATOM     27  C   UNL     1      -0.679  13.707  20.196  0.00  0.00    +0.000 C 
ATOM     28  C   UNL     1      -0.078  14.419  18.974  0.00  0.00    +0.000 C 
BRANCH  27  29
ATOM     29  C   UNL     1      -1.966  14.495  20.554  0.00  0.00    +0.000 C 
BRANCH  29  30
ATOM     30  C   UNL     1      -2.906  13.839  21.564  0.00  0.00    +0.000 C 
BRANCH  30  31
ATOM     31  C   UNL     1      -2.626  14.264  23.007  0.00  0.00    +0.000 C 
BRANCH  31  32
ATOM     32  C   UNL     1      -3.790  14.013  23.981  0.00  0.00    +0.000 C 
ATOM     33  C   UNL     1      -5.110  14.591  23.466  0.00  0.00    +0.000 C 
ATOM     34  C   UNL     1      -3.939  12.526  24.306  0.00  0.00    +0.000 C 
BRANCH  32  35
ATOM     35  O   UNL     1      -3.473  14.674  25.214  0.00  0.00    +0.000 OA
ATOM     36  H   UNL     1      -4.247  14.609  25.798  0.00  0.00    +0.000 HD
ENDBRANCH  32  35
ENDBRANCH  31  32
ENDBRANCH  30  31
ENDBRANCH  29  30
ENDBRANCH  27  29
ENDBRANCH  11  27
TORSDOF 11
ENDMDL
MODEL 3
REMARK VINA RESULT:      -7.3      1.937      2.585
REMARK  Name = 
REMARK  15 active torsions:
REMARK  status: ('A' for Active; 'I' for Inactive)
REMARK    1  A    between atoms: C_4  and  C_5
REMARK    2  A    between atoms: C_10  and  C_11
REMARK    3  A    between atoms: C_15  and  C_16
REMARK    4  A    between atoms: C_16  and  C_17
REMARK    5  A    between atoms: C_16  and  C_18
REMARK    6  A    between atoms: C_18  and  C_19
REMARK    7  A    between atoms: C_19  and  C_20
REMARK    8  A    between atoms: C_20  and  C_21
REMARK    9  A    between atoms: C_21  and  C_22
REMARK   10  A    between atoms: C_21  and  C_23
REMARK   11  A    between atoms: C_21  and  O_24
REMARK   12  A    between atoms: C_26  and  O_27
REMARK   13  A    between atoms: C_28  and  C_29
REMARK   14  A    between atoms: C_29  and  O_30
REMARK   15  A    between atoms: C_31  and  O_32
REMARK                            x       y       z     vdW  Elec       q    Type
REMARK                         _______ _______ _______ _____ _____    ______ ____
ROOT
ATOM      1  C   UNL     1       1.016   7.904  20.312  0.00  0.00    +0.000 C 
ATOM      2  C   UNL     1       0.101   8.723  20.871  0.00  0.00    +0.000 C 
ATOM      3  C   UNL     1      -0.397   8.629  22.311  0.00  0.00    +0.000 C 
ATOM      4  C   UNL     1      -0.413   9.971  23.070  0.00  0.00    +0.000 C 
ATOM      5  C   UNL     1      -0.961  11.139  22.237  0.00  0.00    +0.000 C 
ATOM      6  C   UNL     1      -0.243  11.225  20.874  0.00  0.00    +0.000 C 
ATOM      7  C   UNL     1       1.262  11.463  21.098  0.00  0.00    +0.000 C 
ATOM      8  C   UNL     1      -0.517   9.891  20.130  0.00  0.00    +0.000 C 
ATOM      9  C   UNL     1      -0.140  10.217  18.685  0.00  0.00    +0.000 C 
ATOM     10  C   UNL     1      -0.624  11.658  18.481  0.00  0.00    +0.000 C 
ATOM     11  C   UNL     1      -0.887  12.244  19.889  0.00  0.00    +0.000 C 
ENDROOT
BRANCH   1  15
ATOM     12  C   UNL     1       2.798   6.350  18.102  0.00  0.00    +0.000 C 
ATOM     13  C   UNL     1       2.220   5.434  18.906  0.00  0.00    +0.000 C 
ATOM     14  C   UNL     1       2.105   5.654  20.352  0.00  0.00    +0.000 C 
ATOM     15  C   UNL     1       1.609   6.754  20.954  0.00  0.00    +0.000 C 
ATOM     16  C   UNL     1       2.576   4.492  21.214  0.00  0.00    +0.000 C 
ATOM     17  C   UNL     1       2.014   3.142  20.740  0.00  0.00    +0.000 C 
ATOM     18  C   UNL     1       2.238   2.906  19.234  0.00  0.00    +0.000 C 
ATOM     19  C   UNL     1       1.673   4.095  18.431  0.00  0.00    +0.000 C 
BRANCH  17  20
ATOM     20  O   UNL     1       0.614   3.052  21.042  0.00  0.00    +0.000 OA
ATOM     21  H   UNL     1       0.409   2.139  21.310  0.00  0.00    +0.000 HD
ENDBRANCH  17  20
BRANCH  19  22
ATOM     22  O   UNL     1       1.876   3.882  17.033  0.00  0.00    +0.000 OA
ATOM     23  H   UNL     1       1.707   2.944  16.842  0.00  0.00    +0.000 HD
ENDBRANCH  19  22
BRANCH  18  24
ATOM     24  C   UNL     1       3.719   2.638  18.925  0.00  0.00    +0.000 C 
BRANCH  24  25
ATOM     25  O   UNL     1       3.851   1.700  17.863  0.00  0.00    +0.000 OA
ATOM     26  H   UNL     1       4.382   2.124  17.164  0.00  0.00    +0.000 HD
ENDBRANCH  24  25
ENDBRANCH  18  24
ENDBRANCH   1  15
BRANCH  11  27
ATOM     27  C   UNL     1      -0.577  13.763  20.030  0.00  0.00    +0.000 C 
ATOM     28  C   UNL     1      -0.191  14.515  18.747  0.00  0.00    +0.000 C 
BRANCH  27  29
ATOM     29  C   UNL     1      -1.788  14.532  20.622  0.00  0.00    +0.000 C 
BRANCH  29  30
ATOM     30  C   UNL     1      -1.587  15.158  22.001  0.00  0.00    +0.000 C 
BRANCH  30  31
ATOM     31  C   UNL     1      -0.176  14.950  22.553  0.00  0.00    +0.000 C 
BRANCH  31  32
ATOM     32  C   UNL     1       0.689  16.222  22.587  0.00  0.00    +0.000 C 
ATOM     33  C   UNL     1       1.781  16.206  21.515  0.00  0.00    +0.000 C 
ATOM     34  C   UNL     1      -0.167  17.484  22.471  0.00  0.00    +0.000 C 
BRANCH  32  35
ATOM     35  O   UNL     1       1.331  16.276  23.868  0.00  0.00    +0.000 OA
ATOM     36  H   UNL     1       1.145  15.442  24.332  0.00  0.00    +0.000 HD
ENDBRANCH  32  35
ENDBRANCH  31  32
ENDBRANCH  30  31
ENDBRANCH  29  30
ENDBRANCH  27  29
ENDBRANCH  11  27
TORSDOF 11
ENDMDL
MODEL 4
REMARK VINA RESULT:      -7.3      1.147      1.310
REMARK  Name = 
REMARK  15 active torsions:
REMARK  status: ('A' for Active; 'I' for Inactive)
REMARK    1  A    between atoms: C_4  and  C_5
REMARK    2  A    between atoms: C_10  and  C_11
REMARK    3  A    between atoms: C_15  and  C_16
REMARK    4  A    between atoms: C_16  and  C_17
REMARK    5  A    between atoms: C_16  and  C_18
REMARK    6  A    between atoms: C_18  and  C_19
REMARK    7  A    between atoms: C_19  and  C_20
REMARK    8  A    between atoms: C_20  and  C_21
REMARK    9  A    between atoms: C_21  and  C_22
REMARK   10  A    between atoms: C_21  and  C_23
REMARK   11  A    between atoms: C_21  and  O_24
REMARK   12  A    between atoms: C_26  and  O_27
REMARK   13  A    between atoms: C_28  and  C_29
REMARK   14  A    between atoms: C_29  and  O_30
REMARK   15  A    between atoms: C_31  and  O_32
REMARK                            x       y       z     vdW  Elec       q    Type
REMARK                         _______ _______ _______ _____ _____    ______ ____
ROOT
ATOM      1  C   UNL     1       1.018   7.820  20.365  0.00  0.00    +0.000 C 
ATOM      2  C   UNL     1       0.105   8.632  20.938  0.00  0.00    +0.000 C 
ATOM      3  C   UNL     1      -0.366   8.537  22.387  0.00  0.00    +0.000 C 
ATOM      4  C   UNL     1      -0.381   9.882  23.143  0.00  0.00    +0.000 C 
ATOM      5  C   UNL     1      -0.956  11.041  22.316  0.00  0.00    +0.000 C 
ATOM      6  C   UNL     1      -0.264  11.130  20.940  0.00  0.00    +0.000 C 
ATOM      7  C   UNL     1       1.243  11.383  21.136  0.00  0.00    +0.000 C 
ATOM      8  C   UNL     1      -0.538   9.791  20.205  0.00  0.00    +0.000 C 
ATOM      9  C   UNL     1      -0.191  10.116  18.752  0.00  0.00    +0.000 C 
ATOM     10  C   UNL     1      -0.693  11.551  18.553  0.00  0.00    +0.000 C 
ATOM     11  C   UNL     1      -0.935  12.139  19.964  0.00  0.00    +0.000 C 
ENDROOT
BRANCH   1  15
ATOM     12  C   UNL     1       2.755   6.262  18.122  0.00  0.00    +0.000 C 
ATOM     13  C   UNL     1       2.203   5.348  18.946  0.00  0.00    +0.000 C 
ATOM     14  C   UNL     1       2.122   5.577  20.393  0.00  0.00    +0.000 C 
ATOM     15  C   UNL     1       1.634   6.678  21.000  0.00  0.00    +0.000 C 
ATOM     16  C   UNL     1       2.621   4.424  21.251  0.00  0.00    +0.000 C 
ATOM     17  C   UNL     1       2.057   3.067  20.799  0.00  0.00    +0.000 C 
ATOM     18  C   UNL     1       2.245   2.823  19.290  0.00  0.00    +0.000 C 
ATOM     19  C   UNL     1       1.653   4.003  18.494  0.00  0.00    +0.000 C 
BRANCH  17  20
ATOM     20  O   UNL     1       0.665   2.970  21.136  0.00  0.00    +0.000 OA
ATOM     21  H   UNL     1       0.218   2.421  20.468  0.00  0.00    +0.000 HD
ENDBRANCH  17  20
BRANCH  19  22
ATOM     22  O   UNL     1       1.823   3.781  17.092  0.00  0.00    +0.000 OA
ATOM     23  H   UNL     1       2.310   2.949  16.973  0.00  0.00    +0.000 HD
ENDBRANCH  19  22
BRANCH  18  24
ATOM     24  C   UNL     1       3.720   2.561  18.946  0.00  0.00    +0.000 C 
BRANCH  24  25
ATOM     25  O   UNL     1       3.831   1.676  17.838  0.00  0.00    +0.000 OA
ATOM     26  H   UNL     1       4.070   0.799  18.189  0.00  0.00    +0.000 HD
ENDBRANCH  24  25
ENDBRANCH  18  24
ENDBRANCH   1  15
BRANCH  11  27
ATOM     27  C   UNL     1      -0.638  13.662  20.094  0.00  0.00    +0.000 C 
ATOM     28  C   UNL     1      -0.085  14.371  18.848  0.00  0.00    +0.000 C 
BRANCH  27  29
ATOM     29  C   UNL     1      -1.911  14.451  20.500  0.00  0.00    +0.000 C 
BRANCH  29  30
ATOM     30  C   UNL     1      -2.992  13.664  21.239  0.00  0.00    +0.000 C 
BRANCH  30  31
ATOM     31  C   UNL     1      -4.042  13.063  20.302  0.00  0.00    +0.000 C 
BRANCH  31  32
ATOM     32  C   UNL     1      -5.447  13.673  20.446  0.00  0.00    +0.000 C 
ATOM     33  C   UNL     1      -6.518  12.607  20.688  0.00  0.00    +0.000 C 
ATOM     34  C   UNL     1      -5.485  14.740  21.541  0.00  0.00    +0.000 C 
BRANCH  32  35
ATOM     35  O   UNL     1      -5.758  14.337  19.214  0.00  0.00    +0.000 OA
ATOM     36  H   UNL     1      -6.146  13.682  18.609  0.00  0.00    +0.000 HD
ENDBRANCH  32  35
ENDBRANCH  31  32
ENDBRANCH  30  31
ENDBRANCH  29  30
ENDBRANCH  27  29
ENDBRANCH  11  27
TORSDOF 11
ENDMDL
MODEL 5
REMARK VINA RESULT:      -7.2      1.468      1.760
REMARK  Name = 
REMARK  15 active torsions:
REMARK  status: ('A' for Active; 'I' for Inactive)
REMARK    1  A    between atoms: C_4  and  C_5
REMARK    2  A    between atoms: C_10  and  C_11
REMARK    3  A    between atoms: C_15  and  C_16
REMARK    4  A    between atoms: C_16  and  C_17
REMARK    5  A    between atoms: C_16  and  C_18
REMARK    6  A    between atoms: C_18  and  C_19
REMARK    7  A    between atoms: C_19  and  C_20
REMARK    8  A    between atoms: C_20  and  C_21
REMARK    9  A    between atoms: C_21  and  C_22
REMARK   10  A    between atoms: C_21  and  C_23
REMARK   11  A    between atoms: C_21  and  O_24
REMARK   12  A    between atoms: C_26  and  O_27
REMARK   13  A    between atoms: C_28  and  C_29
REMARK   14  A    between atoms: C_29  and  O_30
REMARK   15  A    between atoms: C_31  and  O_32
REMARK                            x       y       z     vdW  Elec       q    Type
REMARK                         _______ _______ _______ _____ _____    ______ ____
ROOT
ATOM      1  C   UNL     1       1.034   7.908  20.349  0.00  0.00    +0.000 C 
ATOM      2  C   UNL     1       0.102   8.705  20.912  0.00  0.00    +0.000 C 
ATOM      3  C   UNL     1      -0.412   8.577  22.345  0.00  0.00    +0.000 C 
ATOM      4  C   UNL     1      -0.454   9.905  23.129  0.00  0.00    +0.000 C 
ATOM      5  C   UNL     1      -1.007  11.081  22.311  0.00  0.00    +0.000 C 
ATOM      6  C   UNL     1      -0.274  11.202  20.958  0.00  0.00    +0.000 C 
ATOM      7  C   UNL     1       1.225  11.454  21.204  0.00  0.00    +0.000 C 
ATOM      8  C   UNL     1      -0.523   9.879  20.186  0.00  0.00    +0.000 C 
ATOM      9  C   UNL     1      -0.134  10.236  18.752  0.00  0.00    +0.000 C 
ATOM     10  C   UNL     1      -0.633  11.675  18.570  0.00  0.00    +0.000 C 
ATOM     11  C   UNL     1      -0.920  12.231  19.985  0.00  0.00    +0.000 C 
ENDROOT
BRANCH   1  15
ATOM     12  C   UNL     1       2.779   6.362  18.105  0.00  0.00    +0.000 C 
ATOM     13  C   UNL     1       2.212   5.442  18.914  0.00  0.00    +0.000 C 
ATOM     14  C   UNL     1       2.118   5.656  20.362  0.00  0.00    +0.000 C 
ATOM     15  C   UNL     1       1.633   6.754  20.977  0.00  0.00    +0.000 C 
ATOM     16  C   UNL     1       2.600   4.489  21.212  0.00  0.00    +0.000 C 
ATOM     17  C   UNL     1       2.028   3.142  20.739  0.00  0.00    +0.000 C 
ATOM     18  C   UNL     1       2.230   2.913  19.229  0.00  0.00    +0.000 C 
ATOM     19  C   UNL     1       1.655   4.108  18.440  0.00  0.00    +0.000 C 
BRANCH  17  20
ATOM     20  O   UNL     1       0.633   3.053  21.061  0.00  0.00    +0.000 OA
ATOM     21  H   UNL     1       0.164   3.789  20.632  0.00  0.00    +0.000 HD
ENDBRANCH  17  20
BRANCH  19  22
ATOM     22  O   UNL     1       1.837   3.900  17.038  0.00  0.00    +0.000 OA
ATOM     23  H   UNL     1       1.008   3.550  16.673  0.00  0.00    +0.000 HD
ENDBRANCH  19  22
BRANCH  18  24
ATOM     24  C   UNL     1       3.705   2.644  18.896  0.00  0.00    +0.000 C 
BRANCH  24  25
ATOM     25  O   UNL     1       3.820   1.716  17.824  0.00  0.00    +0.000 OA
ATOM     26  H   UNL     1       3.701   2.214  16.994  0.00  0.00    +0.000 HD
ENDBRANCH  24  25
ENDBRANCH  18  24
ENDBRANCH   1  15
BRANCH  11  27
ATOM     27  C   UNL     1      -0.631  13.751  20.157  0.00  0.00    +0.000 C 
ATOM     28  C   UNL     1      -0.065  14.493  18.937  0.00  0.00    +0.000 C 
BRANCH  27  29
ATOM     29  C   UNL     1      -1.912  14.524  20.566  0.00  0.00    +0.000 C 
BRANCH  29  30
ATOM     30  C   UNL     1      -2.455  14.248  21.967  0.00  0.00    +0.000 C 
BRANCH  30  31
ATOM     31  C   UNL     1      -2.374  15.464  22.891  0.00  0.00    +0.000 C 
BRANCH  31  32
ATOM     32  C   UNL     1      -1.275  15.374  23.965  0.00  0.00    +0.000 C 
ATOM     33  C   UNL     1      -0.151  16.384  23.726  0.00  0.00    +0.000 C 
ATOM     34  C   UNL     1      -1.854  15.527  25.372  0.00  0.00    +0.000 C 
BRANCH  32  35
ATOM     35  O   UNL     1      -0.707  14.059  23.894  0.00  0.00    +0.000 OA
ATOM     36  H   UNL     1      -1.437  13.420  23.836  0.00  0.00    +0.000 HD
ENDBRANCH  32  35
ENDBRANCH  31  32
ENDBRANCH  30  31
ENDBRANCH  29  30
ENDBRANCH  27  29
ENDBRANCH  11  27
TORSDOF 11
ENDMDL
MODEL 6
REMARK VINA RESULT:      -7.1      2.584      4.228
REMARK  Name = 
REMARK  15 active torsions:
REMARK  status: ('A' for Active; 'I' for Inactive)
REMARK    1  A    between atoms: C_4  and  C_5
REMARK    2  A    between atoms: C_10  and  C_11
REMARK    3  A    between atoms: C_15  and  C_16
REMARK    4  A    between atoms: C_16  and  C_17
REMARK    5  A    between atoms: C_16  and  C_18
REMARK    6  A    between atoms: C_18  and  C_19
REMARK    7  A    between atoms: C_19  and  C_20
REMARK    8  A    between atoms: C_20  and  C_21
REMARK    9  A    between atoms: C_21  and  C_22
REMARK   10  A    between atoms: C_21  and  C_23
REMARK   11  A    between atoms: C_21  and  O_24
REMARK   12  A    between atoms: C_26  and  O_27
REMARK   13  A    between atoms: C_28  and  C_29
REMARK   14  A    between atoms: C_29  and  O_30
REMARK   15  A    between atoms: C_31  and  O_32
REMARK                            x       y       z     vdW  Elec       q    Type
REMARK                         _______ _______ _______ _____ _____    ______ ____
ROOT
ATOM      1  C   UNL     1       0.932   7.925  20.306  0.00  0.00    +0.000 C 
ATOM      2  C   UNL     1       0.041   8.766  20.871  0.00  0.00    +0.000 C 
ATOM      3  C   UNL     1      -0.411   8.715  22.329  0.00  0.00    +0.000 C 
ATOM      4  C   UNL     1      -0.394  10.079  23.050  0.00  0.00    +0.000 C 
ATOM      5  C   UNL     1      -0.961  11.227  22.202  0.00  0.00    +0.000 C 
ATOM      6  C   UNL     1      -0.287  11.269  20.815  0.00  0.00    +0.000 C 
ATOM      7  C   UNL     1       1.226  11.502  20.983  0.00  0.00    +0.000 C 
ATOM      8  C   UNL     1      -0.594   9.917  20.117  0.00  0.00    +0.000 C 
ATOM      9  C   UNL     1      -0.262  10.199  18.652  0.00  0.00    +0.000 C 
ATOM     10  C   UNL     1      -0.743  11.637  18.424  0.00  0.00    +0.000 C 
ATOM     11  C   UNL     1      -0.956  12.264  19.822  0.00  0.00    +0.000 C 
ENDROOT
BRANCH   1  15
ATOM     12  C   UNL     1       2.771   6.394  18.126  0.00  0.00    +0.000 C 
ATOM     13  C   UNL     1       2.200   5.471  18.927  0.00  0.00    +0.000 C 
ATOM     14  C   UNL     1       2.062   5.695  20.371  0.00  0.00    +0.000 C 
ATOM     15  C   UNL     1       1.538   6.789  20.961  0.00  0.00    +0.000 C 
ATOM     16  C   UNL     1       2.544   4.547  21.244  0.00  0.00    +0.000 C 
ATOM     17  C   UNL     1       2.014   3.184  20.769  0.00  0.00    +0.000 C 
ATOM     18  C   UNL     1       2.261   2.946  19.267  0.00  0.00    +0.000 C 
ATOM     19  C   UNL     1       1.684   4.121  18.452  0.00  0.00    +0.000 C 
BRANCH  17  20
ATOM     20  O   UNL     1       0.612   3.069  21.054  0.00  0.00    +0.000 OA
ATOM     21  H   UNL     1       0.198   2.512  20.372  0.00  0.00    +0.000 HD
ENDBRANCH  17  20
BRANCH  19  22
ATOM     22  O   UNL     1       1.909   3.904  17.057  0.00  0.00    +0.000 OA
ATOM     23  H   UNL     1       2.865   3.957  16.892  0.00  0.00    +0.000 HD
ENDBRANCH  19  22
BRANCH  18  24
ATOM     24  C   UNL     1       3.751   2.704  18.978  0.00  0.00    +0.000 C 
BRANCH  24  25
ATOM     25  O   UNL     1       3.915   1.866  17.840  0.00  0.00    +0.000 OA
ATOM     26  H   UNL     1       4.478   1.117  18.108  0.00  0.00    +0.000 HD
ENDBRANCH  24  25
ENDBRANCH  18  24
ENDBRANCH   1  15
BRANCH  11  27
ATOM     27  C   UNL     1      -0.633  13.785  19.909  0.00  0.00    +0.000 C 
ATOM     28  C   UNL     1      -0.100  14.306  21.253  0.00  0.00    +0.000 C 
BRANCH  27  29
ATOM     29  C   UNL     1       0.421  14.197  18.848  0.00  0.00    +0.000 C 
BRANCH  29  30
ATOM     30  C   UNL     1       1.679  14.888  19.372  0.00  0.00    +0.000 C 
BRANCH  30  31
ATOM     31  C   UNL     1       2.614  15.359  18.257  0.00  0.00    +0.000 C 
BRANCH  31  32
ATOM     32  C   UNL     1       4.052  15.657  18.715  0.00  0.00    +0.000 C 
ATOM     33  C   UNL     1       4.258  15.360  20.201  0.00  0.00    +0.000 C 
ATOM     34  C   UNL     1       5.078  14.907  17.863  0.00  0.00    +0.000 C 
BRANCH  32  35
ATOM     35  O   UNL     1       4.291  17.056  18.509  0.00  0.00    +0.000 OA
ATOM     36  H   UNL     1       4.958  17.146  17.808  0.00  0.00    +0.000 HD
ENDBRANCH  32  35
ENDBRANCH  31  32
ENDBRANCH  30  31
ENDBRANCH  29  30
ENDBRANCH  27  29
ENDBRANCH  11  27
TORSDOF 11
ENDMDL
MODEL 7
REMARK VINA RESULT:      -7.1      2.571      4.049
REMARK  Name = 
REMARK  15 active torsions:
REMARK  status: ('A' for Active; 'I' for Inactive)
REMARK    1  A    between atoms: C_4  and  C_5
REMARK    2  A    between atoms: C_10  and  C_11
REMARK    3  A    between atoms: C_15  and  C_16
REMARK    4  A    between atoms: C_16  and  C_17
REMARK    5  A    between atoms: C_16  and  C_18
REMARK    6  A    between atoms: C_18  and  C_19
REMARK    7  A    between atoms: C_19  and  C_20
REMARK    8  A    between atoms: C_20  and  C_21
REMARK    9  A    between atoms: C_21  and  C_22
REMARK   10  A    between atoms: C_21  and  C_23
REMARK   11  A    between atoms: C_21  and  O_24
REMARK   12  A    between atoms: C_26  and  O_27
REMARK   13  A    between atoms: C_28  and  C_29
REMARK   14  A    between atoms: C_29  and  O_30
REMARK   15  A    between atoms: C_31  and  O_32
REMARK                            x       y       z     vdW  Elec       q    Type
REMARK                         _______ _______ _______ _____ _____    ______ ____
ROOT
ATOM      1  C   UNL     1       0.940   7.891  20.326  0.00  0.00    +0.000 C 
ATOM      2  C   UNL     1       0.051   8.729  20.898  0.00  0.00    +0.000 C 
ATOM      3  C   UNL     1      -0.393   8.674  22.358  0.00  0.00    +0.000 C 
ATOM      4  C   UNL     1      -0.373  10.035  23.084  0.00  0.00    +0.000 C 
ATOM      5  C   UNL     1      -0.945  11.185  22.243  0.00  0.00    +0.000 C 
ATOM      6  C   UNL     1      -0.279  11.233  20.853  0.00  0.00    +0.000 C 
ATOM      7  C   UNL     1       1.236  11.466  21.014  0.00  0.00    +0.000 C 
ATOM      8  C   UNL     1      -0.588   9.883  20.152  0.00  0.00    +0.000 C 
ATOM      9  C   UNL     1      -0.264  10.171  18.687  0.00  0.00    +0.000 C 
ATOM     10  C   UNL     1      -0.747  11.609  18.466  0.00  0.00    +0.000 C 
ATOM     11  C   UNL     1      -0.953  12.231  19.867  0.00  0.00    +0.000 C 
ENDROOT
BRANCH   1  15
ATOM     12  C   UNL     1       2.770   6.371  18.132  0.00  0.00    +0.000 C 
ATOM     13  C   UNL     1       2.204   5.444  18.932  0.00  0.00    +0.000 C 
ATOM     14  C   UNL     1       2.072   5.662  20.377  0.00  0.00    +0.000 C 
ATOM     15  C   UNL     1       1.550   6.753  20.974  0.00  0.00    +0.000 C 
ATOM     16  C   UNL     1       2.559   4.511  21.244  0.00  0.00    +0.000 C 
ATOM     17  C   UNL     1       2.028   3.150  20.766  0.00  0.00    +0.000 C 
ATOM     18  C   UNL     1       2.269   2.917  19.262  0.00  0.00    +0.000 C 
ATOM     19  C   UNL     1       1.687   4.095  18.454  0.00  0.00    +0.000 C 
BRANCH  17  20
ATOM     20  O   UNL     1       0.627   3.032  21.056  0.00  0.00    +0.000 OA
ATOM     21  H   UNL     1       0.468   3.344  21.964  0.00  0.00    +0.000 HD
ENDBRANCH  17  20
BRANCH  19  22
ATOM     22  O   UNL     1       1.906   3.884  17.057  0.00  0.00    +0.000 OA
ATOM     23  H   UNL     1       2.802   3.528  16.941  0.00  0.00    +0.000 HD
ENDBRANCH  19  22
BRANCH  18  24
ATOM     24  C   UNL     1       3.757   2.678  18.965  0.00  0.00    +0.000 C 
BRANCH  24  25
ATOM     25  O   UNL     1       3.917   1.778  17.876  0.00  0.00    +0.000 OA
ATOM     26  H   UNL     1       3.025   1.548  17.555  0.00  0.00    +0.000 HD
ENDBRANCH  24  25
ENDBRANCH  18  24
ENDBRANCH   1  15
BRANCH  11  27
ATOM     27  C   UNL     1      -0.630  13.751  19.958  0.00  0.00    +0.000 C 
ATOM     28  C   UNL     1      -0.400  14.330  21.363  0.00  0.00    +0.000 C 
BRANCH  27  29
ATOM     29  C   UNL     1       0.640  14.106  19.141  0.00  0.00    +0.000 C 
BRANCH  29  30
ATOM     30  C   UNL     1       1.706  14.929  19.864  0.00  0.00    +0.000 C 
BRANCH  30  31
ATOM     31  C   UNL     1       2.907  15.264  18.979  0.00  0.00    +0.000 C 
BRANCH  31  32
ATOM     32  C   UNL     1       2.990  16.740  18.551  0.00  0.00    +0.000 C 
ATOM     33  C   UNL     1       2.827  16.913  17.039  0.00  0.00    +0.000 C 
ATOM     34  C   UNL     1       1.977  17.600  19.308  0.00  0.00    +0.000 C 
BRANCH  32  35
ATOM     35  O   UNL     1       4.291  17.223  18.911  0.00  0.00    +0.000 OA
ATOM     36  H   UNL     1       4.784  17.398  18.092  0.00  0.00    +0.000 HD
ENDBRANCH  32  35
ENDBRANCH  31  32
ENDBRANCH  30  31
ENDBRANCH  29  30
ENDBRANCH  27  29
ENDBRANCH  11  27
TORSDOF 11
ENDMDL
MODEL 8
REMARK VINA RESULT:      -7.1      2.390      3.963
REMARK  Name = 
REMARK  15 active torsions:
REMARK  status: ('A' for Active; 'I' for Inactive)
REMARK    1  A    between atoms: C_4  and  C_5
REMARK    2  A    between atoms: C_10  and  C_11
REMARK    3  A    between atoms: C_15  and  C_16
REMARK    4  A    between atoms: C_16  and  C_17
REMARK    5  A    between atoms: C_16  and  C_18
REMARK    6  A    between atoms: C_18  and  C_19
REMARK    7  A    between atoms: C_19  and  C_20
REMARK    8  A    between atoms: C_20  and  C_21
REMARK    9  A    between atoms: C_21  and  C_22
REMARK   10  A    between atoms: C_21  and  C_23
REMARK   11  A    between atoms: C_21  and  O_24
REMARK   12  A    between atoms: C_26  and  O_27
REMARK   13  A    between atoms: C_28  and  C_29
REMARK   14  A    between atoms: C_29  and  O_30
REMARK   15  A    between atoms: C_31  and  O_32
REMARK                            x       y       z     vdW  Elec       q    Type
REMARK                         _______ _______ _______ _____ _____    ______ ____
ROOT
ATOM      1  C   UNL     1       0.997   7.990  20.216  0.00  0.00    +0.000 C 
ATOM      2  C   UNL     1       0.086   8.787  20.811  0.00  0.00    +0.000 C 
ATOM      3  C   UNL     1      -0.341   8.692  22.274  0.00  0.00    +0.000 C 
ATOM      4  C   UNL     1      -0.360  10.040  23.023  0.00  0.00    +0.000 C 
ATOM      5  C   UNL     1      -0.980  11.184  22.208  0.00  0.00    +0.000 C 
ATOM      6  C   UNL     1      -0.329  11.278  20.812  0.00  0.00    +0.000 C 
ATOM      7  C   UNL     1       1.178  11.560  20.963  0.00  0.00    +0.000 C 
ATOM      8  C   UNL     1      -0.600   9.931  20.092  0.00  0.00    +0.000 C 
ATOM      9  C   UNL     1      -0.301  10.254  18.628  0.00  0.00    +0.000 C 
ATOM     10  C   UNL     1      -0.835  11.679  18.437  0.00  0.00    +0.000 C 
ATOM     11  C   UNL     1      -1.047  12.270  19.851  0.00  0.00    +0.000 C 
ENDROOT
BRANCH   1  15
ATOM     12  C   UNL     1       2.700   6.455  17.931  0.00  0.00    +0.000 C 
ATOM     13  C   UNL     1       2.188   5.534  18.775  0.00  0.00    +0.000 C 
ATOM     14  C   UNL     1       2.144   5.768  20.222  0.00  0.00    +0.000 C 
ATOM     15  C   UNL     1       1.651   6.862  20.838  0.00  0.00    +0.000 C 
ATOM     16  C   UNL     1       2.688   4.629  21.071  0.00  0.00    +0.000 C 
ATOM     17  C   UNL     1       2.138   3.259  20.640  0.00  0.00    +0.000 C 
ATOM     18  C   UNL     1       2.289   3.012  19.127  0.00  0.00    +0.000 C 
ATOM     19  C   UNL     1       1.652   4.177  18.343  0.00  0.00    +0.000 C 
BRANCH  17  20
ATOM     20  O   UNL     1       0.758   3.137  21.017  0.00  0.00    +0.000 OA
ATOM     21  H   UNL     1       0.642   3.508  21.909  0.00  0.00    +0.000 HD
ENDBRANCH  17  20
BRANCH  19  22
ATOM     22  O   UNL     1       1.787   3.952  16.938  0.00  0.00    +0.000 OA
ATOM     23  H   UNL     1       1.553   4.773  16.476  0.00  0.00    +0.000 HD
ENDBRANCH  19  22
BRANCH  18  24
ATOM     24  C   UNL     1       3.758   2.777  18.744  0.00  0.00    +0.000 C 
BRANCH  24  25
ATOM     25  O   UNL     1       4.354   1.807  19.597  0.00  0.00    +0.000 OA
ATOM     26  H   UNL     1       4.738   2.284  20.356  0.00  0.00    +0.000 HD
ENDBRANCH  24  25
ENDBRANCH  18  24
ENDBRANCH   1  15
BRANCH  11  27
ATOM     27  C   UNL     1      -0.775  13.798  19.965  0.00  0.00    +0.000 C 
ATOM     28  C   UNL     1      -0.075  14.286  21.243  0.00  0.00    +0.000 C 
BRANCH  27  29
ATOM     29  C   UNL     1       0.097  14.304  18.786  0.00  0.00    +0.000 C 
BRANCH  29  30
ATOM     30  C   UNL     1       1.140  15.369  19.121  0.00  0.00    +0.000 C 
BRANCH  30  31
ATOM     31  C   UNL     1       2.313  15.389  18.138  0.00  0.00    +0.000 C 
BRANCH  31  32
ATOM     32  C   UNL     1       3.478  14.459  18.520  0.00  0.00    +0.000 C 
ATOM     33  C   UNL     1       4.813  14.941  17.947  0.00  0.00    +0.000 C 
ATOM     34  C   UNL     1       3.573  14.272  20.035  0.00  0.00    +0.000 C 
BRANCH  32  35
ATOM     35  O   UNL     1       3.202  13.167  17.962  0.00  0.00    +0.000 OA
ATOM     36  H   UNL     1       3.135  13.265  16.997  0.00  0.00    +0.000 HD
ENDBRANCH  32  35
ENDBRANCH  31  32
ENDBRANCH  30  31
ENDBRANCH  29  30
ENDBRANCH  27  29
ENDBRANCH  11  27
TORSDOF 11
ENDMDL
MODEL 9
REMARK VINA RESULT:      -6.9      2.471      9.585
REMARK  Name = 
REMARK  15 active torsions:
REMARK  status: ('A' for Active; 'I' for Inactive)
REMARK    1  A    between atoms: C_4  and  C_5
REMARK    2  A    between atoms: C_10  and  C_11
REMARK    3  A    between atoms: C_15  and  C_16
REMARK    4  A    between atoms: C_16  and  C_17
REMARK    5  A    between atoms: C_16  and  C_18
REMARK    6  A    between atoms: C_18  and  C_19
REMARK    7  A    between atoms: C_19  and  C_20
REMARK    8  A    between atoms: C_20  and  C_21
REMARK    9  A    between atoms: C_21  and  C_22
REMARK   10  A    between atoms: C_21  and  C_23
REMARK   11  A    between atoms: C_21  and  O_24
REMARK   12  A    between atoms: C_26  and  O_27
REMARK   13  A    between atoms: C_28  and  C_29
REMARK   14  A    between atoms: C_29  and  O_30
REMARK   15  A    between atoms: C_31  and  O_32
REMARK                            x       y       z     vdW  Elec       q    Type
REMARK                         _______ _______ _______ _____ _____    ______ ____
ROOT
ATOM      1  C   UNL     1       1.230   9.345  17.987  0.00  0.00    +0.000 C 
ATOM      2  C   UNL     1       1.933   8.531  18.802  0.00  0.00    +0.000 C 
ATOM      3  C   UNL     1       1.560   8.200  20.245  0.00  0.00    +0.000 C 
ATOM      4  C   UNL     1       1.610   6.697  20.589  0.00  0.00    +0.000 C 
ATOM      5  C   UNL     1       2.846   5.981  20.025  0.00  0.00    +0.000 C 
ATOM      6  C   UNL     1       3.001   6.261  18.515  0.00  0.00    +0.000 C 
ATOM      7  C   UNL     1       1.762   5.738  17.764  0.00  0.00    +0.000 C 
ATOM      8  C   UNL     1       3.178   7.793  18.352  0.00  0.00    +0.000 C 
ATOM      9  C   UNL     1       3.723   7.930  16.930  0.00  0.00    +0.000 C 
ATOM     10  C   UNL     1       4.672   6.735  16.771  0.00  0.00    +0.000 C 
ATOM     11  C   UNL     1       4.344   5.749  17.917  0.00  0.00    +0.000 C 
ENDROOT
BRANCH   1  15
ATOM     12  C   UNL     1       2.160  12.407  18.476  0.00  0.00    +0.000 C 
ATOM     13  C   UNL     1       1.206  12.100  19.380  0.00  0.00    +0.000 C 
ATOM     14  C   UNL     1       0.039  11.290  19.011  0.00  0.00    +0.000 C 
ATOM     15  C   UNL     1       0.063  10.103  18.371  0.00  0.00    +0.000 C 
ATOM     16  C   UNL     1      -1.301  11.870  19.438  0.00  0.00    +0.000 C 
ATOM     17  C   UNL     1      -1.300  12.338  20.903  0.00  0.00    +0.000 C 
ATOM     18  C   UNL     1      -0.111  13.262  21.226  0.00  0.00    +0.000 C 
ATOM     19  C   UNL     1       1.208  12.572  20.826  0.00  0.00    +0.000 C 
BRANCH  17  20
ATOM     20  O   UNL     1      -1.289  11.206  21.786  0.00  0.00    +0.000 OA
ATOM     21  H   UNL     1      -1.479  11.512  22.690  0.00  0.00    +0.000 HD
ENDBRANCH  17  20
BRANCH  19  22
ATOM     22  O   UNL     1       2.316  13.425  21.126  0.00  0.00    +0.000 OA
ATOM     23  H   UNL     1       2.196  14.259  20.644  0.00  0.00    +0.000 HD
ENDBRANCH  19  22
BRANCH  18  24
ATOM     24  C   UNL     1      -0.279  14.640  20.567  0.00  0.00    +0.000 C 
BRANCH  24  25
ATOM     25  O   UNL     1       0.458  15.631  21.273  0.00  0.00    +0.000 OA
ATOM     26  H   UNL     1       0.789  15.219  22.092  0.00  0.00    +0.000 HD
ENDBRANCH  24  25
ENDBRANCH  18  24
ENDBRANCH   1  15
BRANCH  11  27
ATOM     27  C   UNL     1       4.508   4.245  17.549  0.00  0.00    +0.000 C 
ATOM     28  C   UNL     1       5.343   3.923  16.300  0.00  0.00    +0.000 C 
BRANCH  27  29
ATOM     29  C   UNL     1       5.160   3.449  18.710  0.00  0.00    +0.000 C 
BRANCH  29  30
ATOM     30  C   UNL     1       4.240   2.512  19.491  0.00  0.00    +0.000 C 
BRANCH  30  31
ATOM     31  C   UNL     1       3.033   2.041  18.678  0.00  0.00    +0.000 C 
BRANCH  31  32
ATOM     32  C   UNL     1       1.683   2.185  19.401  0.00  0.00    +0.000 C 
ATOM     33  C   UNL     1       1.851   2.617  20.859  0.00  0.00    +0.000 C 
ATOM     34  C   UNL     1       0.748   3.140  18.656  0.00  0.00    +0.000 C 
BRANCH  32  35
ATOM     35  O   UNL     1       1.048   0.899  19.393  0.00  0.00    +0.000 OA
ATOM     36  H   UNL     1       0.990   0.588  20.312  0.00  0.00    +0.000 HD
ENDBRANCH  32  35
ENDBRANCH  31  32
ENDBRANCH  30  31
ENDBRANCH  29  30
ENDBRANCH  27  29
ENDBRANCH  11  27
TORSDOF 11
ENDMDL
