MODEL 1
REMARK VINA RESULT:      -6.6      0.000      0.000
REMARK  Name = 
REMARK  14 active torsions:
REMARK  status: ('A' for Active; 'I' for Inactive)
REMARK    1  A    between atoms: C_1  and  C_2
REMARK    2  A    between atoms: C_2  and  C_3
REMARK    3  A    between atoms: C_3  and  C_4
REMARK    4  A    between atoms: C_4  and  C_5
REMARK    5  A    between atoms: C_5  and  C_6
REMARK    6  A    between atoms: C_6  and  C_7
REMARK    7  A    between atoms: C_7  and  C_8
REMARK    8  A    between atoms: C_8  and  C_9
REMARK    9  A    between atoms: C_12  and  N_13
REMARK   10  A    between atoms: N_13  and  C_14
REMARK   11  A    between atoms: N_21  and  C_22
REMARK   12  A    between atoms: C_22  and  C_23
REMARK   13  A    between atoms: C_23  and  O_24
REMARK   14  A    between atoms: O_24  and  C_25
REMARK                            x       y       z     vdW  Elec       q    Type
REMARK                         _______ _______ _______ _____ _____    ______ ____
ROOT
ATOM      1  N   UNL     1       2.878   6.048  20.201  0.00  0.00    +0.000 N 
ATOM      2  H   UNL     1       2.221   5.575  20.811  0.00  0.00    +0.000 HD
ENDROOT
BRANCH   1   3
ATOM      3  C   UNL     1       3.563   5.175  19.360  0.00  0.00    +0.000 A 
ATOM      4  C   UNL     1       4.903   5.304  19.308  0.00  0.00    +0.000 A 
ATOM      5  C   UNL     1       5.723   4.397  18.513  0.00  0.00    +0.000 A 
ATOM      6  O   UNL     1       6.944   4.524  18.448  0.00  0.00    +0.000 OA
ATOM      7  N   UNL     1       5.048   3.405  17.885  0.00  0.00    +0.000 N 
ATOM      8  C   UNL     1       3.695   3.230  17.891  0.00  0.00    +0.000 A 
ATOM      9  O   UNL     1       3.224   2.268  17.287  0.00  0.00    +0.000 OA
ATOM     10  N   UNL     1       2.950   4.159  18.621  0.00  0.00    +0.000 N 
ATOM     11  H   UNL     1       5.588   2.734  17.361  0.00  0.00    +0.000 HD
BRANCH  10  12
ATOM     12  C   UNL     1       1.492   3.961  18.624  0.00  0.00    +0.000 C 
BRANCH  12  13
ATOM     13  C   UNL     1       0.894   3.038  19.699  0.00  0.00    +0.000 C 
BRANCH  13  14
ATOM     14  O   UNL     1       1.098   3.522  21.026  0.00  0.00    +0.000 OA
ATOM     15  C   UNL     1       1.985   2.662  21.742  0.00  0.00    +0.000 C 
ENDBRANCH  13  14
ENDBRANCH  12  13
ENDBRANCH  10  12
ENDBRANCH   1   3
BRANCH   1  19
ATOM     16  C   UNL     1       0.921   9.558  18.862  0.00  0.00    +0.000 A 
ATOM     17  C   UNL     1       1.726   8.825  17.981  0.00  0.00    +0.000 A 
ATOM     18  C   UNL     1       2.399   7.687  18.416  0.00  0.00    +0.000 A 
ATOM     19  C   UNL     1       2.302   7.264  19.745  0.00  0.00    +0.000 A 
ATOM     20  C   UNL     1       1.548   8.032  20.641  0.00  0.00    +0.000 A 
ATOM     21  C   UNL     1       0.864   9.172  20.205  0.00  0.00    +0.000 A 
BRANCH  16  22
ATOM     22  C   UNL     1       0.088  10.707  18.347  0.00  0.00    +0.000 C 
BRANCH  22  23
ATOM     23  C   UNL     1      -1.246  10.769  19.097  0.00  0.00    +0.000 C 
BRANCH  23  24
ATOM     24  C   UNL     1      -1.612  12.180  19.537  0.00  0.00    +0.000 C 
BRANCH  24  25
ATOM     25  C   UNL     1      -1.684  12.230  21.063  0.00  0.00    +0.000 C 
BRANCH  25  26
ATOM     26  C   UNL     1      -0.298  12.307  21.693  0.00  0.00    +0.000 C 
BRANCH  26  27
ATOM     27  C   UNL     1       0.517  13.430  21.055  0.00  0.00    +0.000 C 
BRANCH  27  29
ATOM     28  C   UNL     1       2.331  13.578  19.322  0.00  0.00    +0.000 C 
ATOM     29  C   UNL     1       1.893  12.932  20.626  0.00  0.00    +0.000 C 
ENDBRANCH  27  29
ENDBRANCH  26  27
ENDBRANCH  25  26
ENDBRANCH  24  25
ENDBRANCH  23  24
ENDBRANCH  22  23
ENDBRANCH  16  22
ENDBRANCH   1  19
TORSDOF 12
ENDMDL
MODEL 2
REMARK VINA RESULT:      -6.6      4.065      8.601
REMARK  Name = 
REMARK  14 active torsions:
REMARK  status: ('A' for Active; 'I' for Inactive)
REMARK    1  A    between atoms: C_1  and  C_2
REMARK    2  A    between atoms: C_2  and  C_3
REMARK    3  A    between atoms: C_3  and  C_4
REMARK    4  A    between atoms: C_4  and  C_5
REMARK    5  A    between atoms: C_5  and  C_6
REMARK    6  A    between atoms: C_6  and  C_7
REMARK    7  A    between atoms: C_7  and  C_8
REMARK    8  A    between atoms: C_8  and  C_9
REMARK    9  A    between atoms: C_12  and  N_13
REMARK   10  A    between atoms: N_13  and  C_14
REMARK   11  A    between atoms: N_21  and  C_22
REMARK   12  A    between atoms: C_22  and  C_23
REMARK   13  A    between atoms: C_23  and  O_24
REMARK   14  A    between atoms: O_24  and  C_25
REMARK                            x       y       z     vdW  Elec       q    Type
REMARK                         _______ _______ _______ _____ _____    ______ ____
ROOT
ATOM      1  N   UNL     1       0.669   9.790  19.756  0.00  0.00    +0.000 N 
ATOM      2  H   UNL     1       1.157  10.206  20.542  0.00  0.00    +0.000 HD
ENDROOT
BRANCH   1   3
ATOM      3  C   UNL     1      -0.011  10.726  18.981  0.00  0.00    +0.000 A 
ATOM      4  C   UNL     1      -1.071  10.282  18.279  0.00  0.00    +0.000 A 
ATOM      5  C   UNL     1      -1.894  11.192  17.490  0.00  0.00    +0.000 A 
ATOM      6  O   UNL     1      -2.849  10.786  16.831  0.00  0.00    +0.000 OA
ATOM      7  N   UNL     1      -1.545  12.498  17.560  0.00  0.00    +0.000 N 
ATOM      8  C   UNL     1      -0.478  13.006  18.244  0.00  0.00    +0.000 A 
ATOM      9  O   UNL     1      -0.297  14.222  18.231  0.00  0.00    +0.000 OA
ATOM     10  N   UNL     1       0.311  12.086  18.937  0.00  0.00    +0.000 N 
ATOM     11  H   UNL     1      -2.118  13.160  17.061  0.00  0.00    +0.000 HD
BRANCH  10  12
ATOM     12  C   UNL     1       1.458  12.643  19.674  0.00  0.00    +0.000 C 
BRANCH  12  13
ATOM     13  C   UNL     1       1.213  13.154  21.104  0.00  0.00    +0.000 C 
BRANCH  13  14
ATOM     14  O   UNL     1       0.513  12.215  21.919  0.00  0.00    +0.000 OA
ATOM     15  C   UNL     1      -0.753  12.743  22.317  0.00  0.00    +0.000 C 
ENDBRANCH  13  14
ENDBRANCH  12  13
ENDBRANCH  10  12
ENDBRANCH   1   3
BRANCH   1  19
ATOM     16  C   UNL     1       3.273   6.813  18.239  0.00  0.00    +0.000 A 
ATOM     17  C   UNL     1       2.877   7.879  17.423  0.00  0.00    +0.000 A 
ATOM     18  C   UNL     1       1.997   8.848  17.898  0.00  0.00    +0.000 A 
ATOM     19  C   UNL     1       1.477   8.765  19.194  0.00  0.00    +0.000 A 
ATOM     20  C   UNL     1       1.823   7.665  19.988  0.00  0.00    +0.000 A 
ATOM     21  C   UNL     1       2.713   6.695  19.515  0.00  0.00    +0.000 A 
BRANCH  16  22
ATOM     22  C   UNL     1       4.332   5.848  17.761  0.00  0.00    +0.000 C 
BRANCH  22  23
ATOM     23  C   UNL     1       4.027   4.437  18.272  0.00  0.00    +0.000 C 
BRANCH  23  24
ATOM     24  C   UNL     1       2.904   3.758  17.499  0.00  0.00    +0.000 C 
BRANCH  24  25
ATOM     25  C   UNL     1       2.826   2.288  17.909  0.00  0.00    +0.000 C 
BRANCH  25  26
ATOM     26  C   UNL     1       1.708   2.039  18.914  0.00  0.00    +0.000 C 
BRANCH  26  27
ATOM     27  C   UNL     1       0.978   3.342  19.235  0.00  0.00    +0.000 C 
BRANCH  27  29
ATOM     28  C   UNL     1       2.033   2.721  21.430  0.00  0.00    +0.000 C 
ATOM     29  C   UNL     1       1.121   3.701  20.710  0.00  0.00    +0.000 C 
ENDBRANCH  27  29
ENDBRANCH  26  27
ENDBRANCH  25  26
ENDBRANCH  24  25
ENDBRANCH  23  24
ENDBRANCH  22  23
ENDBRANCH  16  22
ENDBRANCH   1  19
TORSDOF 12
ENDMDL
MODEL 3
REMARK VINA RESULT:      -6.5      4.193      8.591
REMARK  Name = 
REMARK  14 active torsions:
REMARK  status: ('A' for Active; 'I' for Inactive)
REMARK    1  A    between atoms: C_1  and  C_2
REMARK    2  A    between atoms: C_2  and  C_3
REMARK    3  A    between atoms: C_3  and  C_4
REMARK    4  A    between atoms: C_4  and  C_5
REMARK    5  A    between atoms: C_5  and  C_6
REMARK    6  A    between atoms: C_6  and  C_7
REMARK    7  A    between atoms: C_7  and  C_8
REMARK    8  A    between atoms: C_8  and  C_9
REMARK    9  A    between atoms: C_12  and  N_13
REMARK   10  A    between atoms: N_13  and  C_14
REMARK   11  A    between atoms: N_21  and  C_22
REMARK   12  A    between atoms: C_22  and  C_23
REMARK   13  A    between atoms: C_23  and  O_24
REMARK   14  A    between atoms: O_24  and  C_25
REMARK                            x       y       z     vdW  Elec       q    Type
REMARK                         _______ _______ _______ _____ _____    ______ ____
ROOT
ATOM      1  N   UNL     1       0.277  10.837  18.988  0.00  0.00    +0.000 N 
ATOM      2  H   UNL     1       0.877  11.576  18.639  0.00  0.00    +0.000 HD
ENDROOT
BRANCH   1   3
ATOM      3  C   UNL     1      -1.043  10.959  18.559  0.00  0.00    +0.000 A 
ATOM      4  C   UNL     1      -1.412  10.214  17.500  0.00  0.00    +0.000 A 
ATOM      5  C   UNL     1      -2.786  10.213  17.013  0.00  0.00    +0.000 A 
ATOM      6  O   UNL     1      -3.121   9.550  16.034  0.00  0.00    +0.000 OA
ATOM      7  N   UNL     1      -3.654  10.968  17.727  0.00  0.00    +0.000 N 
ATOM      8  C   UNL     1      -3.339  11.752  18.799  0.00  0.00    +0.000 A 
ATOM      9  O   UNL     1      -4.242  12.369  19.362  0.00  0.00    +0.000 OA
ATOM     10  N   UNL     1      -1.999  11.760  19.191  0.00  0.00    +0.000 N 
ATOM     11  H   UNL     1      -4.622  10.958  17.444  0.00  0.00    +0.000 HD
BRANCH  10  12
ATOM     12  C   UNL     1      -1.669  12.606  20.350  0.00  0.00    +0.000 C 
BRANCH  12  13
ATOM     13  C   UNL     1      -1.248  11.906  21.653  0.00  0.00    +0.000 C 
BRANCH  13  14
ATOM     14  O   UNL     1       0.128  12.106  21.975  0.00  0.00    +0.000 OA
ATOM     15  C   UNL     1       0.573  13.377  21.498  0.00  0.00    +0.000 C 
ENDBRANCH  13  14
ENDBRANCH  12  13
ENDBRANCH  10  12
ENDBRANCH   1   3
BRANCH   1  19
ATOM     16  C   UNL     1       2.571   7.277  19.055  0.00  0.00    +0.000 A 
ATOM     17  C   UNL     1       2.464   8.020  17.872  0.00  0.00    +0.000 A 
ATOM     18  C   UNL     1       1.689   9.175  17.828  0.00  0.00    +0.000 A 
ATOM     19  C   UNL     1       0.985   9.606  18.957  0.00  0.00    +0.000 A 
ATOM     20  C   UNL     1       1.041   8.829  20.120  0.00  0.00    +0.000 A 
ATOM     21  C   UNL     1       1.825   7.672  20.170  0.00  0.00    +0.000 A 
BRANCH  16  22
ATOM     22  C   UNL     1       3.522   6.107  19.129  0.00  0.00    +0.000 C 
BRANCH  22  23
ATOM     23  C   UNL     1       3.449   5.286  17.838  0.00  0.00    +0.000 C 
BRANCH  23  24
ATOM     24  C   UNL     1       3.849   3.830  18.039  0.00  0.00    +0.000 C 
BRANCH  24  25
ATOM     25  C   UNL     1       2.665   2.929  17.694  0.00  0.00    +0.000 C 
BRANCH  25  26
ATOM     26  C   UNL     1       1.339   3.552  18.112  0.00  0.00    +0.000 C 
BRANCH  26  27
ATOM     27  C   UNL     1       0.837   2.922  19.410  0.00  0.00    +0.000 C 
BRANCH  27  29
ATOM     28  C   UNL     1       2.178   3.259  21.508  0.00  0.00    +0.000 C 
ATOM     29  C   UNL     1       1.104   3.836  20.601  0.00  0.00    +0.000 C 
ENDBRANCH  27  29
ENDBRANCH  26  27
ENDBRANCH  25  26
ENDBRANCH  24  25
ENDBRANCH  23  24
ENDBRANCH  22  23
ENDBRANCH  16  22
ENDBRANCH   1  19
TORSDOF 12
ENDMDL
MODEL 4
REMARK VINA RESULT:      -6.5      0.835      1.979
REMARK  Name = 
REMARK  14 active torsions:
REMARK  status: ('A' for Active; 'I' for Inactive)
REMARK    1  A    between atoms: C_1  and  C_2
REMARK    2  A    between atoms: C_2  and  C_3
REMARK    3  A    between atoms: C_3  and  C_4
REMARK    4  A    between atoms: C_4  and  C_5
REMARK    5  A    between atoms: C_5  and  C_6
REMARK    6  A    between atoms: C_6  and  C_7
REMARK    7  A    between atoms: C_7  and  C_8
REMARK    8  A    between atoms: C_8  and  C_9
REMARK    9  A    between atoms: C_12  and  N_13
REMARK   10  A    between atoms: N_13  and  C_14
REMARK   11  A    between atoms: N_21  and  C_22
REMARK   12  A    between atoms: C_22  and  C_23
REMARK   13  A    between atoms: C_23  and  O_24
REMARK   14  A    between atoms: O_24  and  C_25
REMARK                            x       y       z     vdW  Elec       q    Type
REMARK                         _______ _______ _______ _____ _____    ______ ____
ROOT
ATOM      1  N   UNL     1       2.830   5.986  20.237  0.00  0.00    +0.000 N 
ATOM      2  H   UNL     1       2.197   5.490  20.855  0.00  0.00    +0.000 HD
ENDROOT
BRANCH   1   3
ATOM      3  C   UNL     1       3.545   5.137  19.395  0.00  0.00    +0.000 A 
ATOM      4  C   UNL     1       4.883   5.291  19.367  0.00  0.00    +0.000 A 
ATOM      5  C   UNL     1       5.733   4.410  18.575  0.00  0.00    +0.000 A 
ATOM      6  O   UNL     1       6.951   4.561  18.531  0.00  0.00    +0.000 OA
ATOM      7  N   UNL     1       5.087   3.415  17.923  0.00  0.00    +0.000 N 
ATOM      8  C   UNL     1       3.737   3.214  17.903  0.00  0.00    +0.000 A 
ATOM      9  O   UNL     1       3.294   2.252  17.279  0.00  0.00    +0.000 OA
ATOM     10  N   UNL     1       2.963   4.119  18.634  0.00  0.00    +0.000 N 
ATOM     11  H   UNL     1       5.648   2.761  17.399  0.00  0.00    +0.000 HD
BRANCH  10  12
ATOM     12  C   UNL     1       1.509   3.894  18.609  0.00  0.00    +0.000 C 
BRANCH  12  13
ATOM     13  C   UNL     1       0.910   2.955  19.669  0.00  0.00    +0.000 C 
BRANCH  13  14
ATOM     14  O   UNL     1       1.002   3.477  20.994  0.00  0.00    +0.000 OA
ATOM     15  C   UNL     1       1.851   2.657  21.797  0.00  0.00    +0.000 C 
ENDBRANCH  13  14
ENDBRANCH  12  13
ENDBRANCH  10  12
ENDBRANCH   1   3
BRANCH   1  19
ATOM     16  C   UNL     1       1.189   9.634  18.843  0.00  0.00    +0.000 A 
ATOM     17  C   UNL     1       0.979   9.232  20.168  0.00  0.00    +0.000 A 
ATOM     18  C   UNL     1       1.486   8.021  20.631  0.00  0.00    +0.000 A 
ATOM     19  C   UNL     1       2.199   7.173  19.777  0.00  0.00    +0.000 A 
ATOM     20  C   UNL     1       2.354   7.545  18.436  0.00  0.00    +0.000 A 
ATOM     21  C   UNL     1       1.852   8.765  17.971  0.00  0.00    +0.000 A 
BRANCH  16  22
ATOM     22  C   UNL     1       0.755  11.008  18.392  0.00  0.00    +0.000 C 
BRANCH  22  23
ATOM     23  C   UNL     1       1.801  12.050  18.795  0.00  0.00    +0.000 C 
BRANCH  23  24
ATOM     24  C   UNL     1       1.260  13.084  19.774  0.00  0.00    +0.000 C 
BRANCH  24  25
ATOM     25  C   UNL     1      -0.259  13.168  19.631  0.00  0.00    +0.000 C 
BRANCH  25  26
ATOM     26  C   UNL     1      -0.944  13.370  20.977  0.00  0.00    +0.000 C 
BRANCH  26  27
ATOM     27  C   UNL     1      -0.355  12.425  22.024  0.00  0.00    +0.000 C 
BRANCH  27  29
ATOM     28  C   UNL     1      -0.720  10.217  23.167  0.00  0.00    +0.000 C 
ATOM     29  C   UNL     1      -1.385  11.394  22.473  0.00  0.00    +0.000 C 
ENDBRANCH  27  29
ENDBRANCH  26  27
ENDBRANCH  25  26
ENDBRANCH  24  25
ENDBRANCH  23  24
ENDBRANCH  22  23
ENDBRANCH  16  22
ENDBRANCH   1  19
TORSDOF 12
ENDMDL
MODEL 5
REMARK VINA RESULT:      -6.4      0.814      1.871
REMARK  Name = 
REMARK  14 active torsions:
REMARK  status: ('A' for Active; 'I' for Inactive)
REMARK    1  A    between atoms: C_1  and  C_2
REMARK    2  A    between atoms: C_2  and  C_3
REMARK    3  A    between atoms: C_3  and  C_4
REMARK    4  A    between atoms: C_4  and  C_5
REMARK    5  A    between atoms: C_5  and  C_6
REMARK    6  A    between atoms: C_6  and  C_7
REMARK    7  A    between atoms: C_7  and  C_8
REMARK    8  A    between atoms: C_8  and  C_9
REMARK    9  A    between atoms: C_12  and  N_13
REMARK   10  A    between atoms: N_13  and  C_14
REMARK   11  A    between atoms: N_21  and  C_22
REMARK   12  A    between atoms: C_22  and  C_23
REMARK   13  A    between atoms: C_23  and  O_24
REMARK   14  A    between atoms: O_24  and  C_25
REMARK                            x       y       z     vdW  Elec       q    Type
REMARK                         _______ _______ _______ _____ _____    ______ ____
ROOT
ATOM      1  N   UNL     1       2.875   5.985  20.275  0.00  0.00    +0.000 N 
ATOM      2  H   UNL     1       2.272   5.487  20.920  0.00  0.00    +0.000 HD
ENDROOT
BRANCH   1   3
ATOM      3  C   UNL     1       3.565   5.139  19.410  0.00  0.00    +0.000 A 
ATOM      4  C   UNL     1       4.904   5.278  19.360  0.00  0.00    +0.000 A 
ATOM      5  C   UNL     1       5.729   4.397  18.541  0.00  0.00    +0.000 A 
ATOM      6  O   UNL     1       6.948   4.535  18.476  0.00  0.00    +0.000 OA
ATOM      7  N   UNL     1       5.060   3.417  17.890  0.00  0.00    +0.000 N 
ATOM      8  C   UNL     1       3.708   3.232  17.893  0.00  0.00    +0.000 A 
ATOM      9  O   UNL     1       3.242   2.282  17.267  0.00  0.00    +0.000 OA
ATOM     10  N   UNL     1       2.958   4.137  18.648  0.00  0.00    +0.000 N 
ATOM     11  H   UNL     1       5.604   2.763  17.348  0.00  0.00    +0.000 HD
BRANCH  10  12
ATOM     12  C   UNL     1       1.501   3.928  18.649  0.00  0.00    +0.000 C 
BRANCH  12  13
ATOM     13  C   UNL     1       0.911   2.985  19.711  0.00  0.00    +0.000 C 
BRANCH  13  14
ATOM     14  O   UNL     1       1.062   3.480  21.041  0.00  0.00    +0.000 OA
ATOM     15  C   UNL     1       1.958   2.653  21.784  0.00  0.00    +0.000 C 
ENDBRANCH  13  14
ENDBRANCH  12  13
ENDBRANCH  10  12
ENDBRANCH   1   3
BRANCH   1  19
ATOM     16  C   UNL     1       1.148   9.617  18.945  0.00  0.00    +0.000 A 
ATOM     17  C   UNL     1       0.929   9.176  20.255  0.00  0.00    +0.000 A 
ATOM     18  C   UNL     1       1.465   7.969  20.697  0.00  0.00    +0.000 A 
ATOM     19  C   UNL     1       2.216   7.164  19.835  0.00  0.00    +0.000 A 
ATOM     20  C   UNL     1       2.382   7.575  18.506  0.00  0.00    +0.000 A 
ATOM     21  C   UNL     1       1.851   8.791  18.062  0.00  0.00    +0.000 A 
BRANCH  16  22
ATOM     22  C   UNL     1       0.680  10.989  18.521  0.00  0.00    +0.000 C 
BRANCH  22  23
ATOM     23  C   UNL     1      -0.849  11.026  18.456  0.00  0.00    +0.000 C 
BRANCH  23  24
ATOM     24  C   UNL     1      -1.475  11.750  19.640  0.00  0.00    +0.000 C 
BRANCH  24  25
ATOM     25  C   UNL     1      -0.788  13.102  19.825  0.00  0.00    +0.000 C 
BRANCH  25  26
ATOM     26  C   UNL     1      -0.059  13.189  21.160  0.00  0.00    +0.000 C 
BRANCH  26  27
ATOM     27  C   UNL     1      -0.582  12.127  22.125  0.00  0.00    +0.000 C 
BRANCH  27  29
ATOM     28  C   UNL     1      -2.861  12.211  23.181  0.00  0.00    +0.000 C 
ATOM     29  C   UNL     1      -1.443  12.756  23.216  0.00  0.00    +0.000 C 
ENDBRANCH  27  29
ENDBRANCH  26  27
ENDBRANCH  25  26
ENDBRANCH  24  25
ENDBRANCH  23  24
ENDBRANCH  22  23
ENDBRANCH  16  22
ENDBRANCH   1  19
TORSDOF 12
ENDMDL
MODEL 6
REMARK VINA RESULT:      -6.4      2.125      4.294
REMARK  Name = 
REMARK  14 active torsions:
REMARK  status: ('A' for Active; 'I' for Inactive)
REMARK    1  A    between atoms: C_1  and  C_2
REMARK    2  A    between atoms: C_2  and  C_3
REMARK    3  A    between atoms: C_3  and  C_4
REMARK    4  A    between atoms: C_4  and  C_5
REMARK    5  A    between atoms: C_5  and  C_6
REMARK    6  A    between atoms: C_6  and  C_7
REMARK    7  A    between atoms: C_7  and  C_8
REMARK    8  A    between atoms: C_8  and  C_9
REMARK    9  A    between atoms: C_12  and  N_13
REMARK   10  A    between atoms: N_13  and  C_14
REMARK   11  A    between atoms: N_21  and  C_22
REMARK   12  A    between atoms: C_22  and  C_23
REMARK   13  A    between atoms: C_23  and  O_24
REMARK   14  A    between atoms: O_24  and  C_25
REMARK                            x       y       z     vdW  Elec       q    Type
REMARK                         _______ _______ _______ _____ _____    ______ ____
ROOT
ATOM      1  N   UNL     1       2.792   6.298  20.137  0.00  0.00    +0.000 N 
ATOM      2  H   UNL     1       2.636   6.133  21.125  0.00  0.00    +0.000 HD
ENDROOT
BRANCH   1   3
ATOM      3  C   UNL     1       2.720   5.136  19.373  0.00  0.00    +0.000 A 
ATOM      4  C   UNL     1       1.612   4.383  19.511  0.00  0.00    +0.000 A 
ATOM      5  C   UNL     1       1.404   3.184  18.708  0.00  0.00    +0.000 A 
ATOM      6  O   UNL     1       0.404   2.483  18.846  0.00  0.00    +0.000 OA
ATOM      7  N   UNL     1       2.370   2.922  17.796  0.00  0.00    +0.000 N 
ATOM      8  C   UNL     1       3.517   3.639  17.617  0.00  0.00    +0.000 A 
ATOM      9  O   UNL     1       4.296   3.291  16.732  0.00  0.00    +0.000 OA
ATOM     10  N   UNL     1       3.695   4.746  18.450  0.00  0.00    +0.000 N 
ATOM     11  H   UNL     1       2.237   2.124  17.194  0.00  0.00    +0.000 HD
BRANCH  10  12
ATOM     12  C   UNL     1       4.934   5.515  18.248  0.00  0.00    +0.000 C 
BRANCH  12  13
ATOM     13  C   UNL     1       6.099   5.267  19.221  0.00  0.00    +0.000 C 
BRANCH  13  14
ATOM     14  O   UNL     1       7.084   4.378  18.696  0.00  0.00    +0.000 OA
ATOM     15  C   UNL     1       7.392   4.715  17.343  0.00  0.00    +0.000 C 
ENDBRANCH  13  14
ENDBRANCH  12  13
ENDBRANCH  10  12
ENDBRANCH   1   3
BRANCH   1  19
ATOM     16  C   UNL     1       0.654   9.782  19.028  0.00  0.00    +0.000 A 
ATOM     17  C   UNL     1       1.470   9.134  18.093  0.00  0.00    +0.000 A 
ATOM     18  C   UNL     1       2.202   8.006  18.452  0.00  0.00    +0.000 A 
ATOM     19  C   UNL     1       2.153   7.509  19.759  0.00  0.00    +0.000 A 
ATOM     20  C   UNL     1       1.387   8.195  20.710  0.00  0.00    +0.000 A 
ATOM     21  C   UNL     1       0.645   9.324  20.350  0.00  0.00    +0.000 A 
BRANCH  16  22
ATOM     22  C   UNL     1      -0.240  10.919  18.593  0.00  0.00    +0.000 C 
BRANCH  22  23
ATOM     23  C   UNL     1      -1.645  10.395  18.282  0.00  0.00    +0.000 C 
BRANCH  23  24
ATOM     24  C   UNL     1      -2.313  11.139  17.133  0.00  0.00    +0.000 C 
BRANCH  24  25
ATOM     25  C   UNL     1      -3.800  11.311  17.441  0.00  0.00    +0.000 C 
BRANCH  25  26
ATOM     26  C   UNL     1      -4.028  11.873  18.838  0.00  0.00    +0.000 C 
BRANCH  26  27
ATOM     27  C   UNL     1      -5.516  11.865  19.182  0.00  0.00    +0.000 C 
BRANCH  27  29
ATOM     28  C   UNL     1      -7.291  12.782  17.658  0.00  0.00    +0.000 C 
ATOM     29  C   UNL     1      -6.364  11.612  17.940  0.00  0.00    +0.000 C 
ENDBRANCH  27  29
ENDBRANCH  26  27
ENDBRANCH  25  26
ENDBRANCH  24  25
ENDBRANCH  23  24
ENDBRANCH  22  23
ENDBRANCH  16  22
ENDBRANCH   1  19
TORSDOF 12
ENDMDL
MODEL 7
REMARK VINA RESULT:      -6.4      2.072      4.275
REMARK  Name = 
REMARK  14 active torsions:
REMARK  status: ('A' for Active; 'I' for Inactive)
REMARK    1  A    between atoms: C_1  and  C_2
REMARK    2  A    between atoms: C_2  and  C_3
REMARK    3  A    between atoms: C_3  and  C_4
REMARK    4  A    between atoms: C_4  and  C_5
REMARK    5  A    between atoms: C_5  and  C_6
REMARK    6  A    between atoms: C_6  and  C_7
REMARK    7  A    between atoms: C_7  and  C_8
REMARK    8  A    between atoms: C_8  and  C_9
REMARK    9  A    between atoms: C_12  and  N_13
REMARK   10  A    between atoms: N_13  and  C_14
REMARK   11  A    between atoms: N_21  and  C_22
REMARK   12  A    between atoms: C_22  and  C_23
REMARK   13  A    between atoms: C_23  and  O_24
REMARK   14  A    between atoms: O_24  and  C_25
REMARK                            x       y       z     vdW  Elec       q    Type
REMARK                         _______ _______ _______ _____ _____    ______ ____
ROOT
ATOM      1  N   UNL     1       2.848   6.188  20.143  0.00  0.00    +0.000 N 
ATOM      2  H   UNL     1       2.764   5.904  21.113  0.00  0.00    +0.000 HD
ENDROOT
BRANCH   1   3
ATOM      3  C   UNL     1       2.829   5.113  19.258  0.00  0.00    +0.000 A 
ATOM      4  C   UNL     1       1.747   4.312  19.295  0.00  0.00    +0.000 A 
ATOM      5  C   UNL     1       1.593   3.199  18.364  0.00  0.00    +0.000 A 
ATOM      6  O   UNL     1       0.618   2.454  18.409  0.00  0.00    +0.000 OA
ATOM      7  N   UNL     1       2.581   3.071  17.447  0.00  0.00    +0.000 N 
ATOM      8  C   UNL     1       3.703   3.843  17.366  0.00  0.00    +0.000 A 
ATOM      9  O   UNL     1       4.507   3.619  16.462  0.00  0.00    +0.000 OA
ATOM     10  N   UNL     1       3.829   4.860  18.315  0.00  0.00    +0.000 N 
ATOM     11  H   UNL     1       2.486   2.339  16.760  0.00  0.00    +0.000 HD
BRANCH  10  12
ATOM     12  C   UNL     1       5.042   5.688  18.219  0.00  0.00    +0.000 C 
BRANCH  12  13
ATOM     13  C   UNL     1       5.077   6.786  17.141  0.00  0.00    +0.000 C 
BRANCH  13  14
ATOM     14  O   UNL     1       6.270   6.760  16.359  0.00  0.00    +0.000 OA
ATOM     15  C   UNL     1       7.240   5.896  16.953  0.00  0.00    +0.000 C 
ENDBRANCH  13  14
ENDBRANCH  12  13
ENDBRANCH  10  12
ENDBRANCH   1   3
BRANCH   1  19
ATOM     16  C   UNL     1       0.810   9.847  19.510  0.00  0.00    +0.000 A 
ATOM     17  C   UNL     1       0.719   9.200  20.748  0.00  0.00    +0.000 A 
ATOM     18  C   UNL     1       1.359   7.982  20.961  0.00  0.00    +0.000 A 
ATOM     19  C   UNL     1       2.088   7.370  19.936  0.00  0.00    +0.000 A 
ATOM     20  C   UNL     1       2.126   7.986  18.679  0.00  0.00    +0.000 A 
ATOM     21  C   UNL     1       1.491   9.214  18.465  0.00  0.00    +0.000 A 
BRANCH  16  22
ATOM     22  C   UNL     1       0.230  11.230  19.335  0.00  0.00    +0.000 C 
BRANCH  22  23
ATOM     23  C   UNL     1      -1.073  11.359  20.129  0.00  0.00    +0.000 C 
BRANCH  23  24
ATOM     24  C   UNL     1      -2.122  12.199  19.412  0.00  0.00    +0.000 C 
BRANCH  24  25
ATOM     25  C   UNL     1      -2.448  11.558  18.064  0.00  0.00    +0.000 C 
BRANCH  25  26
ATOM     26  C   UNL     1      -3.929  11.227  17.938  0.00  0.00    +0.000 C 
BRANCH  26  27
ATOM     27  C   UNL     1      -4.314  11.048  16.470  0.00  0.00    +0.000 C 
BRANCH  27  29
ATOM     28  C   UNL     1      -2.959   9.919  14.679  0.00  0.00    +0.000 C 
ATOM     29  C   UNL     1      -3.088  11.145  15.567  0.00  0.00    +0.000 C 
ENDBRANCH  27  29
ENDBRANCH  26  27
ENDBRANCH  25  26
ENDBRANCH  24  25
ENDBRANCH  23  24
ENDBRANCH  22  23
ENDBRANCH  16  22
ENDBRANCH   1  19
TORSDOF 12
ENDMDL
MODEL 8
REMARK VINA RESULT:      -6.4      1.874      4.070
REMARK  Name = 
REMARK  14 active torsions:
REMARK  status: ('A' for Active; 'I' for Inactive)
REMARK    1  A    between atoms: C_1  and  C_2
REMARK    2  A    between atoms: C_2  and  C_3
REMARK    3  A    between atoms: C_3  and  C_4
REMARK    4  A    between atoms: C_4  and  C_5
REMARK    5  A    between atoms: C_5  and  C_6
REMARK    6  A    between atoms: C_6  and  C_7
REMARK    7  A    between atoms: C_7  and  C_8
REMARK    8  A    between atoms: C_8  and  C_9
REMARK    9  A    between atoms: C_12  and  N_13
REMARK   10  A    between atoms: N_13  and  C_14
REMARK   11  A    between atoms: N_21  and  C_22
REMARK   12  A    between atoms: C_22  and  C_23
REMARK   13  A    between atoms: C_23  and  O_24
REMARK   14  A    between atoms: O_24  and  C_25
REMARK                            x       y       z     vdW  Elec       q    Type
REMARK                         _______ _______ _______ _____ _____    ______ ____
ROOT
ATOM      1  N   UNL     1       2.973   5.483  20.199  0.00  0.00    +0.000 N 
ATOM      2  H   UNL     1       2.878   5.443  21.208  0.00  0.00    +0.000 HD
ENDROOT
BRANCH   1   3
ATOM      3  C   UNL     1       2.743   4.256  19.581  0.00  0.00    +0.000 A 
ATOM      4  C   UNL     1       1.467   3.827  19.534  0.00  0.00    +0.000 A 
ATOM      5  C   UNL     1       1.107   2.590  18.850  0.00  0.00    +0.000 A 
ATOM      6  O   UNL     1      -0.053   2.185  18.824  0.00  0.00    +0.000 OA
ATOM      7  N   UNL     1       2.129   1.948  18.237  0.00  0.00    +0.000 N 
ATOM      8  C   UNL     1       3.440   2.327  18.258  0.00  0.00    +0.000 A 
ATOM      9  O   UNL     1       4.257   1.652  17.635  0.00  0.00    +0.000 OA
ATOM     10  N   UNL     1       3.740   3.488  18.974  0.00  0.00    +0.000 N 
ATOM     11  H   UNL     1       1.909   1.112  17.718  0.00  0.00    +0.000 HD
BRANCH  10  12
ATOM     12  C   UNL     1       5.156   3.890  18.989  0.00  0.00    +0.000 C 
BRANCH  12  13
ATOM     13  C   UNL     1       5.648   4.831  17.876  0.00  0.00    +0.000 C 
BRANCH  13  14
ATOM     14  O   UNL     1       4.724   4.944  16.794  0.00  0.00    +0.000 OA
ATOM     15  C   UNL     1       5.222   5.846  15.804  0.00  0.00    +0.000 C 
ENDBRANCH  13  14
ENDBRANCH  12  13
ENDBRANCH  10  12
ENDBRANCH   1   3
BRANCH   1  19
ATOM     16  C   UNL     1       1.551   9.210  18.773  0.00  0.00    +0.000 A 
ATOM     17  C   UNL     1       1.275   8.811  20.086  0.00  0.00    +0.000 A 
ATOM     18  C   UNL     1       1.710   7.576  20.559  0.00  0.00    +0.000 A 
ATOM     19  C   UNL     1       2.413   6.700  19.725  0.00  0.00    +0.000 A 
ATOM     20  C   UNL     1       2.633   7.072  18.393  0.00  0.00    +0.000 A 
ATOM     21  C   UNL     1       2.204   8.315  17.918  0.00  0.00    +0.000 A 
BRANCH  16  22
ATOM     22  C   UNL     1       1.195  10.604  18.315  0.00  0.00    +0.000 C 
BRANCH  22  23
ATOM     23  C   UNL     1       0.393  11.326  19.401  0.00  0.00    +0.000 C 
BRANCH  23  24
ATOM     24  C   UNL     1      -0.511  12.416  18.843  0.00  0.00    +0.000 C 
BRANCH  24  25
ATOM     25  C   UNL     1      -1.971  11.998  19.012  0.00  0.00    +0.000 C 
BRANCH  25  26
ATOM     26  C   UNL     1      -2.289  10.726  18.234  0.00  0.00    +0.000 C 
BRANCH  26  27
ATOM     27  C   UNL     1      -2.665  11.062  16.792  0.00  0.00    +0.000 C 
BRANCH  27  29
ATOM     28  C   UNL     1      -3.104  10.129  14.500  0.00  0.00    +0.000 C 
ATOM     29  C   UNL     1      -2.708   9.804  15.931  0.00  0.00    +0.000 C 
ENDBRANCH  27  29
ENDBRANCH  26  27
ENDBRANCH  25  26
ENDBRANCH  24  25
ENDBRANCH  23  24
ENDBRANCH  22  23
ENDBRANCH  16  22
ENDBRANCH   1  19
TORSDOF 12
ENDMDL
MODEL 9
REMARK VINA RESULT:      -6.4      1.797      3.052
REMARK  Name = 
REMARK  14 active torsions:
REMARK  status: ('A' for Active; 'I' for Inactive)
REMARK    1  A    between atoms: C_1  and  C_2
REMARK    2  A    between atoms: C_2  and  C_3
REMARK    3  A    between atoms: C_3  and  C_4
REMARK    4  A    between atoms: C_4  and  C_5
REMARK    5  A    between atoms: C_5  and  C_6
REMARK    6  A    between atoms: C_6  and  C_7
REMARK    7  A    between atoms: C_7  and  C_8
REMARK    8  A    between atoms: C_8  and  C_9
REMARK    9  A    between atoms: C_12  and  N_13
REMARK   10  A    between atoms: N_13  and  C_14
REMARK   11  A    between atoms: N_21  and  C_22
REMARK   12  A    between atoms: C_22  and  C_23
REMARK   13  A    between atoms: C_23  and  O_24
REMARK   14  A    between atoms: O_24  and  C_25
REMARK                            x       y       z     vdW  Elec       q    Type
REMARK                         _______ _______ _______ _____ _____    ______ ____
ROOT
ATOM      1  N   UNL     1       2.750   6.014  20.196  0.00  0.00    +0.000 N 
ATOM      2  H   UNL     1       2.041   5.518  20.725  0.00  0.00    +0.000 HD
ENDROOT
BRANCH   1   3
ATOM      3  C   UNL     1       3.488   5.180  19.360  0.00  0.00    +0.000 A 
ATOM      4  C   UNL     1       4.826   5.336  19.368  0.00  0.00    +0.000 A 
ATOM      5  C   UNL     1       5.697   4.469  18.584  0.00  0.00    +0.000 A 
ATOM      6  O   UNL     1       6.916   4.622  18.573  0.00  0.00    +0.000 OA
ATOM      7  N   UNL     1       5.069   3.482  17.901  0.00  0.00    +0.000 N 
ATOM      8  C   UNL     1       3.721   3.280  17.844  0.00  0.00    +0.000 A 
ATOM      9  O   UNL     1       3.295   2.327  17.195  0.00  0.00    +0.000 OA
ATOM     10  N   UNL     1       2.927   4.173  18.569  0.00  0.00    +0.000 N 
ATOM     11  H   UNL     1       5.645   2.838  17.381  0.00  0.00    +0.000 HD
BRANCH  10  12
ATOM     12  C   UNL     1       1.474   3.946  18.505  0.00  0.00    +0.000 C 
BRANCH  12  13
ATOM     13  C   UNL     1       0.841   3.044  19.578  0.00  0.00    +0.000 C 
BRANCH  13  14
ATOM     14  O   UNL     1       0.985   3.563  20.899  0.00  0.00    +0.000 OA
ATOM     15  C   UNL     1       1.680   2.632  21.729  0.00  0.00    +0.000 C 
ENDBRANCH  13  14
ENDBRANCH  12  13
ENDBRANCH  10  12
ENDBRANCH   1   3
BRANCH   1  19
ATOM     16  C   UNL     1       0.944   9.636  18.945  0.00  0.00    +0.000 A 
ATOM     17  C   UNL     1       1.697   8.879  18.039  0.00  0.00    +0.000 A 
ATOM     18  C   UNL     1       2.322   7.703  18.445  0.00  0.00    +0.000 A 
ATOM     19  C   UNL     1       2.226   7.264  19.769  0.00  0.00    +0.000 A 
ATOM     20  C   UNL     1       1.526   8.053  20.689  0.00  0.00    +0.000 A 
ATOM     21  C   UNL     1       0.891   9.232  20.283  0.00  0.00    +0.000 A 
BRANCH  16  22
ATOM     22  C   UNL     1       0.159  10.832  18.462  0.00  0.00    +0.000 C 
BRANCH  22  23
ATOM     23  C   UNL     1      -0.967  11.156  19.447  0.00  0.00    +0.000 C 
BRANCH  23  24
ATOM     24  C   UNL     1      -2.282  11.489  18.754  0.00  0.00    +0.000 C 
BRANCH  24  25
ATOM     25  C   UNL     1      -3.191  12.237  19.728  0.00  0.00    +0.000 C 
BRANCH  25  26
ATOM     26  C   UNL     1      -4.611  12.366  19.192  0.00  0.00    +0.000 C 
BRANCH  26  27
ATOM     27  C   UNL     1      -4.954  11.177  18.296  0.00  0.00    +0.000 C 
BRANCH  27  29
ATOM     28  C   UNL     1      -6.915   9.984  19.319  0.00  0.00    +0.000 C 
ATOM     29  C   UNL     1      -6.461  10.952  18.238  0.00  0.00    +0.000 C 
ENDBRANCH  27  29
ENDBRANCH  26  27
ENDBRANCH  25  26
ENDBRANCH  24  25
ENDBRANCH  23  24
ENDBRANCH  22  23
ENDBRANCH  16  22
ENDBRANCH   1  19
TORSDOF 12
ENDMDL
