MODEL 1
REMARK VINA RESULT:      -8.7      0.000      0.000
REMARK  Name = 
REMARK  3 active torsions:
REMARK  status: ('A' for Active; 'I' for Inactive)
REMARK    1  A    between atoms: C_2  and  C_17
REMARK    2  A    between atoms: C_6  and  O_7
REMARK    3  A    between atoms: O_7  and  C_8
REMARK                            x       y       z     vdW  Elec       q    Type
REMARK                         _______ _______ _______ _____ _____    ______ ____
ROOT
ATOM      1  O   UNL     1       2.533   7.444  18.309  0.00  0.00    +0.000 OA
ATOM      2  C   UNL     1       2.140   7.458  19.470  0.00  0.00    +0.000 C 
ATOM      3  N   UNL     1       2.336   6.462  20.405  0.00  0.00    +0.000 N 
ATOM      4  C   UNL     1       3.066   5.309  20.104  0.00  0.00    +0.000 A 
ATOM      5  C   UNL     1       4.292   5.382  19.458  0.00  0.00    +0.000 A 
ATOM      6  C   UNL     1       4.922   4.195  19.094  0.00  0.00    +0.000 A 
ATOM      7  C   UNL     1       4.324   2.984  19.422  0.00  0.00    +0.000 A 
ATOM      8  C   UNL     1       3.126   3.014  20.114  0.00  0.00    +0.000 A 
ATOM      9  N   UNL     1       2.501   4.149  20.492  0.00  0.00    +0.000 NA
ATOM     10  H   UNL     1       1.603   6.312  21.085  0.00  0.00    +0.000 HD
ENDROOT
BRANCH   2  11
ATOM     11  C   UNL     1       1.324   8.605  19.931  0.00  0.00    +0.000 A 
ATOM     12  C   UNL     1       1.139   9.701  19.078  0.00  0.00    +0.000 A 
ATOM     13  C   UNL     1       0.457  10.830  19.535  0.00  0.00    +0.000 A 
ATOM     14  C   UNL     1      -0.021  10.869  20.846  0.00  0.00    +0.000 A 
ATOM     15  C   UNL     1       0.171   9.775  21.690  0.00  0.00    +0.000 A 
ATOM     16 CL   UNL     1      -0.390   9.844  23.316  0.00  0.00    +0.000 Cl
ATOM     17  C   UNL     1       0.834   8.635  21.240  0.00  0.00    +0.000 A 
ENDBRANCH   2  11
BRANCH   6  18
ATOM     18  O   UNL     1       6.150   4.105  18.477  0.00  0.00    +0.000 OA
BRANCH  18  19
ATOM     19  C   UNL     1       6.265   4.365  17.136  0.00  0.00    +0.000 A 
ATOM     20  C   UNL     1       5.433   3.839  16.153  0.00  0.00    +0.000 A 
ATOM     21  C   UNL     1       5.649   4.173  14.815  0.00  0.00    +0.000 A 
ATOM     22  C   UNL     1       6.720   4.995  14.507  0.00  0.00    +0.000 A 
ATOM     23  N   UNL     1       7.569   5.495  15.429  0.00  0.00    +0.000 NA
ATOM     24  C   UNL     1       7.324   5.161  16.722  0.00  0.00    +0.000 A 
ENDBRANCH  18  19
ENDBRANCH   6  18
TORSDOF 3
ENDMDL
MODEL 2
REMARK VINA RESULT:      -8.5      1.047      1.443
REMARK  Name = 
REMARK  3 active torsions:
REMARK  status: ('A' for Active; 'I' for Inactive)
REMARK    1  A    between atoms: C_2  and  C_17
REMARK    2  A    between atoms: C_6  and  O_7
REMARK    3  A    between atoms: O_7  and  C_8
REMARK                            x       y       z     vdW  Elec       q    Type
REMARK                         _______ _______ _______ _____ _____    ______ ____
ROOT
ATOM      1  O   UNL     1       2.547   7.539  18.598  0.00  0.00    +0.000 OA
ATOM      2  C   UNL     1       2.130   7.457  19.747  0.00  0.00    +0.000 C 
ATOM      3  N   UNL     1       2.269   6.369  20.586  0.00  0.00    +0.000 N 
ATOM      4  C   UNL     1       2.962   5.222  20.188  0.00  0.00    +0.000 A 
ATOM      5  C   UNL     1       4.204   5.309  19.574  0.00  0.00    +0.000 A 
ATOM      6  C   UNL     1       4.797   4.139  19.108  0.00  0.00    +0.000 A 
ATOM      7  C   UNL     1       4.148   2.926  19.306  0.00  0.00    +0.000 A 
ATOM      8  C   UNL     1       2.937   2.936  19.977  0.00  0.00    +0.000 A 
ATOM      9  N   UNL     1       2.347   4.054  20.451  0.00  0.00    +0.000 NA
ATOM     10  H   UNL     1       1.517   6.183  21.235  0.00  0.00    +0.000 HD
ENDROOT
BRANCH   2  11
ATOM     11  C   UNL     1       1.348   8.585  20.302  0.00  0.00    +0.000 A 
ATOM     12  C   UNL     1       1.097   8.634  21.679  0.00  0.00    +0.000 A 
ATOM     13  C   UNL     1       0.279   9.637  22.202  0.00  0.00    +0.000 A 
ATOM     14  C   UNL     1      -0.300  10.576  21.348  0.00  0.00    +0.000 A 
ATOM     15  C   UNL     1      -0.047  10.519  19.977  0.00  0.00    +0.000 A 
ATOM     16 CL   UNL     1      -0.792  11.660  18.925  0.00  0.00    +0.000 Cl
ATOM     17  C   UNL     1       0.782   9.534  19.445  0.00  0.00    +0.000 A 
ENDBRANCH   2  11
BRANCH   6  18
ATOM     18  O   UNL     1       6.034   4.061  18.508  0.00  0.00    +0.000 OA
BRANCH  18  19
ATOM     19  C   UNL     1       6.169   4.348  17.174  0.00  0.00    +0.000 A 
ATOM     20  C   UNL     1       5.296   3.919  16.179  0.00  0.00    +0.000 A 
ATOM     21  C   UNL     1       5.538   4.273  14.851  0.00  0.00    +0.000 A 
ATOM     22  C   UNL     1       6.672   5.013  14.562  0.00  0.00    +0.000 A 
ATOM     23  N   UNL     1       7.559   5.415  15.495  0.00  0.00    +0.000 NA
ATOM     24  C   UNL     1       7.289   5.067  16.780  0.00  0.00    +0.000 A 
ENDBRANCH  18  19
ENDBRANCH   6  18
TORSDOF 3
ENDMDL
MODEL 3
REMARK VINA RESULT:      -8.3      1.630      2.291
REMARK  Name = 
REMARK  3 active torsions:
REMARK  status: ('A' for Active; 'I' for Inactive)
REMARK    1  A    between atoms: C_2  and  C_17
REMARK    2  A    between atoms: C_6  and  O_7
REMARK    3  A    between atoms: O_7  and  C_8
REMARK                            x       y       z     vdW  Elec       q    Type
REMARK                         _______ _______ _______ _____ _____    ______ ____
ROOT
ATOM      1  O   UNL     1       2.495   7.779  18.987  0.00  0.00    +0.000 OA
ATOM      2  C   UNL     1       1.926   7.553  20.049  0.00  0.00    +0.000 C 
ATOM      3  N   UNL     1       1.889   6.341  20.708  0.00  0.00    +0.000 N 
ATOM      4  C   UNL     1       2.559   5.218  20.214  0.00  0.00    +0.000 A 
ATOM      5  C   UNL     1       3.874   5.300  19.776  0.00  0.00    +0.000 A 
ATOM      6  C   UNL     1       4.452   4.172  19.200  0.00  0.00    +0.000 A 
ATOM      7  C   UNL     1       3.712   2.999  19.118  0.00  0.00    +0.000 A 
ATOM      8  C   UNL     1       2.426   3.001  19.630  0.00  0.00    +0.000 A 
ATOM      9  N   UNL     1       1.846   4.075  20.207  0.00  0.00    +0.000 NA
ATOM     10  H   UNL     1       1.048   6.117  21.223  0.00  0.00    +0.000 HD
ENDROOT
BRANCH   2  11
ATOM     11  C   UNL     1       1.146   8.640  20.683  0.00  0.00    +0.000 A 
ATOM     12  C   UNL     1       1.044   8.686  22.079  0.00  0.00    +0.000 A 
ATOM     13  C   UNL     1       0.232   9.646  22.686  0.00  0.00    +0.000 A 
ATOM     14  C   UNL     1      -0.489  10.544  21.898  0.00  0.00    +0.000 A 
ATOM     15  C   UNL     1      -0.384  10.489  20.507  0.00  0.00    +0.000 A 
ATOM     16 CL   UNL     1      -1.303  11.578  19.540  0.00  0.00    +0.000 Cl
ATOM     17  C   UNL     1       0.437   9.548  19.890  0.00  0.00    +0.000 A 
ENDBRANCH   2  11
BRANCH   6  18
ATOM     18  O   UNL     1       5.750   4.090  18.748  0.00  0.00    +0.000 OA
BRANCH  18  19
ATOM     19  C   UNL     1       6.418   5.225  18.367  0.00  0.00    +0.000 A 
ATOM     20  C   UNL     1       7.484   5.789  19.062  0.00  0.00    +0.000 A 
ATOM     21  C   UNL     1       8.085   6.951  18.579  0.00  0.00    +0.000 A 
ATOM     22  C   UNL     1       7.569   7.531  17.432  0.00  0.00    +0.000 A 
ATOM     23  N   UNL     1       6.515   7.035  16.753  0.00  0.00    +0.000 NA
ATOM     24  C   UNL     1       5.960   5.896  17.241  0.00  0.00    +0.000 A 
ENDBRANCH  18  19
ENDBRANCH   6  18
TORSDOF 3
ENDMDL
MODEL 4
REMARK VINA RESULT:      -8.2      4.668      6.774
REMARK  Name = 
REMARK  3 active torsions:
REMARK  status: ('A' for Active; 'I' for Inactive)
REMARK    1  A    between atoms: C_2  and  C_17
REMARK    2  A    between atoms: C_6  and  O_7
REMARK    3  A    between atoms: O_7  and  C_8
REMARK                            x       y       z     vdW  Elec       q    Type
REMARK                         _______ _______ _______ _____ _____    ______ ____
ROOT
ATOM      1  O   UNL     1       8.649   7.589  19.247  0.00  0.00    +0.000 OA
ATOM      2  C   UNL     1       8.284   8.355  18.362  0.00  0.00    +0.000 C 
ATOM      3  N   UNL     1       7.549   8.012  17.245  0.00  0.00    +0.000 N 
ATOM      4  C   UNL     1       7.108   6.703  17.032  0.00  0.00    +0.000 A 
ATOM      5  C   UNL     1       6.499   5.977  18.046  0.00  0.00    +0.000 A 
ATOM      6  C   UNL     1       6.174   4.645  17.803  0.00  0.00    +0.000 A 
ATOM      7  C   UNL     1       6.434   4.102  16.550  0.00  0.00    +0.000 A 
ATOM      8  C   UNL     1       6.996   4.922  15.588  0.00  0.00    +0.000 A 
ATOM      9  N   UNL     1       7.307   6.220  15.791  0.00  0.00    +0.000 NA
ATOM     10  H   UNL     1       7.738   8.521  16.391  0.00  0.00    +0.000 HD
ENDROOT
BRANCH   2  11
ATOM     11  C   UNL     1       8.700   9.774  18.434  0.00  0.00    +0.000 A 
ATOM     12  C   UNL     1       8.099  10.709  17.581  0.00  0.00    +0.000 A 
ATOM     13  C   UNL     1       8.551  12.029  17.568  0.00  0.00    +0.000 A 
ATOM     14  C   UNL     1       9.612  12.409  18.391  0.00  0.00    +0.000 A 
ATOM     15  C   UNL     1      10.208  11.470  19.235  0.00  0.00    +0.000 A 
ATOM     16 CL   UNL     1      11.539  11.937  20.223  0.00  0.00    +0.000 Cl
ATOM     17  C   UNL     1       9.754  10.154  19.271  0.00  0.00    +0.000 A 
ENDBRANCH   2  11
BRANCH   6  18
ATOM     18  O   UNL     1       5.542   3.807  18.695  0.00  0.00    +0.000 OA
BRANCH  18  19
ATOM     19  C   UNL     1       4.208   3.528  18.547  0.00  0.00    +0.000 A 
ATOM     20  C   UNL     1       3.282   4.378  17.950  0.00  0.00    +0.000 A 
ATOM     21  C   UNL     1       1.946   3.986  17.858  0.00  0.00    +0.000 A 
ATOM     22  C   UNL     1       1.578   2.768  18.403  0.00  0.00    +0.000 A 
ATOM     23  N   UNL     1       2.439   1.934  19.021  0.00  0.00    +0.000 NA
ATOM     24  C   UNL     1       3.735   2.338  19.083  0.00  0.00    +0.000 A 
ENDBRANCH  18  19
ENDBRANCH   6  18
TORSDOF 3
ENDMDL
MODEL 5
REMARK VINA RESULT:      -8.1      1.143      1.741
REMARK  Name = 
REMARK  3 active torsions:
REMARK  status: ('A' for Active; 'I' for Inactive)
REMARK    1  A    between atoms: C_2  and  C_17
REMARK    2  A    between atoms: C_6  and  O_7
REMARK    3  A    between atoms: O_7  and  C_8
REMARK                            x       y       z     vdW  Elec       q    Type
REMARK                         _______ _______ _______ _____ _____    ______ ____
ROOT
ATOM      1  O   UNL     1       2.381   7.559  18.465  0.00  0.00    +0.000 OA
ATOM      2  C   UNL     1       1.922   7.561  19.602  0.00  0.00    +0.000 C 
ATOM      3  N   UNL     1       2.022   6.534  20.519  0.00  0.00    +0.000 N 
ATOM      4  C   UNL     1       2.716   5.357  20.228  0.00  0.00    +0.000 A 
ATOM      5  C   UNL     1       3.980   5.392  19.654  0.00  0.00    +0.000 A 
ATOM      6  C   UNL     1       4.577   4.187  19.293  0.00  0.00    +0.000 A 
ATOM      7  C   UNL     1       3.909   2.996  19.553  0.00  0.00    +0.000 A 
ATOM      8  C   UNL     1       2.675   3.062  20.177  0.00  0.00    +0.000 A 
ATOM      9  N   UNL     1       2.080   4.215  20.551  0.00  0.00    +0.000 NA
ATOM     10  H   UNL     1       1.244   6.400  21.153  0.00  0.00    +0.000 HD
ENDROOT
BRANCH   2  11
ATOM     11  C   UNL     1       1.133   8.732  20.048  0.00  0.00    +0.000 A 
ATOM     12  C   UNL     1       1.022   9.845  19.206  0.00  0.00    +0.000 A 
ATOM     13  C   UNL     1       0.365  10.993  19.653  0.00  0.00    +0.000 A 
ATOM     14  C   UNL     1      -0.162  11.033  20.944  0.00  0.00    +0.000 A 
ATOM     15  C   UNL     1      -0.044   9.920  21.779  0.00  0.00    +0.000 A 
ATOM     16 CL   UNL     1      -0.666   9.988  23.383  0.00  0.00    +0.000 Cl
ATOM     17  C   UNL     1       0.593   8.763  21.338  0.00  0.00    +0.000 A 
ENDBRANCH   2  11
BRANCH   6  18
ATOM     18  O   UNL     1       5.833   4.057  18.744  0.00  0.00    +0.000 OA
BRANCH  18  19
ATOM     19  C   UNL     1       6.526   5.171  18.346  0.00  0.00    +0.000 A 
ATOM     20  C   UNL     1       7.494   5.817  19.109  0.00  0.00    +0.000 A 
ATOM     21  C   UNL     1       8.133   6.947  18.598  0.00  0.00    +0.000 A 
ATOM     22  C   UNL     1       7.750   7.414  17.352  0.00  0.00    +0.000 A 
ATOM     23  N   UNL     1       6.791   6.836  16.599  0.00  0.00    +0.000 NA
ATOM     24  C   UNL     1       6.197   5.730  17.118  0.00  0.00    +0.000 A 
ENDBRANCH  18  19
ENDBRANCH   6  18
TORSDOF 3
ENDMDL
MODEL 6
REMARK VINA RESULT:      -7.9      1.627      2.103
REMARK  Name = 
REMARK  3 active torsions:
REMARK  status: ('A' for Active; 'I' for Inactive)
REMARK    1  A    between atoms: C_2  and  C_17
REMARK    2  A    between atoms: C_6  and  O_7
REMARK    3  A    between atoms: O_7  and  C_8
REMARK                            x       y       z     vdW  Elec       q    Type
REMARK                         _______ _______ _______ _____ _____    ______ ____
ROOT
ATOM      1  O   UNL     1       2.309   7.769  19.233  0.00  0.00    +0.000 OA
ATOM      2  C   UNL     1       1.688   7.634  20.280  0.00  0.00    +0.000 C 
ATOM      3  N   UNL     1       1.496   6.450  20.963  0.00  0.00    +0.000 N 
ATOM      4  C   UNL     1       2.050   5.248  20.514  0.00  0.00    +0.000 A 
ATOM      5  C   UNL     1       3.378   5.173  20.118  0.00  0.00    +0.000 A 
ATOM      6  C   UNL     1       3.843   3.974  19.584  0.00  0.00    +0.000 A 
ATOM      7  C   UNL     1       2.979   2.889  19.502  0.00  0.00    +0.000 A 
ATOM      8  C   UNL     1       1.687   3.047  19.973  0.00  0.00    +0.000 A 
ATOM      9  N   UNL     1       1.214   4.192  20.508  0.00  0.00    +0.000 NA
ATOM     10  H   UNL     1       0.620   6.334  21.455  0.00  0.00    +0.000 HD
ENDROOT
BRANCH   2  11
ATOM     11  C   UNL     1       1.016   8.817  20.866  0.00  0.00    +0.000 A 
ATOM     12  C   UNL     1       0.691   8.816  22.228  0.00  0.00    +0.000 A 
ATOM     13  C   UNL     1      -0.030   9.881  22.772  0.00  0.00    +0.000 A 
ATOM     14  C   UNL     1      -0.438  10.933  21.952  0.00  0.00    +0.000 A 
ATOM     15  C   UNL     1      -0.112  10.925  20.595  0.00  0.00    +0.000 A 
ATOM     16 CL   UNL     1      -0.649  12.210  19.582  0.00  0.00    +0.000 Cl
ATOM     17  C   UNL     1       0.622   9.877  20.044  0.00  0.00    +0.000 A 
ENDBRANCH   2  11
BRANCH   6  18
ATOM     18  O   UNL     1       5.137   3.736  19.176  0.00  0.00    +0.000 OA
BRANCH  18  19
ATOM     19  C   UNL     1       5.816   4.687  18.459  0.00  0.00    +0.000 A 
ATOM     20  C   UNL     1       5.624   4.945  17.105  0.00  0.00    +0.000 A 
ATOM     21  C   UNL     1       6.378   5.938  16.479  0.00  0.00    +0.000 A 
ATOM     22  C   UNL     1       7.328   6.614  17.227  0.00  0.00    +0.000 A 
ATOM     23  N   UNL     1       7.567   6.367  18.531  0.00  0.00    +0.000 NA
ATOM     24  C   UNL     1       6.808   5.403  19.115  0.00  0.00    +0.000 A 
ENDBRANCH  18  19
ENDBRANCH   6  18
TORSDOF 3
ENDMDL
MODEL 7
REMARK VINA RESULT:      -7.8      1.985      2.584
REMARK  Name = 
REMARK  3 active torsions:
REMARK  status: ('A' for Active; 'I' for Inactive)
REMARK    1  A    between atoms: C_2  and  C_17
REMARK    2  A    between atoms: C_6  and  O_7
REMARK    3  A    between atoms: O_7  and  C_8
REMARK                            x       y       z     vdW  Elec       q    Type
REMARK                         _______ _______ _______ _____ _____    ______ ____
ROOT
ATOM      1  O   UNL     1       1.433   8.524  18.964  0.00  0.00    +0.000 OA
ATOM      2  C   UNL     1       1.328   8.309  20.166  0.00  0.00    +0.000 C 
ATOM      3  N   UNL     1       1.642   7.129  20.810  0.00  0.00    +0.000 N 
ATOM      4  C   UNL     1       2.165   6.033  20.117  0.00  0.00    +0.000 A 
ATOM      5  C   UNL     1       3.205   6.186  19.211  0.00  0.00    +0.000 A 
ATOM      6  C   UNL     1       3.613   5.075  18.477  0.00  0.00    +0.000 A 
ATOM      7  C   UNL     1       2.995   3.851  18.703  0.00  0.00    +0.000 A 
ATOM      8  C   UNL     1       2.002   3.788  19.665  0.00  0.00    +0.000 A 
ATOM      9  N   UNL     1       1.598   4.845  20.401  0.00  0.00    +0.000 NA
ATOM     10  H   UNL     1       1.079   6.872  21.610  0.00  0.00    +0.000 HD
ENDROOT
BRANCH   2  11
ATOM     11  C   UNL     1       0.760   9.368  21.031  0.00  0.00    +0.000 A 
ATOM     12  C   UNL     1       0.132   9.011  22.230  0.00  0.00    +0.000 A 
ATOM     13  C   UNL     1      -0.494   9.988  23.006  0.00  0.00    +0.000 A 
ATOM     14  C   UNL     1      -0.507  11.315  22.573  0.00  0.00    +0.000 A 
ATOM     15  C   UNL     1       0.119  11.662  21.375  0.00  0.00    +0.000 A 
ATOM     16 CL   UNL     1       0.070  13.295  20.831  0.00  0.00    +0.000 Cl
ATOM     17  C   UNL     1       0.763  10.699  20.602  0.00  0.00    +0.000 A 
ENDBRANCH   2  11
BRANCH   6  18
ATOM     18  O   UNL     1       4.646   5.061  17.567  0.00  0.00    +0.000 OA
BRANCH  18  19
ATOM     19  C   UNL     1       5.804   5.745  17.834  0.00  0.00    +0.000 A 
ATOM     20  C   UNL     1       6.713   5.405  18.831  0.00  0.00    +0.000 A 
ATOM     21  C   UNL     1       7.860   6.180  19.011  0.00  0.00    +0.000 A 
ATOM     22  C   UNL     1       8.036   7.293  18.208  0.00  0.00    +0.000 A 
ATOM     23  N   UNL     1       7.159   7.674  17.256  0.00  0.00    +0.000 NA
ATOM     24  C   UNL     1       6.060   6.893  17.096  0.00  0.00    +0.000 A 
ENDBRANCH  18  19
ENDBRANCH   6  18
TORSDOF 3
ENDMDL
MODEL 8
REMARK VINA RESULT:      -7.8      1.437      1.871
REMARK  Name = 
REMARK  3 active torsions:
REMARK  status: ('A' for Active; 'I' for Inactive)
REMARK    1  A    between atoms: C_2  and  C_17
REMARK    2  A    between atoms: C_6  and  O_7
REMARK    3  A    between atoms: O_7  and  C_8
REMARK                            x       y       z     vdW  Elec       q    Type
REMARK                         _______ _______ _______ _____ _____    ______ ____
ROOT
ATOM      1  O   UNL     1       2.030   8.105  19.285  0.00  0.00    +0.000 OA
ATOM      2  C   UNL     1       1.510   7.921  20.379  0.00  0.00    +0.000 C 
ATOM      3  N   UNL     1       1.421   6.714  21.042  0.00  0.00    +0.000 N 
ATOM      4  C   UNL     1       1.973   5.544  20.512  0.00  0.00    +0.000 A 
ATOM      5  C   UNL     1       3.262   5.528  19.997  0.00  0.00    +0.000 A 
ATOM      6  C   UNL     1       3.719   4.361  19.390  0.00  0.00    +0.000 A 
ATOM      7  C   UNL     1       2.888   3.247  19.355  0.00  0.00    +0.000 A 
ATOM      8  C   UNL     1       1.639   3.345  19.942  0.00  0.00    +0.000 A 
ATOM      9  N   UNL     1       1.177   4.459  20.549  0.00  0.00    +0.000 NA
ATOM     10  H   UNL     1       0.597   6.553  21.606  0.00  0.00    +0.000 HD
ENDROOT
BRANCH   2  11
ATOM     11  C   UNL     1       0.853   9.063  21.055  0.00  0.00    +0.000 A 
ATOM     12  C   UNL     1       0.440   8.926  22.386  0.00  0.00    +0.000 A 
ATOM     13  C   UNL     1      -0.267   9.958  23.005  0.00  0.00    +0.000 A 
ATOM     14  C   UNL     1      -0.576  11.115  22.288  0.00  0.00    +0.000 A 
ATOM     15  C   UNL     1      -0.164  11.242  20.961  0.00  0.00    +0.000 A 
ATOM     16 CL   UNL     1      -0.578  12.657  20.072  0.00  0.00    +0.000 Cl
ATOM     17  C   UNL     1       0.559  10.227  20.338  0.00  0.00    +0.000 A 
ENDBRANCH   2  11
BRANCH   6  18
ATOM     18  O   UNL     1       4.978   4.181  18.863  0.00  0.00    +0.000 OA
BRANCH  18  19
ATOM     19  C   UNL     1       5.250   4.589  17.582  0.00  0.00    +0.000 A 
ATOM     20  C   UNL     1       5.055   3.811  16.445  0.00  0.00    +0.000 A 
ATOM     21  C   UNL     1       5.372   4.332  15.190  0.00  0.00    +0.000 A 
ATOM     22  C   UNL     1       5.912   5.605  15.124  0.00  0.00    +0.000 A 
ATOM     23  N   UNL     1       6.150   6.374  16.206  0.00  0.00    +0.000 NA
ATOM     24  C   UNL     1       5.818   5.844  17.412  0.00  0.00    +0.000 A 
ENDBRANCH  18  19
ENDBRANCH   6  18
TORSDOF 3
ENDMDL
MODEL 9
REMARK VINA RESULT:      -7.8      2.161      2.760
REMARK  Name = 
REMARK  3 active torsions:
REMARK  status: ('A' for Active; 'I' for Inactive)
REMARK    1  A    between atoms: C_2  and  C_17
REMARK    2  A    between atoms: C_6  and  O_7
REMARK    3  A    between atoms: O_7  and  C_8
REMARK                            x       y       z     vdW  Elec       q    Type
REMARK                         _______ _______ _______ _____ _____    ______ ____
ROOT
ATOM      1  O   UNL     1       1.251   8.709  19.086  0.00  0.00    +0.000 OA
ATOM      2  C   UNL     1       1.143   8.499  20.289  0.00  0.00    +0.000 C 
ATOM      3  N   UNL     1       1.436   7.315  20.935  0.00  0.00    +0.000 N 
ATOM      4  C   UNL     1       1.936   6.208  20.244  0.00  0.00    +0.000 A 
ATOM      5  C   UNL     1       2.978   6.338  19.337  0.00  0.00    +0.000 A 
ATOM      6  C   UNL     1       3.364   5.218  18.605  0.00  0.00    +0.000 A 
ATOM      7  C   UNL     1       2.722   4.006  18.834  0.00  0.00    +0.000 A 
ATOM      8  C   UNL     1       1.730   3.965  19.797  0.00  0.00    +0.000 A 
ATOM      9  N   UNL     1       1.347   5.031  20.532  0.00  0.00    +0.000 NA
ATOM     10  H   UNL     1       0.868   7.070  21.736  0.00  0.00    +0.000 HD
ENDROOT
BRANCH   2  11
ATOM     11  C   UNL     1       0.597   9.571  21.152  0.00  0.00    +0.000 A 
ATOM     12  C   UNL     1       0.019   9.233  22.382  0.00  0.00    +0.000 A 
ATOM     13  C   UNL     1      -0.588  10.221  23.160  0.00  0.00    +0.000 A 
ATOM     14  C   UNL     1      -0.633  11.537  22.700  0.00  0.00    +0.000 A 
ATOM     15  C   UNL     1      -0.057  11.865  21.471  0.00  0.00    +0.000 A 
ATOM     16 CL   UNL     1      -0.146  13.484  20.893  0.00  0.00    +0.000 Cl
ATOM     17  C   UNL     1       0.567  10.892  20.694  0.00  0.00    +0.000 A 
ENDBRANCH   2  11
BRANCH   6  18
ATOM     18  O   UNL     1       4.395   5.182  17.694  0.00  0.00    +0.000 OA
BRANCH  18  19
ATOM     19  C   UNL     1       5.616   5.717  18.018  0.00  0.00    +0.000 A 
ATOM     20  C   UNL     1       6.251   6.730  17.306  0.00  0.00    +0.000 A 
ATOM     21  C   UNL     1       7.497   7.193  17.731  0.00  0.00    +0.000 A 
ATOM     22  C   UNL     1       8.081   6.595  18.834  0.00  0.00    +0.000 A 
ATOM     23  N   UNL     1       7.513   5.587  19.527  0.00  0.00    +0.000 NA
ATOM     24  C   UNL     1       6.295   5.167  19.097  0.00  0.00    +0.000 A 
ENDBRANCH  18  19
ENDBRANCH   6  18
TORSDOF 3
ENDMDL
