MODEL 1
REMARK VINA RESULT:      -6.9      0.000      0.000
REMARK  Name = 
REMARK  4 active torsions:
REMARK  status: ('A' for Active; 'I' for Inactive)
REMARK    1  A    between atoms: C_1  and  C_2
REMARK    2  A    between atoms: C_4  and  C_5
REMARK    3  A    between atoms: N_7  and  N_8
REMARK    4  A    between atoms: C_9  and  C_10
REMARK                            x       y       z     vdW  Elec       q    Type
REMARK                         _______ _______ _______ _____ _____    ______ ____
ROOT
ATOM      1  C   UNL     1       6.141   4.578  16.471  0.00  0.00    +0.000 C 
ATOM      2  O   UNL     1       6.859   4.334  17.441  0.00  0.00    +0.000 OA
ATOM      3  N   UNL     1       4.759   4.725  16.525  0.00  0.00    +0.000 N 
ATOM      4  H   UNL     1       4.249   4.943  15.673  0.00  0.00    +0.000 HD
ENDROOT
BRANCH   1   8
ATOM      5  C   UNL     1       7.316   4.276  11.531  0.00  0.00    +0.000 C 
ATOM      6  C   UNL     1       7.147   4.539  12.972  0.00  0.00    +0.000 A 
ATOM      7  C   UNL     1       6.317   4.050  13.949  0.00  0.00    +0.000 A 
ATOM      8  C   UNL     1       6.707   4.736  15.130  0.00  0.00    +0.000 A 
ATOM      9  N   UNL     1       7.712   5.595  14.871  0.00  0.00    +0.000 NA
ATOM     10  O   UNL     1       7.979   5.464  13.519  0.00  0.00    +0.000 OA
ENDBRANCH   1   8
BRANCH   3  11
ATOM     11  N   UNL     1       4.122   4.613  17.722  0.00  0.00    +0.000 NA
ATOM     12  C   UNL     1       3.461   3.524  17.957  0.00  0.00    +0.000 C 
BRANCH  12  13
ATOM     13  C   UNL     1       2.725   3.370  19.240  0.00  0.00    +0.000 A 
ATOM     14  C   UNL     1       1.459   3.976  19.343  0.00  0.00    +0.000 A 
ATOM     15  C   UNL     1       0.691   3.840  20.500  0.00  0.00    +0.000 A 
ATOM     16  C   UNL     1       1.176   3.093  21.568  0.00  0.00    +0.000 A 
ATOM     17  C   UNL     1       2.437   2.498  21.486  0.00  0.00    +0.000 A 
ATOM     18  C   UNL     1       3.218   2.640  20.328  0.00  0.00    +0.000 A 
ATOM     19 BR   UNL     1       4.927   1.814  20.343  0.00  0.00    +0.000 Br
ENDBRANCH  12  13
ENDBRANCH   3  11
TORSDOF 3
ENDMDL
MODEL 2
REMARK VINA RESULT:      -6.9      1.527      1.709
REMARK  Name = 
REMARK  4 active torsions:
REMARK  status: ('A' for Active; 'I' for Inactive)
REMARK    1  A    between atoms: C_1  and  C_2
REMARK    2  A    between atoms: C_4  and  C_5
REMARK    3  A    between atoms: N_7  and  N_8
REMARK    4  A    between atoms: C_9  and  C_10
REMARK                            x       y       z     vdW  Elec       q    Type
REMARK                         _______ _______ _______ _____ _____    ______ ____
ROOT
ATOM      1  C   UNL     1       6.275   4.403  16.119  0.00  0.00    +0.000 C 
ATOM      2  O   UNL     1       6.968   4.652  17.105  0.00  0.00    +0.000 OA
ATOM      3  N   UNL     1       4.974   3.913  16.168  0.00  0.00    +0.000 N 
ATOM      4  H   UNL     1       4.471   3.752  15.299  0.00  0.00    +0.000 HD
ENDROOT
BRANCH   1   8
ATOM      5  C   UNL     1       7.282   4.243  11.136  0.00  0.00    +0.000 C 
ATOM      6  C   UNL     1       7.155   4.472  12.587  0.00  0.00    +0.000 A 
ATOM      7  C   UNL     1       6.381   3.930  13.583  0.00  0.00    +0.000 A 
ATOM      8  C   UNL     1       6.785   4.610  14.763  0.00  0.00    +0.000 A 
ATOM      9  N   UNL     1       7.744   5.514  14.485  0.00  0.00    +0.000 NA
ATOM     10  O   UNL     1       7.968   5.419  13.123  0.00  0.00    +0.000 OA
ENDBRANCH   1   8
BRANCH   3  11
ATOM     11  N   UNL     1       4.388   3.694  17.376  0.00  0.00    +0.000 NA
ATOM     12  C   UNL     1       3.145   4.030  17.517  0.00  0.00    +0.000 C 
BRANCH  12  13
ATOM     13  C   UNL     1       2.473   3.837  18.830  0.00  0.00    +0.000 A 
ATOM     14  C   UNL     1       2.126   2.524  19.199  0.00  0.00    +0.000 A 
ATOM     15  C   UNL     1       1.531   2.259  20.432  0.00  0.00    +0.000 A 
ATOM     16  C   UNL     1       1.279   3.303  21.316  0.00  0.00    +0.000 A 
ATOM     17  C   UNL     1       1.605   4.613  20.958  0.00  0.00    +0.000 A 
ATOM     18  C   UNL     1       2.195   4.886  19.714  0.00  0.00    +0.000 A 
ATOM     19 BR   UNL     1       2.565   6.707  19.324  0.00  0.00    +0.000 Br
ENDBRANCH  12  13
ENDBRANCH   3  11
TORSDOF 3
ENDMDL
MODEL 3
REMARK VINA RESULT:      -6.7      5.697      8.595
REMARK  Name = 
REMARK  4 active torsions:
REMARK  status: ('A' for Active; 'I' for Inactive)
REMARK    1  A    between atoms: C_1  and  C_2
REMARK    2  A    between atoms: C_4  and  C_5
REMARK    3  A    between atoms: N_7  and  N_8
REMARK    4  A    between atoms: C_9  and  C_10
REMARK                            x       y       z     vdW  Elec       q    Type
REMARK                         _______ _______ _______ _____ _____    ______ ____
ROOT
ATOM      1  C   UNL     1       1.013   9.025  20.539  0.00  0.00    +0.000 C 
ATOM      2  O   UNL     1       1.171   9.437  19.390  0.00  0.00    +0.000 OA
ATOM      3  N   UNL     1       1.433   7.780  20.999  0.00  0.00    +0.000 N 
ATOM      4  H   UNL     1       1.274   7.531  21.972  0.00  0.00    +0.000 HD
ENDROOT
BRANCH   1   8
ATOM      5  C   UNL     1      -1.765  12.425  23.107  0.00  0.00    +0.000 C 
ATOM      6  C   UNL     1      -0.896  11.354  22.584  0.00  0.00    +0.000 A 
ATOM      7  C   UNL     1      -0.563  10.912  21.329  0.00  0.00    +0.000 A 
ATOM      8  C   UNL     1       0.345   9.842  21.553  0.00  0.00    +0.000 A 
ATOM      9  N   UNL     1       0.538   9.651  22.872  0.00  0.00    +0.000 NA
ATOM     10  O   UNL     1      -0.243  10.601  23.507  0.00  0.00    +0.000 OA
ENDBRANCH   1   8
BRANCH   3  11
ATOM     11  N   UNL     1       2.079   6.938  20.148  0.00  0.00    +0.000 NA
ATOM     12  C   UNL     1       1.914   5.664  20.314  0.00  0.00    +0.000 C 
BRANCH  12  13
ATOM     13  C   UNL     1       2.625   4.706  19.427  0.00  0.00    +0.000 A 
ATOM     14  C   UNL     1       3.041   5.170  18.165  0.00  0.00    +0.000 A 
ATOM     15  C   UNL     1       3.751   4.343  17.294  0.00  0.00    +0.000 A 
ATOM     16  C   UNL     1       4.058   3.041  17.675  0.00  0.00    +0.000 A 
ATOM     17  C   UNL     1       3.639   2.562  18.918  0.00  0.00    +0.000 A 
ATOM     18  C   UNL     1       2.916   3.387  19.793  0.00  0.00    +0.000 A 
ATOM     19 BR   UNL     1       2.373   2.618  21.442  0.00  0.00    +0.000 Br
ENDBRANCH  12  13
ENDBRANCH   3  11
TORSDOF 3
ENDMDL
MODEL 4
REMARK VINA RESULT:      -6.7      1.861      2.137
REMARK  Name = 
REMARK  4 active torsions:
REMARK  status: ('A' for Active; 'I' for Inactive)
REMARK    1  A    between atoms: C_1  and  C_2
REMARK    2  A    between atoms: C_4  and  C_5
REMARK    3  A    between atoms: N_7  and  N_8
REMARK    4  A    between atoms: C_9  and  C_10
REMARK                            x       y       z     vdW  Elec       q    Type
REMARK                         _______ _______ _______ _____ _____    ______ ____
ROOT
ATOM      1  C   UNL     1       5.674   5.327  15.141  0.00  0.00    +0.000 C 
ATOM      2  O   UNL     1       5.531   6.543  15.267  0.00  0.00    +0.000 OA
ATOM      3  N   UNL     1       5.271   4.381  16.078  0.00  0.00    +0.000 N 
ATOM      4  H   UNL     1       5.415   3.394  15.881  0.00  0.00    +0.000 HD
ENDROOT
BRANCH   1   8
ATOM      5  C   UNL     1       7.051   2.486  11.153  0.00  0.00    +0.000 C 
ATOM      6  C   UNL     1       6.831   3.461  12.237  0.00  0.00    +0.000 A 
ATOM      7  C   UNL     1       5.936   3.565  13.272  0.00  0.00    +0.000 A 
ATOM      8  C   UNL     1       6.306   4.757  13.950  0.00  0.00    +0.000 A 
ATOM      9  N   UNL     1       7.361   5.339  13.348  0.00  0.00    +0.000 NA
ATOM     10  O   UNL     1       7.681   4.521  12.278  0.00  0.00    +0.000 OA
ENDBRANCH   1   8
BRANCH   3  11
ATOM     11  N   UNL     1       4.658   4.793  17.221  0.00  0.00    +0.000 NA
ATOM     12  C   UNL     1       3.432   4.425  17.418  0.00  0.00    +0.000 C 
BRANCH  12  13
ATOM     13  C   UNL     1       2.713   4.876  18.639  0.00  0.00    +0.000 A 
ATOM     14  C   UNL     1       2.878   6.216  19.036  0.00  0.00    +0.000 A 
ATOM     15  C   UNL     1       2.203   6.724  20.146  0.00  0.00    +0.000 A 
ATOM     16  C   UNL     1       1.350   5.900  20.873  0.00  0.00    +0.000 A 
ATOM     17  C   UNL     1       1.188   4.564  20.499  0.00  0.00    +0.000 A 
ATOM     18  C   UNL     1       1.872   4.046  19.389  0.00  0.00    +0.000 A 
ATOM     19 BR   UNL     1       1.597   2.209  18.995  0.00  0.00    +0.000 Br
ENDBRANCH  12  13
ENDBRANCH   3  11
TORSDOF 3
ENDMDL
MODEL 5
REMARK VINA RESULT:      -6.6      5.781      8.837
REMARK  Name = 
REMARK  4 active torsions:
REMARK  status: ('A' for Active; 'I' for Inactive)
REMARK    1  A    between atoms: C_1  and  C_2
REMARK    2  A    between atoms: C_4  and  C_5
REMARK    3  A    between atoms: N_7  and  N_8
REMARK    4  A    between atoms: C_9  and  C_10
REMARK                            x       y       z     vdW  Elec       q    Type
REMARK                         _______ _______ _______ _____ _____    ______ ____
ROOT
ATOM      1  C   UNL     1       1.069   9.562  20.004  0.00  0.00    +0.000 C 
ATOM      2  O   UNL     1       1.171  10.216  18.967  0.00  0.00    +0.000 OA
ATOM      3  N   UNL     1       1.582   8.281  20.187  0.00  0.00    +0.000 N 
ATOM      4  H   UNL     1       1.463   7.823  21.087  0.00  0.00    +0.000 HD
ENDROOT
BRANCH   1   8
ATOM      5  C   UNL     1      -2.038  11.961  23.239  0.00  0.00    +0.000 C 
ATOM      6  C   UNL     1      -1.030  11.175  22.503  0.00  0.00    +0.000 A 
ATOM      7  C   UNL     1      -0.767  10.949  21.175  0.00  0.00    +0.000 A 
ATOM      8  C   UNL     1       0.370  10.098  21.173  0.00  0.00    +0.000 A 
ATOM      9  N   UNL     1       0.762   9.825  22.433  0.00  0.00    +0.000 NA
ATOM     10  O   UNL     1      -0.120  10.503  23.256  0.00  0.00    +0.000 OA
ENDBRANCH   1   8
BRANCH   3  11
ATOM     11  N   UNL     1       2.264   7.684  19.173  0.00  0.00    +0.000 NA
ATOM     12  C   UNL     1       2.585   6.437  19.310  0.00  0.00    +0.000 C 
BRANCH  12  13
ATOM     13  C   UNL     1       3.357   5.752  18.239  0.00  0.00    +0.000 A 
ATOM     14  C   UNL     1       4.432   6.451  17.660  0.00  0.00    +0.000 A 
ATOM     15  C   UNL     1       5.229   5.859  16.680  0.00  0.00    +0.000 A 
ATOM     16  C   UNL     1       4.964   4.558  16.268  0.00  0.00    +0.000 A 
ATOM     17  C   UNL     1       3.891   3.856  16.823  0.00  0.00    +0.000 A 
ATOM     18  C   UNL     1       3.081   4.452  17.802  0.00  0.00    +0.000 A 
ATOM     19 BR   UNL     1       1.633   3.414  18.461  0.00  0.00    +0.000 Br
ENDBRANCH  12  13
ENDBRANCH   3  11
TORSDOF 3
ENDMDL
MODEL 6
REMARK VINA RESULT:      -6.6      6.817      9.234
REMARK  Name = 
REMARK  4 active torsions:
REMARK  status: ('A' for Active; 'I' for Inactive)
REMARK    1  A    between atoms: C_1  and  C_2
REMARK    2  A    between atoms: C_4  and  C_5
REMARK    3  A    between atoms: N_7  and  N_8
REMARK    4  A    between atoms: C_9  and  C_10
REMARK                            x       y       z     vdW  Elec       q    Type
REMARK                         _______ _______ _______ _____ _____    ______ ____
ROOT
ATOM      1  C   UNL     1       7.720   7.380  17.954  0.00  0.00    +0.000 C 
ATOM      2  O   UNL     1       7.722   7.653  16.754  0.00  0.00    +0.000 OA
ATOM      3  N   UNL     1       8.401   8.098  18.932  0.00  0.00    +0.000 N 
ATOM      4  H   UNL     1       8.328   7.807  19.903  0.00  0.00    +0.000 HD
ENDROOT
BRANCH   1   8
ATOM      5  C   UNL     1       4.478   3.540  18.745  0.00  0.00    +0.000 C 
ATOM      6  C   UNL     1       5.521   4.582  18.727  0.00  0.00    +0.000 A 
ATOM      7  C   UNL     1       5.869   5.582  17.853  0.00  0.00    +0.000 A 
ATOM      8  C   UNL     1       6.972   6.231  18.469  0.00  0.00    +0.000 A 
ATOM      9  N   UNL     1       7.272   5.647  19.645  0.00  0.00    +0.000 NA
ATOM     10  O   UNL     1       6.359   4.617  19.796  0.00  0.00    +0.000 OA
ENDBRANCH   1   8
BRANCH   3  11
ATOM     11  N   UNL     1       9.121   9.196  18.573  0.00  0.00    +0.000 NA
ATOM     12  C   UNL     1       9.196  10.174  19.419  0.00  0.00    +0.000 C 
BRANCH  12  13
ATOM     13  C   UNL     1       9.946  11.406  19.057  0.00  0.00    +0.000 A 
ATOM     14  C   UNL     1      10.491  11.482  17.762  0.00  0.00    +0.000 A 
ATOM     15  C   UNL     1      11.171  12.623  17.336  0.00  0.00    +0.000 A 
ATOM     16  C   UNL     1      11.313  13.705  18.197  0.00  0.00    +0.000 A 
ATOM     17  C   UNL     1      10.791  13.638  19.491  0.00  0.00    +0.000 A 
ATOM     18  C   UNL     1      10.114  12.489  19.928  0.00  0.00    +0.000 A 
ATOM     19 BR   UNL     1       9.475  12.500  21.716  0.00  0.00    +0.000 Br
ENDBRANCH  12  13
ENDBRANCH   3  11
TORSDOF 3
ENDMDL
MODEL 7
REMARK VINA RESULT:      -6.4      6.826      9.364
REMARK  Name = 
REMARK  4 active torsions:
REMARK  status: ('A' for Active; 'I' for Inactive)
REMARK    1  A    between atoms: C_1  and  C_2
REMARK    2  A    between atoms: C_4  and  C_5
REMARK    3  A    between atoms: N_7  and  N_8
REMARK    4  A    between atoms: C_9  and  C_10
REMARK                            x       y       z     vdW  Elec       q    Type
REMARK                         _______ _______ _______ _____ _____    ______ ____
ROOT
ATOM      1  C   UNL     1       7.764   7.393  17.947  0.00  0.00    +0.000 C 
ATOM      2  O   UNL     1       7.785   7.592  16.733  0.00  0.00    +0.000 OA
ATOM      3  N   UNL     1       8.450   8.155  18.887  0.00  0.00    +0.000 N 
ATOM      4  H   UNL     1       8.360   7.925  19.873  0.00  0.00    +0.000 HD
ENDROOT
BRANCH   1   8
ATOM      5  C   UNL     1       4.312   3.820  19.042  0.00  0.00    +0.000 C 
ATOM      6  C   UNL     1       5.435   4.768  18.918  0.00  0.00    +0.000 A 
ATOM      7  C   UNL     1       5.759   5.767  18.035  0.00  0.00    +0.000 A 
ATOM      8  C   UNL     1       6.985   6.294  18.522  0.00  0.00    +0.000 A 
ATOM      9  N   UNL     1       7.376   5.641  19.632  0.00  0.00    +0.000 NA
ATOM     10  O   UNL     1       6.400   4.689  19.872  0.00  0.00    +0.000 OA
ENDBRANCH   1   8
BRANCH   3  11
ATOM     11  N   UNL     1       9.198   9.213  18.471  0.00  0.00    +0.000 NA
ATOM     12  C   UNL     1       9.285  10.239  19.257  0.00  0.00    +0.000 C 
BRANCH  12  13
ATOM     13  C   UNL     1      10.066  11.430  18.830  0.00  0.00    +0.000 A 
ATOM     14  C   UNL     1      11.396  11.536  19.280  0.00  0.00    +0.000 A 
ATOM     15  C   UNL     1      12.204  12.603  18.887  0.00  0.00    +0.000 A 
ATOM     16  C   UNL     1      11.696  13.577  18.036  0.00  0.00    +0.000 A 
ATOM     17  C   UNL     1      10.374  13.494  17.592  0.00  0.00    +0.000 A 
ATOM     18  C   UNL     1       9.554  12.428  17.992  0.00  0.00    +0.000 A 
ATOM     19 BR   UNL     1       7.766  12.436  17.352  0.00  0.00    +0.000 Br
ENDBRANCH  12  13
ENDBRANCH   3  11
TORSDOF 3
ENDMDL
MODEL 8
REMARK VINA RESULT:      -6.4      4.885      8.112
REMARK  Name = 
REMARK  4 active torsions:
REMARK  status: ('A' for Active; 'I' for Inactive)
REMARK    1  A    between atoms: C_1  and  C_2
REMARK    2  A    between atoms: C_4  and  C_5
REMARK    3  A    between atoms: N_7  and  N_8
REMARK    4  A    between atoms: C_9  and  C_10
REMARK                            x       y       z     vdW  Elec       q    Type
REMARK                         _______ _______ _______ _____ _____    ______ ____
ROOT
ATOM      1  C   UNL     1       1.733   8.994  18.584  0.00  0.00    +0.000 C 
ATOM      2  O   UNL     1       1.859   9.661  17.558  0.00  0.00    +0.000 OA
ATOM      3  N   UNL     1       2.321   7.751  18.798  0.00  0.00    +0.000 N 
ATOM      4  H   UNL     1       2.174   7.279  19.686  0.00  0.00    +0.000 HD
ENDROOT
BRANCH   1   8
ATOM      5  C   UNL     1      -0.460   9.844  23.094  0.00  0.00    +0.000 C 
ATOM      6  C   UNL     1       0.028   9.775  21.704  0.00  0.00    +0.000 A 
ATOM      7  C   UNL     1       0.989   9.040  21.056  0.00  0.00    +0.000 A 
ATOM      8  C   UNL     1       0.922   9.472  19.704  0.00  0.00    +0.000 A 
ATOM      9  N   UNL     1      -0.024  10.419  19.554  0.00  0.00    +0.000 NA
ATOM     10  O   UNL     1      -0.576  10.602  20.810  0.00  0.00    +0.000 OA
ENDBRANCH   1   8
BRANCH   3  11
ATOM     11  N   UNL     1       3.110   7.210  17.830  0.00  0.00    +0.000 NA
ATOM     12  C   UNL     1       3.513   5.989  17.988  0.00  0.00    +0.000 C 
BRANCH  12  13
ATOM     13  C   UNL     1       4.402   5.368  16.971  0.00  0.00    +0.000 A 
ATOM     14  C   UNL     1       5.106   6.228  16.107  0.00  0.00    +0.000 A 
ATOM     15  C   UNL     1       5.991   5.720  15.155  0.00  0.00    +0.000 A 
ATOM     16  C   UNL     1       6.186   4.347  15.056  0.00  0.00    +0.000 A 
ATOM     17  C   UNL     1       5.483   3.481  15.896  0.00  0.00    +0.000 A 
ATOM     18  C   UNL     1       4.584   3.986  16.849  0.00  0.00    +0.000 A 
ATOM     19 BR   UNL     1       3.662   2.713  17.914  0.00  0.00    +0.000 Br
ENDBRANCH  12  13
ENDBRANCH   3  11
TORSDOF 3
ENDMDL
MODEL 9
REMARK VINA RESULT:      -6.4      4.666      7.990
REMARK  Name = 
REMARK  4 active torsions:
REMARK  status: ('A' for Active; 'I' for Inactive)
REMARK    1  A    between atoms: C_1  and  C_2
REMARK    2  A    between atoms: C_4  and  C_5
REMARK    3  A    between atoms: N_7  and  N_8
REMARK    4  A    between atoms: C_9  and  C_10
REMARK                            x       y       z     vdW  Elec       q    Type
REMARK                         _______ _______ _______ _____ _____    ______ ____
ROOT
ATOM      1  C   UNL     1       1.987   8.636  18.477  0.00  0.00    +0.000 C 
ATOM      2  O   UNL     1       2.061   9.251  17.414  0.00  0.00    +0.000 OA
ATOM      3  N   UNL     1       2.696   7.475  18.772  0.00  0.00    +0.000 N 
ATOM      4  H   UNL     1       2.583   7.043  19.686  0.00  0.00    +0.000 HD
ENDROOT
BRANCH   1   8
ATOM      5  C   UNL     1      -0.395   9.474  22.893  0.00  0.00    +0.000 C 
ATOM      6  C   UNL     1       0.139   9.396  21.521  0.00  0.00    +0.000 A 
ATOM      7  C   UNL     1       1.166   8.708  20.924  0.00  0.00    +0.000 A 
ATOM      8  C   UNL     1       1.111   9.092  19.558  0.00  0.00    +0.000 A 
ATOM      9  N   UNL     1       0.109   9.968  19.350  0.00  0.00    +0.000 NA
ATOM     10  O   UNL     1      -0.492  10.151  20.583  0.00  0.00    +0.000 OA
ENDBRANCH   1   8
BRANCH   3  11
ATOM     11  N   UNL     1       3.553   6.964  17.848  0.00  0.00    +0.000 NA
ATOM     12  C   UNL     1       4.149   5.848  18.126  0.00  0.00    +0.000 C 
BRANCH  12  13
ATOM     13  C   UNL     1       5.117   5.268  17.158  0.00  0.00    +0.000 A 
ATOM     14  C   UNL     1       4.612   4.798  15.931  0.00  0.00    +0.000 A 
ATOM     15  C   UNL     1       5.464   4.279  14.956  0.00  0.00    +0.000 A 
ATOM     16  C   UNL     1       6.833   4.226  15.192  0.00  0.00    +0.000 A 
ATOM     17  C   UNL     1       7.348   4.676  16.410  0.00  0.00    +0.000 A 
ATOM     18  C   UNL     1       6.494   5.190  17.398  0.00  0.00    +0.000 A 
ATOM     19 BR   UNL     1       7.303   5.741  19.025  0.00  0.00    +0.000 Br
ENDBRANCH  12  13
ENDBRANCH   3  11
TORSDOF 3
ENDMDL
