MODEL 1
REMARK VINA RESULT:      -7.2      0.000      0.000
REMARK  Name = 
REMARK  9 active torsions:
REMARK  status: ('A' for Active; 'I' for Inactive)
REMARK    1  A    between atoms: C_1  and  O_2
REMARK    2  A    between atoms: O_2  and  C_3
REMARK    3  A    between atoms: C_6  and  N_7
REMARK    4  A    between atoms: C_13  and  C_14
REMARK    5  A    between atoms: C_13  and  C_15
REMARK    6  A    between atoms: C_17  and  N_18
REMARK    7  A    between atoms: C_19  and  C_21
REMARK    8  A    between atoms: C_21  and  C_22
REMARK    9  A    between atoms: C_22  and  N_23
REMARK                            x       y       z     vdW  Elec       q    Type
REMARK                         _______ _______ _______ _____ _____    ______ ____
ROOT
ATOM      1  N   UNL     1       0.682   9.884  19.518  0.00  0.00    +0.000 N 
ATOM      2  N   UNL     1       0.928  10.615  20.640  0.00  0.00    +0.000 NA
ATOM      3  C   UNL     1       0.063  11.630  20.584  0.00  0.00    +0.000 A 
ATOM      4  C   UNL     1      -0.861  11.493  19.534  0.00  0.00    +0.000 A 
ATOM      5  C   UNL     1      -0.439  10.369  18.859  0.00  0.00    +0.000 A 
ATOM      6  C   UNL     1      -1.088   9.765  17.674  0.00  0.00    +0.000 C 
ATOM      7  C   UNL     1      -2.466  10.388  17.327  0.00  0.00    +0.000 C 
ATOM      8  C   UNL     1      -3.590   9.463  17.841  0.00  0.00    +0.000 C 
ATOM      9  C   UNL     1      -2.565  10.425  15.780  0.00  0.00    +0.000 C 
ATOM     10  C   UNL     1      -2.695  11.852  17.832  0.00  0.00    +0.000 C 
ATOM     11  C   UNL     1      -2.027  12.329  19.149  0.00  0.00    +0.000 C 
ENDROOT
BRANCH   1  15
ATOM     12  C   UNL     1       3.263   6.683  18.503  0.00  0.00    +0.000 A 
ATOM     13  C   UNL     1       3.071   7.751  17.622  0.00  0.00    +0.000 A 
ATOM     14  C   UNL     1       2.200   8.799  17.946  0.00  0.00    +0.000 A 
ATOM     15  C   UNL     1       1.525   8.790  19.173  0.00  0.00    +0.000 A 
ATOM     16  C   UNL     1       1.686   7.693  20.027  0.00  0.00    +0.000 A 
ATOM     17  C   UNL     1       2.552   6.647  19.692  0.00  0.00    +0.000 A 
BRANCH  12  19
ATOM     18  C   UNL     1       4.927   6.055  16.936  0.00  0.00    +0.000 C 
ATOM     19  O   UNL     1       4.132   5.715  18.068  0.00  0.00    +0.000 OA
ENDBRANCH  12  19
ENDBRANCH   1  15
BRANCH  11  20
ATOM     20  N   UNL     1      -2.966  12.386  20.255  0.00  0.00    +0.000 N 
ATOM     21  C   UNL     1      -3.058  13.514  21.035  0.00  0.00    +0.000 C 
ATOM     22  O   UNL     1      -2.372  14.517  20.859  0.00  0.00    +0.000 OA
ATOM     23  H   UNL     1      -3.485  11.555  20.504  0.00  0.00    +0.000 HD
BRANCH  21  24
ATOM     24  C   UNL     1      -4.053  13.431  22.165  0.00  0.00    +0.000 C 
BRANCH  24  25
ATOM     25  C   UNL     1      -5.438  13.787  21.638  0.00  0.00    +0.000 C 
BRANCH  25  26
ATOM     26  N   UNL     1      -6.274  12.626  21.435  0.00  0.00    +0.000 N 
ATOM     27  C   UNL     1      -7.286  12.180  22.228  0.00  0.00    +0.000 A 
ATOM     28  N   UNL     1      -7.824  11.112  21.685  0.00  0.00    +0.000 NA
ATOM     29  C   UNL     1      -7.099  10.952  20.538  0.00  0.00    +0.000 A 
ATOM     30  N   UNL     1      -6.135  11.854  20.343  0.00  0.00    +0.000 NA
ENDBRANCH  25  26
ENDBRANCH  24  25
ENDBRANCH  21  24
ENDBRANCH  11  20
TORSDOF 6
ENDMDL
MODEL 2
REMARK VINA RESULT:      -7.1      0.760      1.289
REMARK  Name = 
REMARK  9 active torsions:
REMARK  status: ('A' for Active; 'I' for Inactive)
REMARK    1  A    between atoms: C_1  and  O_2
REMARK    2  A    between atoms: O_2  and  C_3
REMARK    3  A    between atoms: C_6  and  N_7
REMARK    4  A    between atoms: C_13  and  C_14
REMARK    5  A    between atoms: C_13  and  C_15
REMARK    6  A    between atoms: C_17  and  N_18
REMARK    7  A    between atoms: C_19  and  C_21
REMARK    8  A    between atoms: C_21  and  C_22
REMARK    9  A    between atoms: C_22  and  N_23
REMARK                            x       y       z     vdW  Elec       q    Type
REMARK                         _______ _______ _______ _____ _____    ______ ____
ROOT
ATOM      1  N   UNL     1       0.647   9.906  19.573  0.00  0.00    +0.000 N 
ATOM      2  N   UNL     1       0.862  10.607  20.721  0.00  0.00    +0.000 NA
ATOM      3  C   UNL     1      -0.028  11.599  20.688  0.00  0.00    +0.000 A 
ATOM      4  C   UNL     1      -0.938  11.472  19.625  0.00  0.00    +0.000 A 
ATOM      5  C   UNL     1      -0.480  10.382  18.919  0.00  0.00    +0.000 A 
ATOM      6  C   UNL     1      -1.100   9.799  17.708  0.00  0.00    +0.000 C 
ATOM      7  C   UNL     1      -2.492  10.396  17.367  0.00  0.00    +0.000 C 
ATOM      8  C   UNL     1      -3.595   9.425  17.839  0.00  0.00    +0.000 C 
ATOM      9  C   UNL     1      -2.576  10.480  15.821  0.00  0.00    +0.000 C 
ATOM     10  C   UNL     1      -2.765  11.836  17.916  0.00  0.00    +0.000 C 
ATOM     11  C   UNL     1      -2.123  12.289  19.254  0.00  0.00    +0.000 C 
ENDROOT
BRANCH   1  15
ATOM     12  C   UNL     1       3.178   6.697  18.462  0.00  0.00    +0.000 A 
ATOM     13  C   UNL     1       2.520   6.692  19.695  0.00  0.00    +0.000 A 
ATOM     14  C   UNL     1       1.701   7.764  20.074  0.00  0.00    +0.000 A 
ATOM     15  C   UNL     1       1.523   8.846  19.203  0.00  0.00    +0.000 A 
ATOM     16  C   UNL     1       2.223   8.864  17.992  0.00  0.00    +0.000 A 
ATOM     17  C   UNL     1       3.045   7.793  17.625  0.00  0.00    +0.000 A 
BRANCH  12  19
ATOM     18  C   UNL     1       3.464   4.357  18.708  0.00  0.00    +0.000 C 
ATOM     19  O   UNL     1       3.958   5.597  18.211  0.00  0.00    +0.000 OA
ENDBRANCH  12  19
ENDBRANCH   1  15
BRANCH  11  20
ATOM     20  N   UNL     1      -3.074  12.284  20.352  0.00  0.00    +0.000 N 
ATOM     21  C   UNL     1      -3.312  13.431  21.072  0.00  0.00    +0.000 C 
ATOM     22  O   UNL     1      -2.753  14.500  20.848  0.00  0.00    +0.000 OA
ATOM     23  H   UNL     1      -3.489  11.410  20.640  0.00  0.00    +0.000 HD
BRANCH  21  24
ATOM     24  C   UNL     1      -4.302  13.282  22.200  0.00  0.00    +0.000 C 
BRANCH  24  25
ATOM     25  C   UNL     1      -5.652  13.835  21.756  0.00  0.00    +0.000 C 
BRANCH  25  26
ATOM     26  N   UNL     1      -6.359  12.938  20.871  0.00  0.00    +0.000 N 
ATOM     27  C   UNL     1      -7.029  13.252  19.729  0.00  0.00    +0.000 A 
ATOM     28  N   UNL     1      -7.509  12.153  19.193  0.00  0.00    +0.000 NA
ATOM     29  C   UNL     1      -7.089  11.180  20.055  0.00  0.00    +0.000 A 
ATOM     30  N   UNL     1      -6.383  11.614  21.102  0.00  0.00    +0.000 NA
ENDBRANCH  25  26
ENDBRANCH  24  25
ENDBRANCH  21  24
ENDBRANCH  11  20
TORSDOF 6
ENDMDL
MODEL 3
REMARK VINA RESULT:      -7.0      0.991      1.575
REMARK  Name = 
REMARK  9 active torsions:
REMARK  status: ('A' for Active; 'I' for Inactive)
REMARK    1  A    between atoms: C_1  and  O_2
REMARK    2  A    between atoms: O_2  and  C_3
REMARK    3  A    between atoms: C_6  and  N_7
REMARK    4  A    between atoms: C_13  and  C_14
REMARK    5  A    between atoms: C_13  and  C_15
REMARK    6  A    between atoms: C_17  and  N_18
REMARK    7  A    between atoms: C_19  and  C_21
REMARK    8  A    between atoms: C_21  and  C_22
REMARK    9  A    between atoms: C_22  and  N_23
REMARK                            x       y       z     vdW  Elec       q    Type
REMARK                         _______ _______ _______ _____ _____    ______ ____
ROOT
ATOM      1  N   UNL     1       0.766   9.932  19.446  0.00  0.00    +0.000 N 
ATOM      2  N   UNL     1       1.039  10.733  20.513  0.00  0.00    +0.000 NA
ATOM      3  C   UNL     1       0.187  11.753  20.401  0.00  0.00    +0.000 A 
ATOM      4  C   UNL     1      -0.756  11.560  19.377  0.00  0.00    +0.000 A 
ATOM      5  C   UNL     1      -0.360  10.387  18.774  0.00  0.00    +0.000 A 
ATOM      6  C   UNL     1      -1.034   9.714  17.641  0.00  0.00    +0.000 C 
ATOM      7  C   UNL     1      -2.410  10.331  17.274  0.00  0.00    +0.000 C 
ATOM      8  C   UNL     1      -3.537   9.458  17.866  0.00  0.00    +0.000 C 
ATOM      9  C   UNL     1      -2.532  10.265  15.730  0.00  0.00    +0.000 C 
ATOM     10  C   UNL     1      -2.612  11.828  17.682  0.00  0.00    +0.000 C 
ATOM     11  C   UNL     1      -1.917  12.384  18.954  0.00  0.00    +0.000 C 
ENDROOT
BRANCH   1  15
ATOM     12  C   UNL     1       3.138   6.527  18.599  0.00  0.00    +0.000 A 
ATOM     13  C   UNL     1       2.469   6.644  19.821  0.00  0.00    +0.000 A 
ATOM     14  C   UNL     1       1.703   7.780  20.111  0.00  0.00    +0.000 A 
ATOM     15  C   UNL     1       1.589   8.805  19.164  0.00  0.00    +0.000 A 
ATOM     16  C   UNL     1       2.301   8.701  17.964  0.00  0.00    +0.000 A 
ATOM     17  C   UNL     1       3.070   7.567  17.685  0.00  0.00    +0.000 A 
BRANCH  12  19
ATOM     18  C   UNL     1       3.492   4.283  19.274  0.00  0.00    +0.000 C 
ATOM     19  O   UNL     1       3.863   5.374  18.437  0.00  0.00    +0.000 OA
ENDBRANCH  12  19
ENDBRANCH   1  15
BRANCH  11  20
ATOM     20  N   UNL     1      -2.838  12.528  20.068  0.00  0.00    +0.000 N 
ATOM     21  C   UNL     1      -2.885  13.698  20.787  0.00  0.00    +0.000 C 
ATOM     22  O   UNL     1      -2.173  14.669  20.549  0.00  0.00    +0.000 OA
ATOM     23  H   UNL     1      -3.377  11.727  20.367  0.00  0.00    +0.000 HD
BRANCH  21  24
ATOM     24  C   UNL     1      -3.866  13.705  21.933  0.00  0.00    +0.000 C 
BRANCH  24  25
ATOM     25  C   UNL     1      -4.946  12.661  21.672  0.00  0.00    +0.000 C 
BRANCH  25  26
ATOM     26  N   UNL     1      -6.056  12.764  22.590  0.00  0.00    +0.000 N 
ATOM     27  C   UNL     1      -6.195  13.626  23.634  0.00  0.00    +0.000 A 
ATOM     28  N   UNL     1      -7.361  13.428  24.207  0.00  0.00    +0.000 NA
ATOM     29  C   UNL     1      -7.907  12.425  23.456  0.00  0.00    +0.000 A 
ATOM     30  N   UNL     1      -7.142  11.983  22.455  0.00  0.00    +0.000 NA
ENDBRANCH  25  26
ENDBRANCH  24  25
ENDBRANCH  21  24
ENDBRANCH  11  20
TORSDOF 6
ENDMDL
MODEL 4
REMARK VINA RESULT:      -6.9      4.868     11.092
REMARK  Name = 
REMARK  9 active torsions:
REMARK  status: ('A' for Active; 'I' for Inactive)
REMARK    1  A    between atoms: C_1  and  O_2
REMARK    2  A    between atoms: O_2  and  C_3
REMARK    3  A    between atoms: C_6  and  N_7
REMARK    4  A    between atoms: C_13  and  C_14
REMARK    5  A    between atoms: C_13  and  C_15
REMARK    6  A    between atoms: C_17  and  N_18
REMARK    7  A    between atoms: C_19  and  C_21
REMARK    8  A    between atoms: C_21  and  C_22
REMARK    9  A    between atoms: C_22  and  N_23
REMARK                            x       y       z     vdW  Elec       q    Type
REMARK                         _______ _______ _______ _____ _____    ______ ____
ROOT
ATOM      1  N   UNL     1       2.975   7.560  18.356  0.00  0.00    +0.000 N 
ATOM      2  N   UNL     1       4.000   8.062  17.613  0.00  0.00    +0.000 NA
ATOM      3  C   UNL     1       4.896   7.075  17.556  0.00  0.00    +0.000 A 
ATOM      4  C   UNL     1       4.412   5.874  18.103  0.00  0.00    +0.000 A 
ATOM      5  C   UNL     1       3.180   6.212  18.617  0.00  0.00    +0.000 A 
ATOM      6  C   UNL     1       2.230   5.297  19.288  0.00  0.00    +0.000 C 
ATOM      7  C   UNL     1       2.634   3.801  19.202  0.00  0.00    +0.000 C 
ATOM      8  C   UNL     1       1.805   3.110  18.097  0.00  0.00    +0.000 C 
ATOM      9  C   UNL     1       2.240   3.152  20.554  0.00  0.00    +0.000 C 
ATOM     10  C   UNL     1       4.159   3.521  18.991  0.00  0.00    +0.000 C 
ATOM     11  C   UNL     1       5.025   4.524  18.181  0.00  0.00    +0.000 C 
ENDROOT
BRANCH   1  15
ATOM     12  C   UNL     1      -0.187  10.110  19.556  0.00  0.00    +0.000 A 
ATOM     13  C   UNL     1       0.502   9.337  20.496  0.00  0.00    +0.000 A 
ATOM     14  C   UNL     1       1.532   8.476  20.097  0.00  0.00    +0.000 A 
ATOM     15  C   UNL     1       1.892   8.398  18.746  0.00  0.00    +0.000 A 
ATOM     16  C   UNL     1       1.165   9.138  17.807  0.00  0.00    +0.000 A 
ATOM     17  C   UNL     1       0.132   9.990  18.213  0.00  0.00    +0.000 A 
BRANCH  12  19
ATOM     18  C   UNL     1      -0.831  11.680  21.210  0.00  0.00    +0.000 C 
ATOM     19  O   UNL     1      -1.181  10.904  20.068  0.00  0.00    +0.000 OA
ENDBRANCH  12  19
ENDBRANCH   1  15
BRANCH  11  20
ATOM     20  N   UNL     1       5.313   4.046  16.840  0.00  0.00    +0.000 N 
ATOM     21  C   UNL     1       6.561   4.220  16.292  0.00  0.00    +0.000 C 
ATOM     22  O   UNL     1       7.487   4.776  16.876  0.00  0.00    +0.000 OA
ATOM     23  H   UNL     1       4.562   3.669  16.280  0.00  0.00    +0.000 HD
BRANCH  21  24
ATOM     24  C   UNL     1       6.719   3.701  14.884  0.00  0.00    +0.000 C 
BRANCH  24  25
ATOM     25  C   UNL     1       5.627   4.303  14.006  0.00  0.00    +0.000 C 
BRANCH  25  26
ATOM     26  N   UNL     1       5.400   3.544  12.798  0.00  0.00    +0.000 N 
ATOM     27  C   UNL     1       6.236   2.647  12.209  0.00  0.00    +0.000 A 
ATOM     28  N   UNL     1       5.653   2.146  11.144  0.00  0.00    +0.000 NA
ATOM     29  C   UNL     1       4.439   2.773  11.134  0.00  0.00    +0.000 A 
ATOM     30  N   UNL     1       4.239   3.642  12.126  0.00  0.00    +0.000 NA
ENDBRANCH  25  26
ENDBRANCH  24  25
ENDBRANCH  21  24
ENDBRANCH  11  20
TORSDOF 6
ENDMDL
MODEL 5
REMARK VINA RESULT:      -6.9      4.462     10.996
REMARK  Name = 
REMARK  9 active torsions:
REMARK  status: ('A' for Active; 'I' for Inactive)
REMARK    1  A    between atoms: C_1  and  O_2
REMARK    2  A    between atoms: O_2  and  C_3
REMARK    3  A    between atoms: C_6  and  N_7
REMARK    4  A    between atoms: C_13  and  C_14
REMARK    5  A    between atoms: C_13  and  C_15
REMARK    6  A    between atoms: C_17  and  N_18
REMARK    7  A    between atoms: C_19  and  C_21
REMARK    8  A    between atoms: C_21  and  C_22
REMARK    9  A    between atoms: C_22  and  N_23
REMARK                            x       y       z     vdW  Elec       q    Type
REMARK                         _______ _______ _______ _____ _____    ______ ____
ROOT
ATOM      1  N   UNL     1       2.472   7.789  18.709  0.00  0.00    +0.000 N 
ATOM      2  N   UNL     1       3.405   8.138  17.780  0.00  0.00    +0.000 NA
ATOM      3  C   UNL     1       4.273   7.126  17.771  0.00  0.00    +0.000 A 
ATOM      4  C   UNL     1       3.845   6.040  18.553  0.00  0.00    +0.000 A 
ATOM      5  C   UNL     1       2.690   6.492  19.152  0.00  0.00    +0.000 A 
ATOM      6  C   UNL     1       1.818   5.722  20.066  0.00  0.00    +0.000 C 
ATOM      7  C   UNL     1       2.189   4.218  20.168  0.00  0.00    +0.000 C 
ATOM      8  C   UNL     1       1.222   3.392  19.291  0.00  0.00    +0.000 C 
ATOM      9  C   UNL     1       1.956   3.798  21.641  0.00  0.00    +0.000 C 
ATOM     10  C   UNL     1       3.673   3.860  19.822  0.00  0.00    +0.000 C 
ATOM     11  C   UNL     1       4.445   4.698  18.768  0.00  0.00    +0.000 C 
ENDROOT
BRANCH   1  15
ATOM     12  C   UNL     1      -0.614  10.476  19.802  0.00  0.00    +0.000 A 
ATOM     13  C   UNL     1      -0.239  10.328  18.464  0.00  0.00    +0.000 A 
ATOM     14  C   UNL     1       0.798   9.457  18.104  0.00  0.00    +0.000 A 
ATOM     15  C   UNL     1       1.456   8.711  19.090  0.00  0.00    +0.000 A 
ATOM     16  C   UNL     1       1.106   8.903  20.431  0.00  0.00    +0.000 A 
ATOM     17  C   UNL     1       0.075   9.780  20.782  0.00  0.00    +0.000 A 
BRANCH  12  19
ATOM     18  C   UNL     1      -1.619  12.023  21.291  0.00  0.00    +0.000 C 
ATOM     19  O   UNL     1      -1.634  11.366  20.028  0.00  0.00    +0.000 OA
ENDBRANCH  12  19
ENDBRANCH   1  15
BRANCH  11  20
ATOM     20  N   UNL     1       4.560   4.011  17.494  0.00  0.00    +0.000 N 
ATOM     21  C   UNL     1       5.768   3.951  16.841  0.00  0.00    +0.000 C 
ATOM     22  O   UNL     1       6.797   4.461  17.272  0.00  0.00    +0.000 OA
ATOM     23  H   UNL     1       3.725   3.659  17.047  0.00  0.00    +0.000 HD
BRANCH  21  24
ATOM     24  C   UNL     1       5.743   3.232  15.515  0.00  0.00    +0.000 C 
BRANCH  24  25
ATOM     25  C   UNL     1       5.337   4.214  14.422  0.00  0.00    +0.000 C 
BRANCH  25  26
ATOM     26  N   UNL     1       6.405   4.481  13.486  0.00  0.00    +0.000 N 
ATOM     27  C   UNL     1       6.590   3.931  12.256  0.00  0.00    +0.000 A 
ATOM     28  N   UNL     1       7.659   4.457  11.702  0.00  0.00    +0.000 NA
ATOM     29  C   UNL     1       8.090   5.344  12.648  0.00  0.00    +0.000 A 
ATOM     30  N   UNL     1       7.355   5.391  13.761  0.00  0.00    +0.000 NA
ENDBRANCH  25  26
ENDBRANCH  24  25
ENDBRANCH  21  24
ENDBRANCH  11  20
TORSDOF 6
ENDMDL
MODEL 6
REMARK VINA RESULT:      -6.9      5.235     11.476
REMARK  Name = 
REMARK  9 active torsions:
REMARK  status: ('A' for Active; 'I' for Inactive)
REMARK    1  A    between atoms: C_1  and  O_2
REMARK    2  A    between atoms: O_2  and  C_3
REMARK    3  A    between atoms: C_6  and  N_7
REMARK    4  A    between atoms: C_13  and  C_14
REMARK    5  A    between atoms: C_13  and  C_15
REMARK    6  A    between atoms: C_17  and  N_18
REMARK    7  A    between atoms: C_19  and  C_21
REMARK    8  A    between atoms: C_21  and  C_22
REMARK    9  A    between atoms: C_22  and  N_23
REMARK                            x       y       z     vdW  Elec       q    Type
REMARK                         _______ _______ _______ _____ _____    ______ ____
ROOT
ATOM      1  N   UNL     1       2.595   7.562  18.708  0.00  0.00    +0.000 N 
ATOM      2  N   UNL     1       3.339   8.134  17.721  0.00  0.00    +0.000 NA
ATOM      3  C   UNL     1       4.174   7.174  17.322  0.00  0.00    +0.000 A 
ATOM      4  C   UNL     1       3.887   5.930  17.909  0.00  0.00    +0.000 A 
ATOM      5  C   UNL     1       2.874   6.205  18.800  0.00  0.00    +0.000 A 
ATOM      6  C   UNL     1       2.181   5.227  19.668  0.00  0.00    +0.000 C 
ATOM      7  C   UNL     1       2.541   3.749  19.359  0.00  0.00    +0.000 C 
ATOM      8  C   UNL     1       1.413   3.112  18.520  0.00  0.00    +0.000 C 
ATOM      9  C   UNL     1       2.587   3.006  20.719  0.00  0.00    +0.000 C 
ATOM     10  C   UNL     1       3.927   3.519  18.668  0.00  0.00    +0.000 C 
ATOM     11  C   UNL     1       4.497   4.592  17.701  0.00  0.00    +0.000 C 
ENDROOT
BRANCH   1  15
ATOM     12  C   UNL     1      -0.044   9.932  21.023  0.00  0.00    +0.000 A 
ATOM     13  C   UNL     1       0.592   8.820  21.582  0.00  0.00    +0.000 A 
ATOM     14  C   UNL     1       1.447   8.022  20.811  0.00  0.00    +0.000 A 
ATOM     15  C   UNL     1       1.684   8.347  19.470  0.00  0.00    +0.000 A 
ATOM     16  C   UNL     1       1.006   9.434  18.907  0.00  0.00    +0.000 A 
ATOM     17  C   UNL     1       0.148  10.221  19.681  0.00  0.00    +0.000 A 
BRANCH  12  19
ATOM     18  C   UNL     1      -0.811  10.237  23.244  0.00  0.00    +0.000 C 
ATOM     19  O   UNL     1      -0.863  10.627  21.875  0.00  0.00    +0.000 OA
ENDBRANCH  12  19
ENDBRANCH   1  15
BRANCH  11  20
ATOM     20  N   UNL     1       4.356   4.208  16.308  0.00  0.00    +0.000 N 
ATOM     21  C   UNL     1       5.392   4.397  15.425  0.00  0.00    +0.000 C 
ATOM     22  O   UNL     1       6.471   4.891  15.741  0.00  0.00    +0.000 OA
ATOM     23  H   UNL     1       3.458   3.887  15.973  0.00  0.00    +0.000 HD
BRANCH  21  24
ATOM     24  C   UNL     1       5.105   3.980  14.004  0.00  0.00    +0.000 C 
BRANCH  24  25
ATOM     25  C   UNL     1       6.404   4.005  13.205  0.00  0.00    +0.000 C 
BRANCH  25  26
ATOM     26  N   UNL     1       6.473   2.953  12.218  0.00  0.00    +0.000 N 
ATOM     27  C   UNL     1       7.581   2.461  11.602  0.00  0.00    +0.000 A 
ATOM     28  N   UNL     1       7.231   1.486  10.793  0.00  0.00    +0.000 NA
ATOM     29  C   UNL     1       5.878   1.416  10.964  0.00  0.00    +0.000 A 
ATOM     30  N   UNL     1       5.366   2.298  11.825  0.00  0.00    +0.000 NA
ENDBRANCH  25  26
ENDBRANCH  24  25
ENDBRANCH  21  24
ENDBRANCH  11  20
TORSDOF 6
ENDMDL
MODEL 7
REMARK VINA RESULT:      -6.9      4.673     10.957
REMARK  Name = 
REMARK  9 active torsions:
REMARK  status: ('A' for Active; 'I' for Inactive)
REMARK    1  A    between atoms: C_1  and  O_2
REMARK    2  A    between atoms: O_2  and  C_3
REMARK    3  A    between atoms: C_6  and  N_7
REMARK    4  A    between atoms: C_13  and  C_14
REMARK    5  A    between atoms: C_13  and  C_15
REMARK    6  A    between atoms: C_17  and  N_18
REMARK    7  A    between atoms: C_19  and  C_21
REMARK    8  A    between atoms: C_21  and  C_22
REMARK    9  A    between atoms: C_22  and  N_23
REMARK                            x       y       z     vdW  Elec       q    Type
REMARK                         _______ _______ _______ _____ _____    ______ ____
ROOT
ATOM      1  N   UNL     1       2.685   7.661  18.513  0.00  0.00    +0.000 N 
ATOM      2  N   UNL     1       3.631   8.030  17.604  0.00  0.00    +0.000 NA
ATOM      3  C   UNL     1       4.522   7.037  17.617  0.00  0.00    +0.000 A 
ATOM      4  C   UNL     1       4.101   5.943  18.392  0.00  0.00    +0.000 A 
ATOM      5  C   UNL     1       2.923   6.369  18.962  0.00  0.00    +0.000 A 
ATOM      6  C   UNL     1       2.048   5.580  19.858  0.00  0.00    +0.000 C 
ATOM      7  C   UNL     1       2.451   4.086  19.971  0.00  0.00    +0.000 C 
ATOM      8  C   UNL     1       1.523   3.237  19.074  0.00  0.00    +0.000 C 
ATOM      9  C   UNL     1       2.193   3.662  21.440  0.00  0.00    +0.000 C 
ATOM     10  C   UNL     1       3.950   3.762  19.660  0.00  0.00    +0.000 C 
ATOM     11  C   UNL     1       4.727   4.616  18.623  0.00  0.00    +0.000 C 
ENDROOT
BRANCH   1  15
ATOM     12  C   UNL     1      -0.487  10.277  19.529  0.00  0.00    +0.000 A 
ATOM     13  C   UNL     1      -0.083  10.129  18.199  0.00  0.00    +0.000 A 
ATOM     14  C   UNL     1       0.981   9.281  17.864  0.00  0.00    +0.000 A 
ATOM     15  C   UNL     1       1.640   8.560  18.868  0.00  0.00    +0.000 A 
ATOM     16  C   UNL     1       1.260   8.752  20.200  0.00  0.00    +0.000 A 
ATOM     17  C   UNL     1       0.201   9.605  20.527  0.00  0.00    +0.000 A 
BRANCH  12  19
ATOM     18  C   UNL     1      -2.345  11.411  18.592  0.00  0.00    +0.000 C 
ATOM     19  O   UNL     1      -1.532  11.142  19.730  0.00  0.00    +0.000 OA
ENDBRANCH  12  19
ENDBRANCH   1  15
BRANCH  11  20
ATOM     20  N   UNL     1       4.887   3.930  17.353  0.00  0.00    +0.000 N 
ATOM     21  C   UNL     1       6.054   4.052  16.638  0.00  0.00    +0.000 C 
ATOM     22  O   UNL     1       7.008   4.729  17.007  0.00  0.00    +0.000 OA
ATOM     23  H   UNL     1       4.098   3.439  16.956  0.00  0.00    +0.000 HD
BRANCH  21  24
ATOM     24  C   UNL     1       6.079   3.310  15.324  0.00  0.00    +0.000 C 
BRANCH  24  25
ATOM     25  C   UNL     1       5.746   4.280  14.197  0.00  0.00    +0.000 C 
BRANCH  25  26
ATOM     26  N   UNL     1       5.498   3.613  12.940  0.00  0.00    +0.000 N 
ATOM     27  C   UNL     1       6.330   2.774  12.265  0.00  0.00    +0.000 A 
ATOM     28  N   UNL     1       5.727   2.347  11.179  0.00  0.00    +0.000 NA
ATOM     29  C   UNL     1       4.506   2.958  11.243  0.00  0.00    +0.000 A 
ATOM     30  N   UNL     1       4.321   3.747  12.304  0.00  0.00    +0.000 NA
ENDBRANCH  25  26
ENDBRANCH  24  25
ENDBRANCH  21  24
ENDBRANCH  11  20
TORSDOF 6
ENDMDL
MODEL 8
REMARK VINA RESULT:      -6.9      1.351      1.895
REMARK  Name = 
REMARK  9 active torsions:
REMARK  status: ('A' for Active; 'I' for Inactive)
REMARK    1  A    between atoms: C_1  and  O_2
REMARK    2  A    between atoms: O_2  and  C_3
REMARK    3  A    between atoms: C_6  and  N_7
REMARK    4  A    between atoms: C_13  and  C_14
REMARK    5  A    between atoms: C_13  and  C_15
REMARK    6  A    between atoms: C_17  and  N_18
REMARK    7  A    between atoms: C_19  and  C_21
REMARK    8  A    between atoms: C_21  and  C_22
REMARK    9  A    between atoms: C_22  and  N_23
REMARK                            x       y       z     vdW  Elec       q    Type
REMARK                         _______ _______ _______ _____ _____    ______ ____
ROOT
ATOM      1  N   UNL     1       1.014   9.896  19.206  0.00  0.00    +0.000 N 
ATOM      2  N   UNL     1       1.407  10.795  20.151  0.00  0.00    +0.000 NA
ATOM      3  C   UNL     1       0.613  11.852  19.968  0.00  0.00    +0.000 A 
ATOM      4  C   UNL     1      -0.406  11.606  19.032  0.00  0.00    +0.000 A 
ATOM      5  C   UNL     1      -0.124  10.347  18.551  0.00  0.00    +0.000 A 
ATOM      6  C   UNL     1      -0.913   9.595  17.550  0.00  0.00    +0.000 C 
ATOM      7  C   UNL     1      -2.270  10.259  17.194  0.00  0.00    +0.000 C 
ATOM      8  C   UNL     1      -3.407   9.541  17.953  0.00  0.00    +0.000 C 
ATOM      9  C   UNL     1      -2.500  10.023  15.679  0.00  0.00    +0.000 C 
ATOM     10  C   UNL     1      -2.352  11.804  17.431  0.00  0.00    +0.000 C 
ATOM     11  C   UNL     1      -1.540  12.454  18.583  0.00  0.00    +0.000 C 
ENDROOT
BRANCH   1  15
ATOM     12  C   UNL     1       3.109   6.261  18.625  0.00  0.00    +0.000 A 
ATOM     13  C   UNL     1       2.435   6.512  19.824  0.00  0.00    +0.000 A 
ATOM     14  C   UNL     1       1.761   7.724  20.026  0.00  0.00    +0.000 A 
ATOM     15  C   UNL     1       1.745   8.690  19.013  0.00  0.00    +0.000 A 
ATOM     16  C   UNL     1       2.463   8.450  17.836  0.00  0.00    +0.000 A 
ATOM     17  C   UNL     1       3.140   7.241  17.645  0.00  0.00    +0.000 A 
BRANCH  12  19
ATOM     18  C   UNL     1       4.963   4.934  19.271  0.00  0.00    +0.000 C 
ATOM     19  O   UNL     1       3.739   5.045  18.552  0.00  0.00    +0.000 OA
ENDBRANCH  12  19
ENDBRANCH   1  15
BRANCH  11  20
ATOM     20  N   UNL     1      -2.374  12.789  19.724  0.00  0.00    +0.000 N 
ATOM     21  C   UNL     1      -2.213  13.989  20.375  0.00  0.00    +0.000 C 
ATOM     22  O   UNL     1      -1.380  14.830  20.052  0.00  0.00    +0.000 OA
ATOM     23  H   UNL     1      -3.008  12.094  20.091  0.00  0.00    +0.000 HD
BRANCH  21  24
ATOM     24  C   UNL     1      -3.124  14.200  21.559  0.00  0.00    +0.000 C 
BRANCH  24  25
ATOM     25  C   UNL     1      -4.298  13.232  21.464  0.00  0.00    +0.000 C 
BRANCH  25  26
ATOM     26  N   UNL     1      -4.772  12.800  22.759  0.00  0.00    +0.000 N 
ATOM     27  C   UNL     1      -4.030  12.494  23.857  0.00  0.00    +0.000 A 
ATOM     28  N   UNL     1      -4.832  12.175  24.847  0.00  0.00    +0.000 NA
ATOM     29  C   UNL     1      -6.074  12.313  24.294  0.00  0.00    +0.000 A 
ATOM     30  N   UNL     1      -6.087  12.691  23.014  0.00  0.00    +0.000 NA
ENDBRANCH  25  26
ENDBRANCH  24  25
ENDBRANCH  21  24
ENDBRANCH  11  20
TORSDOF 6
ENDMDL
MODEL 9
REMARK VINA RESULT:      -6.8      5.393     11.589
REMARK  Name = 
REMARK  9 active torsions:
REMARK  status: ('A' for Active; 'I' for Inactive)
REMARK    1  A    between atoms: C_1  and  O_2
REMARK    2  A    between atoms: O_2  and  C_3
REMARK    3  A    between atoms: C_6  and  N_7
REMARK    4  A    between atoms: C_13  and  C_14
REMARK    5  A    between atoms: C_13  and  C_15
REMARK    6  A    between atoms: C_17  and  N_18
REMARK    7  A    between atoms: C_19  and  C_21
REMARK    8  A    between atoms: C_21  and  C_22
REMARK    9  A    between atoms: C_22  and  N_23
REMARK                            x       y       z     vdW  Elec       q    Type
REMARK                         _______ _______ _______ _____ _____    ______ ____
ROOT
ATOM      1  N   UNL     1       2.901   7.416  18.471  0.00  0.00    +0.000 N 
ATOM      2  N   UNL     1       3.618   8.062  17.510  0.00  0.00    +0.000 NA
ATOM      3  C   UNL     1       4.466   7.145  17.042  0.00  0.00    +0.000 A 
ATOM      4  C   UNL     1       4.211   5.862  17.556  0.00  0.00    +0.000 A 
ATOM      5  C   UNL     1       3.207   6.062  18.477  0.00  0.00    +0.000 A 
ATOM      6  C   UNL     1       2.546   5.019  19.292  0.00  0.00    +0.000 C 
ATOM      7  C   UNL     1       2.930   3.570  18.890  0.00  0.00    +0.000 C 
ATOM      8  C   UNL     1       1.802   2.962  18.029  0.00  0.00    +0.000 C 
ATOM      9  C   UNL     1       3.011   2.747  20.201  0.00  0.00    +0.000 C 
ATOM     10  C   UNL     1       4.309   3.411  18.167  0.00  0.00    +0.000 C 
ATOM     11  C   UNL     1       4.844   4.551  17.260  0.00  0.00    +0.000 C 
ENDROOT
BRANCH   1  15
ATOM     12  C   UNL     1       0.109   9.524  20.859  0.00  0.00    +0.000 A 
ATOM     13  C   UNL     1       0.378   9.931  19.549  0.00  0.00    +0.000 A 
ATOM     14  C   UNL     1       1.318   9.249  18.766  0.00  0.00    +0.000 A 
ATOM     15  C   UNL     1       1.986   8.135  19.291  0.00  0.00    +0.000 A 
ATOM     16  C   UNL     1       1.745   7.765  20.618  0.00  0.00    +0.000 A 
ATOM     17  C   UNL     1       0.810   8.456  21.396  0.00  0.00    +0.000 A 
BRANCH  12  19
ATOM     18  C   UNL     1      -0.726  10.275  22.946  0.00  0.00    +0.000 C 
ATOM     19  O   UNL     1      -0.823  10.278  21.525  0.00  0.00    +0.000 OA
ENDBRANCH  12  19
ENDBRANCH   1  15
BRANCH  11  20
ATOM     20  N   UNL     1       4.690   4.249  15.847  0.00  0.00    +0.000 N 
ATOM     21  C   UNL     1       5.660   4.619  14.947  0.00  0.00    +0.000 C 
ATOM     22  O   UNL     1       6.687   5.213  15.261  0.00  0.00    +0.000 OA
ATOM     23  H   UNL     1       3.822   3.849  15.521  0.00  0.00    +0.000 HD
BRANCH  21  24
ATOM     24  C   UNL     1       5.364   4.269  13.509  0.00  0.00    +0.000 C 
BRANCH  24  25
ATOM     25  C   UNL     1       6.665   3.894  12.808  0.00  0.00    +0.000 C 
BRANCH  25  26
ATOM     26  N   UNL     1       6.525   2.739  11.951  0.00  0.00    +0.000 N 
ATOM     27  C   UNL     1       7.506   2.078  11.280  0.00  0.00    +0.000 A 
ATOM     28  N   UNL     1       6.979   1.061  10.635  0.00  0.00    +0.000 NA
ATOM     29  C   UNL     1       5.655   1.142  10.960  0.00  0.00    +0.000 A 
ATOM     30  N   UNL     1       5.327   2.158  11.762  0.00  0.00    +0.000 NA
ENDBRANCH  25  26
ENDBRANCH  24  25
ENDBRANCH  21  24
ENDBRANCH  11  20
TORSDOF 6
ENDMDL
