MODEL 1
REMARK VINA RESULT:      -6.8      0.000      0.000
REMARK  Name = 
REMARK  11 active torsions:
REMARK  status: ('A' for Active; 'I' for Inactive)
REMARK    1  A    between atoms: C_1  and  N_2
REMARK    2  A    between atoms: N_2  and  C_3
REMARK    3  A    between atoms: N_2  and  C_5
REMARK    4  A    between atoms: C_5  and  C_6
REMARK    5  A    between atoms: C_6  and  N_7
REMARK    6  A    between atoms: N_7  and  C_8
REMARK    7  A    between atoms: N_15  and  C_16
REMARK    8  A    between atoms: C_16  and  C_17
REMARK    9  A    between atoms: C_17  and  N_18
REMARK   10  A    between atoms: N_18  and  C_19
REMARK   11  A    between atoms: N_18  and  C_20
REMARK                            x       y       z     vdW  Elec       q    Type
REMARK                         _______ _______ _______ _____ _____    ______ ____
ROOT
ATOM      1  C   UNL     1       5.493   5.221  16.632  0.00  0.00    +0.000 A 
ATOM      2  C   UNL     1       5.417   6.502  15.992  0.00  0.00    +0.000 A 
ATOM      3  C   UNL     1       4.528   7.505  16.425  0.00  0.00    +0.000 A 
ATOM      4  C   UNL     1       3.700   7.199  17.499  0.00  0.00    +0.000 A 
ATOM      5  C   UNL     1       3.789   6.002  18.118  0.00  0.00    +0.000 A 
ATOM      6  C   UNL     1       2.854   6.002  19.102  0.00  0.00    +0.000 A 
ATOM      7  N   UNL     1       2.201   7.185  19.092  0.00  0.00    +0.000 NA
ATOM      8  N   UNL     1       2.735   7.920  18.109  0.00  0.00    +0.000 N 
ATOM      9  C   UNL     1       2.648   4.822  19.952  0.00  0.00    +0.000 A 
ATOM     10  C   UNL     1       1.653   4.739  20.928  0.00  0.00    +0.000 A 
ATOM     11  N   UNL     1       1.524   3.602  21.671  0.00  0.00    +0.000 NA
ATOM     12  C   UNL     1       2.346   2.531  21.494  0.00  0.00    +0.000 A 
ATOM     13  C   UNL     1       3.355   2.575  20.539  0.00  0.00    +0.000 A 
ATOM     14  C   UNL     1       3.511   3.725  19.753  0.00  0.00    +0.000 A 
ATOM     15  C   UNL     1       4.580   3.793  18.715  0.00  0.00    +0.000 C 
ATOM     16  O   UNL     1       5.421   2.920  18.728  0.00  0.00    +0.000 OA
ATOM     17  C   UNL     1       4.661   4.979  17.786  0.00  0.00    +0.000 A 
ENDROOT
BRANCH   1  18
ATOM     18  N   UNL     1       6.347   4.259  16.004  0.00  0.00    +0.000 N 
ATOM     19  H   UNL     1       7.005   3.783  16.633  0.00  0.00    +0.000 HD
BRANCH  18  20
ATOM     20  C   UNL     1       6.658   4.242  14.586  0.00  0.00    +0.000 C 
BRANCH  20  21
ATOM     21  C   UNL     1       5.697   3.379  13.761  0.00  0.00    +0.000 C 
BRANCH  21  23
ATOM     22  C   UNL     1       6.129   2.043  11.813  0.00  0.00    +0.000 C 
ATOM     23  N   UNL     1       5.915   3.417  12.286  0.00  0.00    +0.000 N 
ATOM     24  C   UNL     1       7.057   4.267  11.882  0.00  0.00    +0.000 C 
ATOM     25  O   UNL     1       4.806   3.885  11.661  0.00  0.00    +0.000 OA
ENDBRANCH  21  23
ENDBRANCH  20  21
ENDBRANCH  18  20
ENDBRANCH   1  18
BRANCH   8  26
ATOM     26  C   UNL     1       2.279   9.273  17.786  0.00  0.00    +0.000 C 
BRANCH  26  27
ATOM     27  C   UNL     1       0.832   9.461  18.290  0.00  0.00    +0.000 C 
BRANCH  27  28
ATOM     28  N   UNL     1       0.617  10.638  19.169  0.00  0.00    +0.000 N 
ATOM     29  C   UNL     1       0.746  10.306  20.600  0.00  0.00    +0.000 C 
ATOM     30  C   UNL     1       1.494  11.769  18.815  0.00  0.00    +0.000 C 
ATOM     31  O   UNL     1      -0.663  11.050  18.968  0.00  0.00    +0.000 OA
ENDBRANCH  27  28
ENDBRANCH  26  27
ENDBRANCH   8  26
TORSDOF 7
ENDMDL
MODEL 2
REMARK VINA RESULT:      -6.7      0.809      1.090
REMARK  Name = 
REMARK  11 active torsions:
REMARK  status: ('A' for Active; 'I' for Inactive)
REMARK    1  A    between atoms: C_1  and  N_2
REMARK    2  A    between atoms: N_2  and  C_3
REMARK    3  A    between atoms: N_2  and  C_5
REMARK    4  A    between atoms: C_5  and  C_6
REMARK    5  A    between atoms: C_6  and  N_7
REMARK    6  A    between atoms: N_7  and  C_8
REMARK    7  A    between atoms: N_15  and  C_16
REMARK    8  A    between atoms: C_16  and  C_17
REMARK    9  A    between atoms: C_17  and  N_18
REMARK   10  A    between atoms: N_18  and  C_19
REMARK   11  A    between atoms: N_18  and  C_20
REMARK                            x       y       z     vdW  Elec       q    Type
REMARK                         _______ _______ _______ _____ _____    ______ ____
ROOT
ATOM      1  C   UNL     1       5.405   5.281  16.641  0.00  0.00    +0.000 A 
ATOM      2  C   UNL     1       5.227   6.554  16.004  0.00  0.00    +0.000 A 
ATOM      3  C   UNL     1       4.295   7.501  16.469  0.00  0.00    +0.000 A 
ATOM      4  C   UNL     1       3.526   7.147  17.572  0.00  0.00    +0.000 A 
ATOM      5  C   UNL     1       3.710   5.959  18.187  0.00  0.00    +0.000 A 
ATOM      6  C   UNL     1       2.813   5.904  19.204  0.00  0.00    +0.000 A 
ATOM      7  N   UNL     1       2.089   7.045  19.217  0.00  0.00    +0.000 NA
ATOM      8  N   UNL     1       2.541   7.809  18.216  0.00  0.00    +0.000 N 
ATOM      9  C   UNL     1       2.710   4.715  20.061  0.00  0.00    +0.000 A 
ATOM     10  C   UNL     1       1.758   4.573  21.072  0.00  0.00    +0.000 A 
ATOM     11  N   UNL     1       1.726   3.432  21.818  0.00  0.00    +0.000 NA
ATOM     12  C   UNL     1       2.605   2.413  21.612  0.00  0.00    +0.000 A 
ATOM     13  C   UNL     1       3.575   2.517  20.622  0.00  0.00    +0.000 A 
ATOM     14  C   UNL     1       3.632   3.673  19.831  0.00  0.00    +0.000 A 
ATOM     15  C   UNL     1       4.657   3.805  18.756  0.00  0.00    +0.000 C 
ATOM     16  O   UNL     1       5.550   2.985  18.738  0.00  0.00    +0.000 OA
ATOM     17  C   UNL     1       4.632   4.991  17.824  0.00  0.00    +0.000 A 
ENDROOT
BRANCH   1  18
ATOM     18  N   UNL     1       6.294   4.373  15.983  0.00  0.00    +0.000 N 
ATOM     19  H   UNL     1       7.020   3.961  16.582  0.00  0.00    +0.000 HD
BRANCH  18  20
ATOM     20  C   UNL     1       6.525   4.346  14.550  0.00  0.00    +0.000 C 
BRANCH  20  21
ATOM     21  C   UNL     1       5.536   3.459  13.787  0.00  0.00    +0.000 C 
BRANCH  21  23
ATOM     22  C   UNL     1       6.960   4.157  11.984  0.00  0.00    +0.000 C 
ATOM     23  N   UNL     1       5.794   3.330  12.325  0.00  0.00    +0.000 N 
ATOM     24  C   UNL     1       4.640   3.725  11.486  0.00  0.00    +0.000 C 
ATOM     25  O   UNL     1       6.113   2.048  12.017  0.00  0.00    +0.000 OA
ENDBRANCH  21  23
ENDBRANCH  20  21
ENDBRANCH  18  20
ENDBRANCH   1  18
BRANCH   8  26
ATOM     26  C   UNL     1       1.991   9.130  17.909  0.00  0.00    +0.000 C 
BRANCH  26  27
ATOM     27  C   UNL     1       1.382   9.742  19.189  0.00  0.00    +0.000 C 
BRANCH  27  28
ATOM     28  N   UNL     1       0.064  10.402  19.009  0.00  0.00    +0.000 N 
ATOM     29  C   UNL     1       0.162  11.874  19.020  0.00  0.00    +0.000 C 
ATOM     30  C   UNL     1      -0.635   9.935  17.798  0.00  0.00    +0.000 C 
ATOM     31  O   UNL     1      -0.702  10.045  20.073  0.00  0.00    +0.000 OA
ENDBRANCH  27  28
ENDBRANCH  26  27
ENDBRANCH   8  26
TORSDOF 7
ENDMDL
MODEL 3
REMARK VINA RESULT:      -6.7      0.853      1.048
REMARK  Name = 
REMARK  11 active torsions:
REMARK  status: ('A' for Active; 'I' for Inactive)
REMARK    1  A    between atoms: C_1  and  N_2
REMARK    2  A    between atoms: N_2  and  C_3
REMARK    3  A    between atoms: N_2  and  C_5
REMARK    4  A    between atoms: C_5  and  C_6
REMARK    5  A    between atoms: C_6  and  N_7
REMARK    6  A    between atoms: N_7  and  C_8
REMARK    7  A    between atoms: N_15  and  C_16
REMARK    8  A    between atoms: C_16  and  C_17
REMARK    9  A    between atoms: C_17  and  N_18
REMARK   10  A    between atoms: N_18  and  C_19
REMARK   11  A    between atoms: N_18  and  C_20
REMARK                            x       y       z     vdW  Elec       q    Type
REMARK                         _______ _______ _______ _____ _____    ______ ____
ROOT
ATOM      1  C   UNL     1       5.399   5.253  16.545  0.00  0.00    +0.000 A 
ATOM      2  C   UNL     1       5.272   6.540  15.925  0.00  0.00    +0.000 A 
ATOM      3  C   UNL     1       4.408   7.532  16.426  0.00  0.00    +0.000 A 
ATOM      4  C   UNL     1       3.655   7.209  17.550  0.00  0.00    +0.000 A 
ATOM      5  C   UNL     1       3.793   6.006  18.149  0.00  0.00    +0.000 A 
ATOM      6  C   UNL     1       2.925   5.989  19.193  0.00  0.00    +0.000 A 
ATOM      7  N   UNL     1       2.265   7.168  19.238  0.00  0.00    +0.000 NA
ATOM      8  N   UNL     1       2.727   7.916  18.229  0.00  0.00    +0.000 N 
ATOM      9  C   UNL     1       2.783   4.799  20.042  0.00  0.00    +0.000 A 
ATOM     10  C   UNL     1       1.856   4.699  21.081  0.00  0.00    +0.000 A 
ATOM     11  N   UNL     1       1.785   3.554  21.818  0.00  0.00    +0.000 NA
ATOM     12  C   UNL     1       2.600   2.491  21.577  0.00  0.00    +0.000 A 
ATOM     13  C   UNL     1       3.543   2.552  20.558  0.00  0.00    +0.000 A 
ATOM     14  C   UNL     1       3.639   3.711  19.775  0.00  0.00    +0.000 A 
ATOM     15  C   UNL     1       4.637   3.798  18.669  0.00  0.00    +0.000 C 
ATOM     16  O   UNL     1       5.483   2.931  18.618  0.00  0.00    +0.000 OA
ATOM     17  C   UNL     1       4.648   4.993  17.749  0.00  0.00    +0.000 A 
ENDROOT
BRANCH   1  18
ATOM     18  N   UNL     1       6.217   4.304  15.853  0.00  0.00    +0.000 N 
ATOM     19  H   UNL     1       6.887   3.793  16.440  0.00  0.00    +0.000 HD
BRANCH  18  20
ATOM     20  C   UNL     1       6.481   4.338  14.426  0.00  0.00    +0.000 C 
BRANCH  20  21
ATOM     21  C   UNL     1       5.981   3.096  13.682  0.00  0.00    +0.000 C 
BRANCH  21  23
ATOM     22  C   UNL     1       4.738   3.639  11.700  0.00  0.00    +0.000 C 
ATOM     23  N   UNL     1       6.042   3.177  12.194  0.00  0.00    +0.000 N 
ATOM     24  C   UNL     1       6.395   1.893  11.548  0.00  0.00    +0.000 C 
ATOM     25  O   UNL     1       6.961   4.101  11.814  0.00  0.00    +0.000 OA
ENDBRANCH  21  23
ENDBRANCH  20  21
ENDBRANCH  18  20
ENDBRANCH   1  18
BRANCH   8  26
ATOM     26  C   UNL     1       2.241   9.269  17.952  0.00  0.00    +0.000 C 
BRANCH  26  27
ATOM     27  C   UNL     1       0.722   9.333  18.218  0.00  0.00    +0.000 C 
BRANCH  27  28
ATOM     28  N   UNL     1       0.288  10.407  19.148  0.00  0.00    +0.000 N 
ATOM     29  C   UNL     1      -1.119  10.796  18.945  0.00  0.00    +0.000 C 
ATOM     30  C   UNL     1       0.534  10.057  20.560  0.00  0.00    +0.000 C 
ATOM     31  O   UNL     1       1.049  11.498  18.871  0.00  0.00    +0.000 OA
ENDBRANCH  27  28
ENDBRANCH  26  27
ENDBRANCH   8  26
TORSDOF 7
ENDMDL
MODEL 4
REMARK VINA RESULT:      -6.7      2.112      6.745
REMARK  Name = 
REMARK  11 active torsions:
REMARK  status: ('A' for Active; 'I' for Inactive)
REMARK    1  A    between atoms: C_1  and  N_2
REMARK    2  A    between atoms: N_2  and  C_3
REMARK    3  A    between atoms: N_2  and  C_5
REMARK    4  A    between atoms: C_5  and  C_6
REMARK    5  A    between atoms: C_6  and  N_7
REMARK    6  A    between atoms: N_7  and  C_8
REMARK    7  A    between atoms: N_15  and  C_16
REMARK    8  A    between atoms: C_16  and  C_17
REMARK    9  A    between atoms: C_17  and  N_18
REMARK   10  A    between atoms: N_18  and  C_19
REMARK   11  A    between atoms: N_18  and  C_20
REMARK                            x       y       z     vdW  Elec       q    Type
REMARK                         _______ _______ _______ _____ _____    ______ ____
ROOT
ATOM      1  C   UNL     1       3.137   5.225  20.326  0.00  0.00    +0.000 A 
ATOM      2  C   UNL     1       4.210   4.605  19.604  0.00  0.00    +0.000 A 
ATOM      3  C   UNL     1       4.757   5.176  18.439  0.00  0.00    +0.000 A 
ATOM      4  C   UNL     1       4.201   6.370  17.995  0.00  0.00    +0.000 A 
ATOM      5  C   UNL     1       3.207   6.967  18.689  0.00  0.00    +0.000 A 
ATOM      6  C   UNL     1       2.873   8.090  18.003  0.00  0.00    +0.000 A 
ATOM      7  N   UNL     1       3.653   8.185  16.904  0.00  0.00    +0.000 NA
ATOM      8  N   UNL     1       4.474   7.128  16.912  0.00  0.00    +0.000 N 
ATOM      9  C   UNL     1       1.784   8.962  18.461  0.00  0.00    +0.000 A 
ATOM     10  C   UNL     1       1.348  10.087  17.757  0.00  0.00    +0.000 A 
ATOM     11  N   UNL     1       0.324  10.840  18.250  0.00  0.00    +0.000 NA
ATOM     12  C   UNL     1      -0.295  10.533  19.422  0.00  0.00    +0.000 A 
ATOM     13  C   UNL     1       0.112   9.428  20.159  0.00  0.00    +0.000 A 
ATOM     14  C   UNL     1       1.157   8.626  19.679  0.00  0.00    +0.000 A 
ATOM     15  C   UNL     1       1.607   7.429  20.446  0.00  0.00    +0.000 C 
ATOM     16  O   UNL     1       1.187   7.306  21.577  0.00  0.00    +0.000 OA
ATOM     17  C   UNL     1       2.642   6.498  19.863  0.00  0.00    +0.000 A 
ENDROOT
BRANCH   1  18
ATOM     18  N   UNL     1       2.598   4.467  21.414  0.00  0.00    +0.000 N 
ATOM     19  H   UNL     1       3.073   4.598  22.315  0.00  0.00    +0.000 HD
BRANCH  18  20
ATOM     20  C   UNL     1       1.793   3.269  21.259  0.00  0.00    +0.000 C 
BRANCH  20  21
ATOM     21  C   UNL     1       0.728   3.386  20.163  0.00  0.00    +0.000 C 
BRANCH  21  23
ATOM     22  C   UNL     1       2.245   1.870  19.082  0.00  0.00    +0.000 C 
ATOM     23  N   UNL     1       1.073   2.729  18.869  0.00  0.00    +0.000 N 
ATOM     24  C   UNL     1       1.350   3.689  17.778  0.00  0.00    +0.000 C 
ATOM     25  O   UNL     1       0.057   1.924  18.468  0.00  0.00    +0.000 OA
ENDBRANCH  21  23
ENDBRANCH  20  21
ENDBRANCH  18  20
ENDBRANCH   1  18
BRANCH   8  26
ATOM     26  C   UNL     1       5.470   6.883  15.867  0.00  0.00    +0.000 C 
BRANCH  26  27
ATOM     27  C   UNL     1       5.189   5.519  15.200  0.00  0.00    +0.000 C 
BRANCH  27  28
ATOM     28  N   UNL     1       6.396   4.728  14.848  0.00  0.00    +0.000 N 
ATOM     29  C   UNL     1       6.831   3.842  15.944  0.00  0.00    +0.000 C 
ATOM     30  C   UNL     1       6.219   3.963  13.599  0.00  0.00    +0.000 C 
ATOM     31  O   UNL     1       7.399   5.618  14.631  0.00  0.00    +0.000 OA
ENDBRANCH  27  28
ENDBRANCH  26  27
ENDBRANCH   8  26
TORSDOF 7
ENDMDL
MODEL 5
REMARK VINA RESULT:      -6.7      2.094      7.755
REMARK  Name = 
REMARK  11 active torsions:
REMARK  status: ('A' for Active; 'I' for Inactive)
REMARK    1  A    between atoms: C_1  and  N_2
REMARK    2  A    between atoms: N_2  and  C_3
REMARK    3  A    between atoms: N_2  and  C_5
REMARK    4  A    between atoms: C_5  and  C_6
REMARK    5  A    between atoms: C_6  and  N_7
REMARK    6  A    between atoms: N_7  and  C_8
REMARK    7  A    between atoms: N_15  and  C_16
REMARK    8  A    between atoms: C_16  and  C_17
REMARK    9  A    between atoms: C_17  and  N_18
REMARK   10  A    between atoms: N_18  and  C_19
REMARK   11  A    between atoms: N_18  and  C_20
REMARK                            x       y       z     vdW  Elec       q    Type
REMARK                         _______ _______ _______ _____ _____    ______ ____
ROOT
ATOM      1  C   UNL     1       1.863   8.368  19.278  0.00  0.00    +0.000 A 
ATOM      2  C   UNL     1       2.417   9.058  18.149  0.00  0.00    +0.000 A 
ATOM      3  C   UNL     1       3.323   8.442  17.265  0.00  0.00    +0.000 A 
ATOM      4  C   UNL     1       3.682   7.127  17.538  0.00  0.00    +0.000 A 
ATOM      5  C   UNL     1       3.142   6.468  18.587  0.00  0.00    +0.000 A 
ATOM      6  C   UNL     1       3.695   5.229  18.596  0.00  0.00    +0.000 A 
ATOM      7  N   UNL     1       4.563   5.125  17.565  0.00  0.00    +0.000 NA
ATOM      8  N   UNL     1       4.541   6.293  16.913  0.00  0.00    +0.000 N 
ATOM      9  C   UNL     1       3.359   4.256  19.644  0.00  0.00    +0.000 A 
ATOM     10  C   UNL     1       3.952   2.996  19.746  0.00  0.00    +0.000 A 
ATOM     11  N   UNL     1       3.587   2.155  20.755  0.00  0.00    +0.000 NA
ATOM     12  C   UNL     1       2.648   2.502  21.677  0.00  0.00    +0.000 A 
ATOM     13  C   UNL     1       2.025   3.743  21.607  0.00  0.00    +0.000 A 
ATOM     14  C   UNL     1       2.382   4.637  20.588  0.00  0.00    +0.000 A 
ATOM     15  C   UNL     1       1.736   5.978  20.496  0.00  0.00    +0.000 C 
ATOM     16  O   UNL     1       0.763   6.172  21.192  0.00  0.00    +0.000 OA
ATOM     17  C   UNL     1       2.215   6.983  19.478  0.00  0.00    +0.000 A 
ENDROOT
BRANCH   1  18
ATOM     18  N   UNL     1       1.059   9.159  20.160  0.00  0.00    +0.000 N 
ATOM     19  H   UNL     1       1.206   8.983  21.161  0.00  0.00    +0.000 HD
BRANCH  18  20
ATOM     20  C   UNL     1      -0.183   9.805  19.777  0.00  0.00    +0.000 C 
BRANCH  20  21
ATOM     21  C   UNL     1      -0.081  11.332  19.703  0.00  0.00    +0.000 C 
BRANCH  21  23
ATOM     22  C   UNL     1      -1.487  12.287  21.399  0.00  0.00    +0.000 C 
ATOM     23  N   UNL     1      -0.091  12.035  21.018  0.00  0.00    +0.000 N 
ATOM     24  C   UNL     1       0.663  13.308  21.010  0.00  0.00    +0.000 C 
ATOM     25  O   UNL     1       0.446  11.239  21.977  0.00  0.00    +0.000 OA
ENDBRANCH  21  23
ENDBRANCH  20  21
ENDBRANCH  18  20
ENDBRANCH   1  18
BRANCH   8  26
ATOM     26  C   UNL     1       5.362   6.563  15.732  0.00  0.00    +0.000 C 
BRANCH  26  27
ATOM     27  C   UNL     1       5.268   5.369  14.757  0.00  0.00    +0.000 C 
BRANCH  27  28
ATOM     28  N   UNL     1       6.543   4.648  14.516  0.00  0.00    +0.000 N 
ATOM     29  C   UNL     1       6.936   3.798  15.655  0.00  0.00    +0.000 C 
ATOM     30  C   UNL     1       6.517   3.865  13.266  0.00  0.00    +0.000 C 
ATOM     31  O   UNL     1       7.508   5.594  14.372  0.00  0.00    +0.000 OA
ENDBRANCH  27  28
ENDBRANCH  26  27
ENDBRANCH   8  26
TORSDOF 7
ENDMDL
MODEL 6
REMARK VINA RESULT:      -6.6      2.045      7.567
REMARK  Name = 
REMARK  11 active torsions:
REMARK  status: ('A' for Active; 'I' for Inactive)
REMARK    1  A    between atoms: C_1  and  N_2
REMARK    2  A    between atoms: N_2  and  C_3
REMARK    3  A    between atoms: N_2  and  C_5
REMARK    4  A    between atoms: C_5  and  C_6
REMARK    5  A    between atoms: C_6  and  N_7
REMARK    6  A    between atoms: N_7  and  C_8
REMARK    7  A    between atoms: N_15  and  C_16
REMARK    8  A    between atoms: C_16  and  C_17
REMARK    9  A    between atoms: C_17  and  N_18
REMARK   10  A    between atoms: N_18  and  C_19
REMARK   11  A    between atoms: N_18  and  C_20
REMARK                            x       y       z     vdW  Elec       q    Type
REMARK                         _______ _______ _______ _____ _____    ______ ____
ROOT
ATOM      1  C   UNL     1       1.831   8.315  19.240  0.00  0.00    +0.000 A 
ATOM      2  C   UNL     1       2.405   9.027  18.135  0.00  0.00    +0.000 A 
ATOM      3  C   UNL     1       3.369   8.448  17.289  0.00  0.00    +0.000 A 
ATOM      4  C   UNL     1       3.768   7.148  17.577  0.00  0.00    +0.000 A 
ATOM      5  C   UNL     1       3.209   6.467  18.603  0.00  0.00    +0.000 A 
ATOM      6  C   UNL     1       3.810   5.251  18.636  0.00  0.00    +0.000 A 
ATOM      7  N   UNL     1       4.723   5.181  17.642  0.00  0.00    +0.000 NA
ATOM      8  N   UNL     1       4.683   6.349  16.989  0.00  0.00    +0.000 N 
ATOM      9  C   UNL     1       3.467   4.264  19.669  0.00  0.00    +0.000 A 
ATOM     10  C   UNL     1       4.104   3.028  19.796  0.00  0.00    +0.000 A 
ATOM     11  N   UNL     1       3.730   2.171  20.789  0.00  0.00    +0.000 NA
ATOM     12  C   UNL     1       2.740   2.481  21.670  0.00  0.00    +0.000 A 
ATOM     13  C   UNL     1       2.074   3.697  21.574  0.00  0.00    +0.000 A 
ATOM     14  C   UNL     1       2.438   4.605  20.570  0.00  0.00    +0.000 A 
ATOM     15  C   UNL     1       1.745   5.920  20.451  0.00  0.00    +0.000 C 
ATOM     16  O   UNL     1       0.737   6.076  21.106  0.00  0.00    +0.000 OA
ATOM     17  C   UNL     1       2.227   6.945  19.454  0.00  0.00    +0.000 A 
ENDROOT
BRANCH   1  18
ATOM     18  N   UNL     1       0.961   9.073  20.086  0.00  0.00    +0.000 N 
ATOM     19  H   UNL     1       0.351   8.516  20.696  0.00  0.00    +0.000 HD
BRANCH  18  20
ATOM     20  C   UNL     1       0.569  10.449  19.837  0.00  0.00    +0.000 C 
BRANCH  20  21
ATOM     21  C   UNL     1      -0.903  10.603  19.442  0.00  0.00    +0.000 C 
BRANCH  21  23
ATOM     22  C   UNL     1      -0.134  12.852  19.100  0.00  0.00    +0.000 C 
ATOM     23  N   UNL     1      -1.315  11.981  19.049  0.00  0.00    +0.000 N 
ATOM     24  C   UNL     1      -2.386  12.541  19.903  0.00  0.00    +0.000 C 
ATOM     25  O   UNL     1      -1.759  11.989  17.766  0.00  0.00    +0.000 OA
ENDBRANCH  21  23
ENDBRANCH  20  21
ENDBRANCH  18  20
ENDBRANCH   1  18
BRANCH   8  26
ATOM     26  C   UNL     1       5.542   6.652  15.843  0.00  0.00    +0.000 C 
BRANCH  26  27
ATOM     27  C   UNL     1       5.367   5.559  14.767  0.00  0.00    +0.000 C 
BRANCH  27  28
ATOM     28  N   UNL     1       6.565   4.717  14.520  0.00  0.00    +0.000 N 
ATOM     29  C   UNL     1       7.035   4.031  15.737  0.00  0.00    +0.000 C 
ATOM     30  C   UNL     1       6.355   3.751  13.425  0.00  0.00    +0.000 C 
ATOM     31  O   UNL     1       7.559   5.555  14.124  0.00  0.00    +0.000 OA
ENDBRANCH  27  28
ENDBRANCH  26  27
ENDBRANCH   8  26
TORSDOF 7
ENDMDL
MODEL 7
REMARK VINA RESULT:      -6.5      1.743      7.244
REMARK  Name = 
REMARK  11 active torsions:
REMARK  status: ('A' for Active; 'I' for Inactive)
REMARK    1  A    between atoms: C_1  and  N_2
REMARK    2  A    between atoms: N_2  and  C_3
REMARK    3  A    between atoms: N_2  and  C_5
REMARK    4  A    between atoms: C_5  and  C_6
REMARK    5  A    between atoms: C_6  and  N_7
REMARK    6  A    between atoms: N_7  and  C_8
REMARK    7  A    between atoms: N_15  and  C_16
REMARK    8  A    between atoms: C_16  and  C_17
REMARK    9  A    between atoms: C_17  and  N_18
REMARK   10  A    between atoms: N_18  and  C_19
REMARK   11  A    between atoms: N_18  and  C_20
REMARK                            x       y       z     vdW  Elec       q    Type
REMARK                         _______ _______ _______ _____ _____    ______ ____
ROOT
ATOM      1  C   UNL     1       2.780   7.534  18.379  0.00  0.00    +0.000 A 
ATOM      2  C   UNL     1       3.678   7.918  17.328  0.00  0.00    +0.000 A 
ATOM      3  C   UNL     1       4.716   7.077  16.884  0.00  0.00    +0.000 A 
ATOM      4  C   UNL     1       4.855   5.850  17.522  0.00  0.00    +0.000 A 
ATOM      5  C   UNL     1       3.994   5.476  18.494  0.00  0.00    +0.000 A 
ATOM      6  C   UNL     1       4.396   4.253  18.923  0.00  0.00    +0.000 A 
ATOM      7  N   UNL     1       5.489   3.876  18.221  0.00  0.00    +0.000 NA
ATOM      8  N   UNL     1       5.758   4.860  17.355  0.00  0.00    +0.000 N 
ATOM      9  C   UNL     1       3.700   3.567  20.018  0.00  0.00    +0.000 A 
ATOM     10  C   UNL     1       4.114   2.343  20.550  0.00  0.00    +0.000 A 
ATOM     11  N   UNL     1       3.413   1.776  21.572  0.00  0.00    +0.000 NA
ATOM     12  C   UNL     1       2.305   2.366  22.099  0.00  0.00    +0.000 A 
ATOM     13  C   UNL     1       1.853   3.579  21.595  0.00  0.00    +0.000 A 
ATOM     14  C   UNL     1       2.554   4.195  20.548  0.00  0.00    +0.000 A 
ATOM     15  C   UNL     1       2.095   5.502  19.995  0.00  0.00    +0.000 C 
ATOM     16  O   UNL     1       0.998   5.892  20.334  0.00  0.00    +0.000 OA
ATOM     17  C   UNL     1       2.923   6.222  18.960  0.00  0.00    +0.000 A 
ENDROOT
BRANCH   1  18
ATOM     18  N   UNL     1       1.858   8.540  18.811  0.00  0.00    +0.000 N 
ATOM     19  H   UNL     1       1.212   8.250  19.554  0.00  0.00    +0.000 HD
BRANCH  18  20
ATOM     20  C   UNL     1       1.480   9.698  18.021  0.00  0.00    +0.000 C 
BRANCH  20  21
ATOM     21  C   UNL     1       0.022  10.125  18.220  0.00  0.00    +0.000 C 
BRANCH  21  23
ATOM     22  C   UNL     1      -1.578  11.459  19.415  0.00  0.00    +0.000 C 
ATOM     23  N   UNL     1      -0.275  10.789  19.521  0.00  0.00    +0.000 N 
ATOM     24  C   UNL     1       0.757  11.767  19.931  0.00  0.00    +0.000 C 
ATOM     25  O   UNL     1      -0.384   9.862  20.506  0.00  0.00    +0.000 OA
ENDBRANCH  21  23
ENDBRANCH  20  21
ENDBRANCH  18  20
ENDBRANCH   1  18
BRANCH   8  26
ATOM     26  C   UNL     1       6.883   4.813  16.420  0.00  0.00    +0.000 C 
BRANCH  26  27
ATOM     27  C   UNL     1       6.566   3.817  15.283  0.00  0.00    +0.000 C 
BRANCH  27  28
ATOM     28  N   UNL     1       6.430   4.421  13.933  0.00  0.00    +0.000 N 
ATOM     29  C   UNL     1       7.624   5.188  13.534  0.00  0.00    +0.000 C 
ATOM     30  C   UNL     1       6.084   3.422  12.905  0.00  0.00    +0.000 C 
ATOM     31  O   UNL     1       5.394   5.299  13.999  0.00  0.00    +0.000 OA
ENDBRANCH  27  28
ENDBRANCH  26  27
ENDBRANCH   8  26
TORSDOF 7
ENDMDL
MODEL 8
REMARK VINA RESULT:      -6.5      1.378      1.641
REMARK  Name = 
REMARK  11 active torsions:
REMARK  status: ('A' for Active; 'I' for Inactive)
REMARK    1  A    between atoms: C_1  and  N_2
REMARK    2  A    between atoms: N_2  and  C_3
REMARK    3  A    between atoms: N_2  and  C_5
REMARK    4  A    between atoms: C_5  and  C_6
REMARK    5  A    between atoms: C_6  and  N_7
REMARK    6  A    between atoms: N_7  and  C_8
REMARK    7  A    between atoms: N_15  and  C_16
REMARK    8  A    between atoms: C_16  and  C_17
REMARK    9  A    between atoms: C_17  and  N_18
REMARK   10  A    between atoms: N_18  and  C_19
REMARK   11  A    between atoms: N_18  and  C_20
REMARK                            x       y       z     vdW  Elec       q    Type
REMARK                         _______ _______ _______ _____ _____    ______ ____
ROOT
ATOM      1  C   UNL     1       5.973   6.038  17.783  0.00  0.00    +0.000 A 
ATOM      2  C   UNL     1       5.828   7.318  17.152  0.00  0.00    +0.000 A 
ATOM      3  C   UNL     1       4.622   8.043  17.196  0.00  0.00    +0.000 A 
ATOM      4  C   UNL     1       3.554   7.459  17.866  0.00  0.00    +0.000 A 
ATOM      5  C   UNL     1       3.697   6.265  18.483  0.00  0.00    +0.000 A 
ATOM      6  C   UNL     1       2.491   5.960  19.026  0.00  0.00    +0.000 A 
ATOM      7  N   UNL     1       1.618   6.955  18.750  0.00  0.00    +0.000 NA
ATOM      8  N   UNL     1       2.283   7.877  18.045  0.00  0.00    +0.000 N 
ATOM      9  C   UNL     1       2.279   4.694  19.739  0.00  0.00    +0.000 A 
ATOM     10  C   UNL     1       1.043   4.295  20.253  0.00  0.00    +0.000 A 
ATOM     11  N   UNL     1       0.931   3.099  20.897  0.00  0.00    +0.000 NA
ATOM     12  C   UNL     1       1.997   2.269  21.064  0.00  0.00    +0.000 A 
ATOM     13  C   UNL     1       3.247   2.631  20.577  0.00  0.00    +0.000 A 
ATOM     14  C   UNL     1       3.398   3.851  19.902  0.00  0.00    +0.000 A 
ATOM     15  C   UNL     1       4.727   4.258  19.361  0.00  0.00    +0.000 C 
ATOM     16  O   UNL     1       5.689   3.608  19.709  0.00  0.00    +0.000 OA
ATOM     17  C   UNL     1       4.855   5.508  18.525  0.00  0.00    +0.000 A 
ENDROOT
BRANCH   1  18
ATOM     18  N   UNL     1       7.212   5.362  17.547  0.00  0.00    +0.000 N 
ATOM     19  H   UNL     1       8.053   5.939  17.661  0.00  0.00    +0.000 HD
BRANCH  18  20
ATOM     20  C   UNL     1       7.345   4.147  16.764  0.00  0.00    +0.000 C 
BRANCH  20  21
ATOM     21  C   UNL     1       6.209   3.940  15.757  0.00  0.00    +0.000 C 
BRANCH  21  23
ATOM     22  C   UNL     1       5.296   5.635  14.323  0.00  0.00    +0.000 C 
ATOM     23  N   UNL     1       6.376   4.649  14.456  0.00  0.00    +0.000 N 
ATOM     24  C   UNL     1       6.371   3.742  13.287  0.00  0.00    +0.000 C 
ATOM     25  O   UNL     1       7.546   5.337  14.445  0.00  0.00    +0.000 OA
ENDBRANCH  21  23
ENDBRANCH  20  21
ENDBRANCH  18  20
ENDBRANCH   1  18
BRANCH   8  26
ATOM     26  C   UNL     1       1.661   9.109  17.558  0.00  0.00    +0.000 C 
BRANCH  26  27
ATOM     27  C   UNL     1       1.493  10.099  18.730  0.00  0.00    +0.000 C 
BRANCH  27  28
ATOM     28  N   UNL     1       0.102  10.558  18.977  0.00  0.00    +0.000 N 
ATOM     29  C   UNL     1      -0.447  10.043  20.244  0.00  0.00    +0.000 C 
ATOM     30  C   UNL     1      -0.022  12.027  18.913  0.00  0.00    +0.000 C 
ATOM     31  O   UNL     1      -0.662  10.051  17.974  0.00  0.00    +0.000 OA
ENDBRANCH  27  28
ENDBRANCH  26  27
ENDBRANCH   8  26
TORSDOF 7
ENDMDL
MODEL 9
REMARK VINA RESULT:      -6.4      2.149      5.258
REMARK  Name = 
REMARK  11 active torsions:
REMARK  status: ('A' for Active; 'I' for Inactive)
REMARK    1  A    between atoms: C_1  and  N_2
REMARK    2  A    between atoms: N_2  and  C_3
REMARK    3  A    between atoms: N_2  and  C_5
REMARK    4  A    between atoms: C_5  and  C_6
REMARK    5  A    between atoms: C_6  and  N_7
REMARK    6  A    between atoms: N_7  and  C_8
REMARK    7  A    between atoms: N_15  and  C_16
REMARK    8  A    between atoms: C_16  and  C_17
REMARK    9  A    between atoms: C_17  and  N_18
REMARK   10  A    between atoms: N_18  and  C_19
REMARK   11  A    between atoms: N_18  and  C_20
REMARK                            x       y       z     vdW  Elec       q    Type
REMARK                         _______ _______ _______ _____ _____    ______ ____
ROOT
ATOM      1  C   UNL     1       2.810   5.284  20.419  0.00  0.00    +0.000 A 
ATOM      2  C   UNL     1       1.922   6.329  20.841  0.00  0.00    +0.000 A 
ATOM      3  C   UNL     1       1.735   7.503  20.088  0.00  0.00    +0.000 A 
ATOM      4  C   UNL     1       2.465   7.627  18.911  0.00  0.00    +0.000 A 
ATOM      5  C   UNL     1       3.282   6.632  18.500  0.00  0.00    +0.000 A 
ATOM      6  C   UNL     1       3.856   7.052  17.344  0.00  0.00    +0.000 A 
ATOM      7  N   UNL     1       3.396   8.287  17.045  0.00  0.00    +0.000 NA
ATOM      8  N   UNL     1       2.533   8.629  18.009  0.00  0.00    +0.000 N 
ATOM      9  C   UNL     1       4.844   6.222  16.643  0.00  0.00    +0.000 A 
ATOM     10  C   UNL     1       5.521   6.634  15.493  0.00  0.00    +0.000 A 
ATOM     11  N   UNL     1       6.430   5.803  14.907  0.00  0.00    +0.000 NA
ATOM     12  C   UNL     1       6.702   4.567  15.408  0.00  0.00    +0.000 A 
ATOM     13  C   UNL     1       6.045   4.114  16.545  0.00  0.00    +0.000 A 
ATOM     14  C   UNL     1       5.110   4.945  17.179  0.00  0.00    +0.000 A 
ATOM     15  C   UNL     1       4.398   4.486  18.406  0.00  0.00    +0.000 C 
ATOM     16  O   UNL     1       4.501   3.314  18.701  0.00  0.00    +0.000 OA
ATOM     17  C   UNL     1       3.491   5.430  19.156  0.00  0.00    +0.000 A 
ENDROOT
BRANCH   1  18
ATOM     18  N   UNL     1       2.996   4.211  21.347  0.00  0.00    +0.000 N 
ATOM     19  H   UNL     1       3.909   4.195  21.818  0.00  0.00    +0.000 HD
BRANCH  18  20
ATOM     20  C   UNL     1       2.238   2.973  21.331  0.00  0.00    +0.000 C 
BRANCH  20  21
ATOM     21  C   UNL     1       0.955   3.053  20.497  0.00  0.00    +0.000 C 
BRANCH  21  23
ATOM     22  C   UNL     1       2.238   1.619  19.060  0.00  0.00    +0.000 C 
ATOM     23  N   UNL     1       1.056   2.489  19.121  0.00  0.00    +0.000 N 
ATOM     24  C   UNL     1       1.142   3.523  18.066  0.00  0.00    +0.000 C 
ATOM     25  O   UNL     1      -0.024   1.711  18.854  0.00  0.00    +0.000 OA
ENDBRANCH  21  23
ENDBRANCH  20  21
ENDBRANCH  18  20
ENDBRANCH   1  18
BRANCH   8  26
ATOM     26  C   UNL     1       1.829   9.912  18.032  0.00  0.00    +0.000 C 
BRANCH  26  27
ATOM     27  C   UNL     1       0.313   9.669  17.863  0.00  0.00    +0.000 C 
BRANCH  27  28
ATOM     28  N   UNL     1      -0.563  10.572  18.653  0.00  0.00    +0.000 N 
ATOM     29  C   UNL     1      -0.005  11.930  18.783  0.00  0.00    +0.000 C 
ATOM     30  C   UNL     1      -1.939  10.622  18.123  0.00  0.00    +0.000 C 
ATOM     31  O   UNL     1      -0.639  10.048  19.905  0.00  0.00    +0.000 OA
ENDBRANCH  27  28
ENDBRANCH  26  27
ENDBRANCH   8  26
TORSDOF 7
ENDMDL
