MODEL 1
REMARK VINA RESULT:      -7.6      0.000      0.000
REMARK  Name = 
REMARK  7 active torsions:
REMARK  status: ('A' for Active; 'I' for Inactive)
REMARK    1  A    between atoms: C_1  and  C_2
REMARK    2  A    between atoms: C_2  and  C_3
REMARK    3  A    between atoms: C_3  and  O_4
REMARK    4  A    between atoms: C_3  and  C_15
REMARK    5  A    between atoms: O_4  and  N_5
REMARK    6  A    between atoms: C_12  and  C_13
REMARK    7  A    between atoms: C_12  and  C_14
REMARK                            x       y       z     vdW  Elec       q    Type
REMARK                         _______ _______ _______ _____ _____    ______ ____
ROOT
ATOM      1  N   UNL     1       3.612   4.665  19.064  0.00  0.00    +0.000 N 
ATOM      2  C   UNL     1       4.896   4.032  19.174  0.00  0.00    +0.000 C 
ATOM      3  N   UNL     1       6.054   4.789  19.495  0.00  0.00    +0.000 N 
ATOM      4  N   UNL     1       5.012   2.757  19.069  0.00  0.00    +0.000 NA
ATOM      5  C   UNL     1       3.891   1.915  18.887  0.00  0.00    +0.000 C 
ATOM      6  N   UNL     1       4.075   0.527  18.693  0.00  0.00    +0.000 N 
ATOM      7  N   UNL     1       2.706   2.402  18.924  0.00  0.00    +0.000 NA
ATOM      8  C   UNL     1       2.384   3.816  19.059  0.00  0.00    +0.000 C 
ATOM      9  C   UNL     1       1.425   4.106  17.891  0.00  0.00    +0.000 C 
ATOM     10  C   UNL     1       1.643   4.027  20.386  0.00  0.00    +0.000 C 
ATOM     11  H   UNL     1       6.009   5.805  19.646  0.00  0.00    +0.000 HD
ATOM     12  H   UNL     1       6.957   4.309  19.641  0.00  0.00    +0.000 HD
ATOM     13  H   UNL     1       5.023   0.125  18.661  0.00  0.00    +0.000 HD
ATOM     14  H   UNL     1       3.263  -0.093  18.550  0.00  0.00    +0.000 HD
ENDROOT
BRANCH   1  15
ATOM     15  O   UNL     1       3.551   5.995  19.343  0.00  0.00    +0.000 OA
BRANCH  15  16
ATOM     16  C   UNL     1       3.200   6.778  18.206  0.00  0.00    +0.000 C 
BRANCH  16  17
ATOM     17  C   UNL     1       2.253   7.862  18.694  0.00  0.00    +0.000 A 
ATOM     18  C   UNL     1       1.853   7.901  20.043  0.00  0.00    +0.000 A 
ATOM     19  C   UNL     1       1.004   8.913  20.504  0.00  0.00    +0.000 A 
ATOM     20  C   UNL     1       0.534   9.889  19.622  0.00  0.00    +0.000 A 
ATOM     21 CL   UNL     1      -0.534  11.155  20.201  0.00  0.00    +0.000 Cl
ATOM     22  C   UNL     1       0.919   9.859  18.279  0.00  0.00    +0.000 A 
ATOM     23  C   UNL     1       1.781   8.859  17.818  0.00  0.00    +0.000 A 
ENDBRANCH  16  17
BRANCH  16  25
ATOM     24  C   UNL     1       4.888   6.463  16.303  0.00  0.00    +0.000 C 
ATOM     25  C   UNL     1       4.396   7.388  17.425  0.00  0.00    +0.000 C 
ENDBRANCH  16  25
ENDBRANCH  15  16
ENDBRANCH   1  15
TORSDOF 4
ENDMDL
MODEL 2
REMARK VINA RESULT:      -7.6      0.042      1.058
REMARK  Name = 
REMARK  7 active torsions:
REMARK  status: ('A' for Active; 'I' for Inactive)
REMARK    1  A    between atoms: C_1  and  C_2
REMARK    2  A    between atoms: C_2  and  C_3
REMARK    3  A    between atoms: C_3  and  O_4
REMARK    4  A    between atoms: C_3  and  C_15
REMARK    5  A    between atoms: O_4  and  N_5
REMARK    6  A    between atoms: C_12  and  C_13
REMARK    7  A    between atoms: C_12  and  C_14
REMARK                            x       y       z     vdW  Elec       q    Type
REMARK                         _______ _______ _______ _____ _____    ______ ____
ROOT
ATOM      1  N   UNL     1       3.611   4.691  19.040  0.00  0.00    +0.000 N 
ATOM      2  C   UNL     1       4.889   4.047  19.162  0.00  0.00    +0.000 C 
ATOM      3  N   UNL     1       6.051   4.794  19.491  0.00  0.00    +0.000 N 
ATOM      4  N   UNL     1       4.995   2.770  19.060  0.00  0.00    +0.000 NA
ATOM      5  C   UNL     1       3.868   1.938  18.870  0.00  0.00    +0.000 C 
ATOM      6  N   UNL     1       4.041   0.548  18.679  0.00  0.00    +0.000 N 
ATOM      7  N   UNL     1       2.687   2.435  18.896  0.00  0.00    +0.000 NA
ATOM      8  C   UNL     1       2.376   3.852  19.027  0.00  0.00    +0.000 C 
ATOM      9  C   UNL     1       1.430   4.148  17.851  0.00  0.00    +0.000 C 
ATOM     10  C   UNL     1       1.627   4.071  20.347  0.00  0.00    +0.000 C 
ATOM     11  H   UNL     1       6.014   5.810  19.640  0.00  0.00    +0.000 HD
ATOM     12  H   UNL     1       6.949   4.306  19.645  0.00  0.00    +0.000 HD
ATOM     13  H   UNL     1       4.987   0.138  18.656  0.00  0.00    +0.000 HD
ATOM     14  H   UNL     1       3.226  -0.065  18.531  0.00  0.00    +0.000 HD
ENDROOT
BRANCH   1  15
ATOM     15  O   UNL     1       3.561   6.022  19.317  0.00  0.00    +0.000 OA
BRANCH  15  16
ATOM     16  C   UNL     1       3.193   6.803  18.183  0.00  0.00    +0.000 C 
BRANCH  16  17
ATOM     17  C   UNL     1       2.262   7.894  18.685  0.00  0.00    +0.000 A 
ATOM     18  C   UNL     1       1.777   8.876  17.800  0.00  0.00    +0.000 A 
ATOM     19  C   UNL     1       0.898   9.866  18.250  0.00  0.00    +0.000 A 
ATOM     20  C   UNL     1       0.502   9.896  19.590  0.00  0.00    +0.000 A 
ATOM     21 CL   UNL     1      -0.599  11.140  20.153  0.00  0.00    +0.000 Cl
ATOM     22  C   UNL     1       0.979   8.929  20.479  0.00  0.00    +0.000 A 
ATOM     23  C   UNL     1       1.846   7.928  20.030  0.00  0.00    +0.000 A 
ENDBRANCH  16  17
BRANCH  16  25
ATOM     24  C   UNL     1       4.893   6.440  16.299  0.00  0.00    +0.000 C 
ATOM     25  C   UNL     1       4.380   7.403  17.379  0.00  0.00    +0.000 C 
ENDBRANCH  16  25
ENDBRANCH  15  16
ENDBRANCH   1  15
TORSDOF 4
ENDMDL
MODEL 3
REMARK VINA RESULT:      -7.2      4.025      5.710
REMARK  Name = 
REMARK  7 active torsions:
REMARK  status: ('A' for Active; 'I' for Inactive)
REMARK    1  A    between atoms: C_1  and  C_2
REMARK    2  A    between atoms: C_2  and  C_3
REMARK    3  A    between atoms: C_3  and  O_4
REMARK    4  A    between atoms: C_3  and  C_15
REMARK    5  A    between atoms: O_4  and  N_5
REMARK    6  A    between atoms: C_12  and  C_13
REMARK    7  A    between atoms: C_12  and  C_14
REMARK                            x       y       z     vdW  Elec       q    Type
REMARK                         _______ _______ _______ _____ _____    ______ ____
ROOT
ATOM      1  N   UNL     1       3.465   4.268  19.069  0.00  0.00    +0.000 N 
ATOM      2  C   UNL     1       2.887   5.078  20.104  0.00  0.00    +0.000 C 
ATOM      3  N   UNL     1       2.944   6.495  20.035  0.00  0.00    +0.000 N 
ATOM      4  N   UNL     1       2.231   4.542  21.069  0.00  0.00    +0.000 NA
ATOM      5  C   UNL     1       2.007   3.148  21.141  0.00  0.00    +0.000 C 
ATOM      6  N   UNL     1       1.353   2.594  22.265  0.00  0.00    +0.000 N 
ATOM      7  N   UNL     1       2.373   2.386  20.177  0.00  0.00    +0.000 NA
ATOM      8  C   UNL     1       3.104   2.821  18.995  0.00  0.00    +0.000 C 
ATOM      9  C   UNL     1       4.315   1.875  18.921  0.00  0.00    +0.000 C 
ATOM     10  C   UNL     1       2.217   2.605  17.762  0.00  0.00    +0.000 C 
ATOM     11  H   UNL     1       3.407   6.978  19.254  0.00  0.00    +0.000 HD
ATOM     12  H   UNL     1       2.462   7.065  20.749  0.00  0.00    +0.000 HD
ATOM     13  H   UNL     1       1.055   3.198  23.046  0.00  0.00    +0.000 HD
ATOM     14  H   UNL     1       1.194   1.577  22.329  0.00  0.00    +0.000 HD
ENDROOT
BRANCH   1  15
ATOM     15  O   UNL     1       4.005   4.918  18.003  0.00  0.00    +0.000 OA
BRANCH  15  16
ATOM     16  C   UNL     1       5.426   4.817  17.963  0.00  0.00    +0.000 C 
BRANCH  16  17
ATOM     17  C   UNL     1       5.810   4.604  16.508  0.00  0.00    +0.000 A 
ATOM     18  C   UNL     1       4.907   3.994  15.617  0.00  0.00    +0.000 A 
ATOM     19  C   UNL     1       5.245   3.821  14.270  0.00  0.00    +0.000 A 
ATOM     20  C   UNL     1       6.492   4.241  13.801  0.00  0.00    +0.000 A 
ATOM     21 CL   UNL     1       6.915   4.020  12.113  0.00  0.00    +0.000 Cl
ATOM     22  C   UNL     1       7.399   4.844  14.676  0.00  0.00    +0.000 A 
ATOM     23  C   UNL     1       7.059   5.034  16.019  0.00  0.00    +0.000 A 
ENDBRANCH  16  17
BRANCH  16  25
ATOM     24  C   UNL     1       7.341   5.571  19.491  0.00  0.00    +0.000 C 
ATOM     25  C   UNL     1       6.194   6.021  18.576  0.00  0.00    +0.000 C 
ENDBRANCH  16  25
ENDBRANCH  15  16
ENDBRANCH   1  15
TORSDOF 4
ENDMDL
MODEL 4
REMARK VINA RESULT:      -7.2      4.018      5.696
REMARK  Name = 
REMARK  7 active torsions:
REMARK  status: ('A' for Active; 'I' for Inactive)
REMARK    1  A    between atoms: C_1  and  C_2
REMARK    2  A    between atoms: C_2  and  C_3
REMARK    3  A    between atoms: C_3  and  O_4
REMARK    4  A    between atoms: C_3  and  C_15
REMARK    5  A    between atoms: O_4  and  N_5
REMARK    6  A    between atoms: C_12  and  C_13
REMARK    7  A    between atoms: C_12  and  C_14
REMARK                            x       y       z     vdW  Elec       q    Type
REMARK                         _______ _______ _______ _____ _____    ______ ____
ROOT
ATOM      1  N   UNL     1       3.416   4.281  19.086  0.00  0.00    +0.000 N 
ATOM      2  C   UNL     1       2.829   5.090  20.118  0.00  0.00    +0.000 C 
ATOM      3  N   UNL     1       2.878   6.507  20.046  0.00  0.00    +0.000 N 
ATOM      4  N   UNL     1       2.174   4.551  21.083  0.00  0.00    +0.000 NA
ATOM      5  C   UNL     1       1.960   3.156  21.157  0.00  0.00    +0.000 C 
ATOM      6  N   UNL     1       1.307   2.600  22.280  0.00  0.00    +0.000 N 
ATOM      7  N   UNL     1       2.333   2.394  20.196  0.00  0.00    +0.000 NA
ATOM      8  C   UNL     1       3.064   2.832  19.014  0.00  0.00    +0.000 C 
ATOM      9  C   UNL     1       4.282   1.893  18.946  0.00  0.00    +0.000 C 
ATOM     10  C   UNL     1       2.183   2.607  17.779  0.00  0.00    +0.000 C 
ATOM     11  H   UNL     1       3.340   6.991  19.266  0.00  0.00    +0.000 HD
ATOM     12  H   UNL     1       2.390   7.075  20.759  0.00  0.00    +0.000 HD
ATOM     13  H   UNL     1       1.003   3.203  23.059  0.00  0.00    +0.000 HD
ATOM     14  H   UNL     1       1.154   1.582  22.346  0.00  0.00    +0.000 HD
ENDROOT
BRANCH   1  15
ATOM     15  O   UNL     1       3.954   4.933  18.020  0.00  0.00    +0.000 OA
BRANCH  15  16
ATOM     16  C   UNL     1       5.375   4.833  17.979  0.00  0.00    +0.000 C 
BRANCH  16  17
ATOM     17  C   UNL     1       5.759   4.644  16.520  0.00  0.00    +0.000 A 
ATOM     18  C   UNL     1       7.024   5.058  16.060  0.00  0.00    +0.000 A 
ATOM     19  C   UNL     1       7.393   4.861  14.725  0.00  0.00    +0.000 A 
ATOM     20  C   UNL     1       6.501   4.263  13.832  0.00  0.00    +0.000 A 
ATOM     21 CL   UNL     1       6.965   4.020  12.157  0.00  0.00    +0.000 Cl
ATOM     22  C   UNL     1       5.241   3.852  14.275  0.00  0.00    +0.000 A 
ATOM     23  C   UNL     1       4.874   4.031  15.612  0.00  0.00    +0.000 A 
ENDBRANCH  16  17
BRANCH  16  25
ATOM     24  C   UNL     1       7.320   5.561  19.480  0.00  0.00    +0.000 C 
ATOM     25  C   UNL     1       6.143   6.025  18.612  0.00  0.00    +0.000 C 
ENDBRANCH  16  25
ENDBRANCH  15  16
ENDBRANCH   1  15
TORSDOF 4
ENDMDL
MODEL 5
REMARK VINA RESULT:      -6.9      3.291      4.731
REMARK  Name = 
REMARK  7 active torsions:
REMARK  status: ('A' for Active; 'I' for Inactive)
REMARK    1  A    between atoms: C_1  and  C_2
REMARK    2  A    between atoms: C_2  and  C_3
REMARK    3  A    between atoms: C_3  and  O_4
REMARK    4  A    between atoms: C_3  and  C_15
REMARK    5  A    between atoms: O_4  and  N_5
REMARK    6  A    between atoms: C_12  and  C_13
REMARK    7  A    between atoms: C_12  and  C_14
REMARK                            x       y       z     vdW  Elec       q    Type
REMARK                         _______ _______ _______ _____ _____    ______ ____
ROOT
ATOM      1  N   UNL     1       3.808   3.511  18.389  0.00  0.00    +0.000 N 
ATOM      2  C   UNL     1       3.336   2.165  18.556  0.00  0.00    +0.000 C 
ATOM      3  N   UNL     1       4.217   1.062  18.406  0.00  0.00    +0.000 N 
ATOM      4  N   UNL     1       2.128   1.934  18.928  0.00  0.00    +0.000 NA
ATOM      5  C   UNL     1       1.224   2.977  19.233  0.00  0.00    +0.000 C 
ATOM      6  N   UNL     1      -0.118   2.677  19.557  0.00  0.00    +0.000 N 
ATOM      7  N   UNL     1       1.625   4.195  19.243  0.00  0.00    +0.000 NA
ATOM      8  C   UNL     1       2.962   4.641  18.874  0.00  0.00    +0.000 C 
ATOM      9  C   UNL     1       2.724   5.742  17.825  0.00  0.00    +0.000 C 
ATOM     10  C   UNL     1       3.633   5.256  20.109  0.00  0.00    +0.000 C 
ATOM     11  H   UNL     1       5.208   1.193  18.165  0.00  0.00    +0.000 HD
ATOM     12  H   UNL     1       3.879   0.105  18.599  0.00  0.00    +0.000 HD
ATOM     13  H   UNL     1      -0.451   1.701  19.551  0.00  0.00    +0.000 HD
ATOM     14  H   UNL     1      -0.786   3.433  19.771  0.00  0.00    +0.000 HD
ENDROOT
BRANCH   1  15
ATOM     15  O   UNL     1       5.137   3.675  18.149  0.00  0.00    +0.000 OA
BRANCH  15  16
ATOM     16  C   UNL     1       5.390   4.444  16.976  0.00  0.00    +0.000 C 
BRANCH  16  17
ATOM     17  C   UNL     1       6.247   5.625  17.401  0.00  0.00    +0.000 A 
ATOM     18  C   UNL     1       7.296   5.446  18.324  0.00  0.00    +0.000 A 
ATOM     19  C   UNL     1       8.105   6.524  18.697  0.00  0.00    +0.000 A 
ATOM     20  C   UNL     1       7.870   7.794  18.166  0.00  0.00    +0.000 A 
ATOM     21 CL   UNL     1       8.884   9.145  18.638  0.00  0.00    +0.000 Cl
ATOM     22  C   UNL     1       6.830   7.986  17.253  0.00  0.00    +0.000 A 
ATOM     23  C   UNL     1       6.029   6.908  16.864  0.00  0.00    +0.000 A 
ENDBRANCH  16  17
BRANCH  16  25
ATOM     24  C   UNL     1       5.702   4.277  14.437  0.00  0.00    +0.000 C 
ATOM     25  C   UNL     1       6.048   3.667  15.802  0.00  0.00    +0.000 C 
ENDBRANCH  16  25
ENDBRANCH  15  16
ENDBRANCH   1  15
TORSDOF 4
ENDMDL
MODEL 6
REMARK VINA RESULT:      -6.9      3.326      4.849
REMARK  Name = 
REMARK  7 active torsions:
REMARK  status: ('A' for Active; 'I' for Inactive)
REMARK    1  A    between atoms: C_1  and  C_2
REMARK    2  A    between atoms: C_2  and  C_3
REMARK    3  A    between atoms: C_3  and  O_4
REMARK    4  A    between atoms: C_3  and  C_15
REMARK    5  A    between atoms: O_4  and  N_5
REMARK    6  A    between atoms: C_12  and  C_13
REMARK    7  A    between atoms: C_12  and  C_14
REMARK                            x       y       z     vdW  Elec       q    Type
REMARK                         _______ _______ _______ _____ _____    ______ ____
ROOT
ATOM      1  N   UNL     1       3.826   3.447  18.317  0.00  0.00    +0.000 N 
ATOM      2  C   UNL     1       3.345   2.110  18.525  0.00  0.00    +0.000 C 
ATOM      3  N   UNL     1       4.208   0.994  18.371  0.00  0.00    +0.000 N 
ATOM      4  N   UNL     1       2.146   1.900  18.938  0.00  0.00    +0.000 NA
ATOM      5  C   UNL     1       1.263   2.959  19.249  0.00  0.00    +0.000 C 
ATOM      6  N   UNL     1      -0.072   2.681  19.618  0.00  0.00    +0.000 N 
ATOM      7  N   UNL     1       1.677   4.173  19.222  0.00  0.00    +0.000 NA
ATOM      8  C   UNL     1       3.007   4.596  18.804  0.00  0.00    +0.000 C 
ATOM      9  C   UNL     1       2.749   5.678  17.741  0.00  0.00    +0.000 C 
ATOM     10  C   UNL     1       3.722   5.227  20.006  0.00  0.00    +0.000 C 
ATOM     11  H   UNL     1       5.193   1.109  18.097  0.00  0.00    +0.000 HD
ATOM     12  H   UNL     1       3.866   0.045  18.592  0.00  0.00    +0.000 HD
ATOM     13  H   UNL     1      -0.415   1.709  19.643  0.00  0.00    +0.000 HD
ATOM     14  H   UNL     1      -0.725   3.448  19.838  0.00  0.00    +0.000 HD
ENDROOT
BRANCH   1  15
ATOM     15  O   UNL     1       5.149   3.591  18.034  0.00  0.00    +0.000 OA
BRANCH  15  16
ATOM     16  C   UNL     1       5.377   4.394  16.879  0.00  0.00    +0.000 C 
BRANCH  16  17
ATOM     17  C   UNL     1       6.262   5.550  17.316  0.00  0.00    +0.000 A 
ATOM     18  C   UNL     1       6.049   6.842  16.800  0.00  0.00    +0.000 A 
ATOM     19  C   UNL     1       6.843   7.915  17.220  0.00  0.00    +0.000 A 
ATOM     20  C   UNL     1       7.865   7.709  18.149  0.00  0.00    +0.000 A 
ATOM     21 CL   UNL     1       8.862   9.055  18.672  0.00  0.00    +0.000 Cl
ATOM     22  C   UNL     1       8.090   6.430  18.666  0.00  0.00    +0.000 A 
ATOM     23  C   UNL     1       7.288   5.358  18.261  0.00  0.00    +0.000 A 
ENDBRANCH  16  17
BRANCH  16  25
ATOM     24  C   UNL     1       6.217   4.582  14.465  0.00  0.00    +0.000 C 
ATOM     25  C   UNL     1       5.988   3.648  15.661  0.00  0.00    +0.000 C 
ENDBRANCH  16  25
ENDBRANCH  15  16
ENDBRANCH   1  15
TORSDOF 4
ENDMDL
MODEL 7
REMARK VINA RESULT:      -6.2      3.280      4.775
REMARK  Name = 
REMARK  7 active torsions:
REMARK  status: ('A' for Active; 'I' for Inactive)
REMARK    1  A    between atoms: C_1  and  C_2
REMARK    2  A    between atoms: C_2  and  C_3
REMARK    3  A    between atoms: C_3  and  O_4
REMARK    4  A    between atoms: C_3  and  C_15
REMARK    5  A    between atoms: O_4  and  N_5
REMARK    6  A    between atoms: C_12  and  C_13
REMARK    7  A    between atoms: C_12  and  C_14
REMARK                            x       y       z     vdW  Elec       q    Type
REMARK                         _______ _______ _______ _____ _____    ______ ____
ROOT
ATOM      1  N   UNL     1       5.136   5.612  16.651  0.00  0.00    +0.000 N 
ATOM      2  C   UNL     1       5.227   6.110  15.308  0.00  0.00    +0.000 C 
ATOM      3  N   UNL     1       4.914   7.463  15.012  0.00  0.00    +0.000 N 
ATOM      4  N   UNL     1       5.673   5.367  14.359  0.00  0.00    +0.000 NA
ATOM      5  C   UNL     1       6.136   4.052  14.592  0.00  0.00    +0.000 C 
ATOM      6  N   UNL     1       6.540   3.243  13.506  0.00  0.00    +0.000 N 
ATOM      7  N   UNL     1       6.216   3.598  15.789  0.00  0.00    +0.000 NA
ATOM      8  C   UNL     1       5.780   4.307  16.985  0.00  0.00    +0.000 C 
ATOM      9  C   UNL     1       4.850   3.313  17.702  0.00  0.00    +0.000 C 
ATOM     10  C   UNL     1       7.005   4.581  17.867  0.00  0.00    +0.000 C 
ATOM     11  H   UNL     1       4.606   8.117  15.743  0.00  0.00    +0.000 HD
ATOM     12  H   UNL     1       5.052   7.825  14.053  0.00  0.00    +0.000 HD
ATOM     13  H   UNL     1       6.479   3.597  12.540  0.00  0.00    +0.000 HD
ATOM     14  H   UNL     1       6.870   2.279  13.666  0.00  0.00    +0.000 HD
ENDROOT
BRANCH   1  15
ATOM     15  O   UNL     1       4.805   6.506  17.622  0.00  0.00    +0.000 OA
BRANCH  15  16
ATOM     16  C   UNL     1       3.407   6.781  17.657  0.00  0.00    +0.000 C 
BRANCH  16  17
ATOM     17  C   UNL     1       2.783   5.766  18.600  0.00  0.00    +0.000 A 
ATOM     18  C   UNL     1       1.880   4.803  18.110  0.00  0.00    +0.000 A 
ATOM     19  C   UNL     1       1.324   3.849  18.968  0.00  0.00    +0.000 A 
ATOM     20  C   UNL     1       1.652   3.851  20.326  0.00  0.00    +0.000 A 
ATOM     21 CL   UNL     1       0.952   2.655  21.402  0.00  0.00    +0.000 Cl
ATOM     22  C   UNL     1       2.544   4.804  20.826  0.00  0.00    +0.000 A 
ATOM     23  C   UNL     1       3.115   5.749  19.969  0.00  0.00    +0.000 A 
ENDBRANCH  16  17
BRANCH  16  25
ATOM     24  C   UNL     1       1.568   8.566  17.723  0.00  0.00    +0.000 C 
ATOM     25  C   UNL     1       3.027   8.232  18.063  0.00  0.00    +0.000 C 
ENDBRANCH  16  25
ENDBRANCH  15  16
ENDBRANCH   1  15
TORSDOF 4
ENDMDL
MODEL 8
REMARK VINA RESULT:      -6.2      3.786      5.577
REMARK  Name = 
REMARK  7 active torsions:
REMARK  status: ('A' for Active; 'I' for Inactive)
REMARK    1  A    between atoms: C_1  and  C_2
REMARK    2  A    between atoms: C_2  and  C_3
REMARK    3  A    between atoms: C_3  and  O_4
REMARK    4  A    between atoms: C_3  and  C_15
REMARK    5  A    between atoms: O_4  and  N_5
REMARK    6  A    between atoms: C_12  and  C_13
REMARK    7  A    between atoms: C_12  and  C_14
REMARK                            x       y       z     vdW  Elec       q    Type
REMARK                         _______ _______ _______ _____ _____    ______ ____
ROOT
ATOM      1  N   UNL     1       3.182   4.353  18.896  0.00  0.00    +0.000 N 
ATOM      2  C   UNL     1       2.607   5.118  19.967  0.00  0.00    +0.000 C 
ATOM      3  N   UNL     1       2.480   6.528  19.866  0.00  0.00    +0.000 N 
ATOM      4  N   UNL     1       2.117   4.535  21.002  0.00  0.00    +0.000 NA
ATOM      5  C   UNL     1       2.077   3.126  21.121  0.00  0.00    +0.000 C 
ATOM      6  N   UNL     1       1.606   2.531  22.312  0.00  0.00    +0.000 N 
ATOM      7  N   UNL     1       2.443   2.386  20.140  0.00  0.00    +0.000 NA
ATOM      8  C   UNL     1       2.999   2.871  18.884  0.00  0.00    +0.000 C 
ATOM      9  C   UNL     1       4.306   2.079  18.711  0.00  0.00    +0.000 C 
ATOM     10  C   UNL     1       2.035   2.510  17.747  0.00  0.00    +0.000 C 
ATOM     11  H   UNL     1       2.804   7.040  19.035  0.00  0.00    +0.000 HD
ATOM     12  H   UNL     1       2.000   7.056  20.614  0.00  0.00    +0.000 HD
ATOM     13  H   UNL     1       1.310   3.117  23.107  0.00  0.00    +0.000 HD
ATOM     14  H   UNL     1       1.582   1.505  22.411  0.00  0.00    +0.000 HD
ENDROOT
BRANCH   1  15
ATOM     15  O   UNL     1       3.534   5.032  17.770  0.00  0.00    +0.000 OA
BRANCH  15  16
ATOM     16  C   UNL     1       4.924   5.341  17.730  0.00  0.00    +0.000 C 
BRANCH  16  17
ATOM     17  C   UNL     1       5.433   4.900  16.368  0.00  0.00    +0.000 A 
ATOM     18  C   UNL     1       4.606   4.153  15.508  0.00  0.00    +0.000 A 
ATOM     19  C   UNL     1       5.059   3.769  14.242  0.00  0.00    +0.000 A 
ATOM     20  C   UNL     1       6.347   4.114  13.824  0.00  0.00    +0.000 A 
ATOM     21 CL   UNL     1       6.915   3.629  12.237  0.00  0.00    +0.000 Cl
ATOM     22  C   UNL     1       7.180   4.852  14.669  0.00  0.00    +0.000 A 
ATOM     23  C   UNL     1       6.725   5.252  15.929  0.00  0.00    +0.000 A 
ENDBRANCH  16  17
BRANCH  16  25
ATOM     24  C   UNL     1       4.343   7.796  17.277  0.00  0.00    +0.000 C 
ATOM     25  C   UNL     1       5.281   6.827  18.009  0.00  0.00    +0.000 C 
ENDBRANCH  16  25
ENDBRANCH  15  16
ENDBRANCH   1  15
TORSDOF 4
ENDMDL
MODEL 9
REMARK VINA RESULT:      -6.2      1.592      3.866
REMARK  Name = 
REMARK  7 active torsions:
REMARK  status: ('A' for Active; 'I' for Inactive)
REMARK    1  A    between atoms: C_1  and  C_2
REMARK    2  A    between atoms: C_2  and  C_3
REMARK    3  A    between atoms: C_3  and  O_4
REMARK    4  A    between atoms: C_3  and  C_15
REMARK    5  A    between atoms: O_4  and  N_5
REMARK    6  A    between atoms: C_12  and  C_13
REMARK    7  A    between atoms: C_12  and  C_14
REMARK                            x       y       z     vdW  Elec       q    Type
REMARK                         _______ _______ _______ _____ _____    ______ ____
ROOT
ATOM      1  N   UNL     1       4.890   5.214  17.959  0.00  0.00    +0.000 N 
ATOM      2  C   UNL     1       5.217   4.420  19.110  0.00  0.00    +0.000 C 
ATOM      3  N   UNL     1       4.321   3.426  19.585  0.00  0.00    +0.000 N 
ATOM      4  N   UNL     1       6.361   4.532  19.683  0.00  0.00    +0.000 NA
ATOM      5  C   UNL     1       7.364   5.399  19.191  0.00  0.00    +0.000 C 
ATOM      6  N   UNL     1       8.576   5.552  19.901  0.00  0.00    +0.000 N 
ATOM      7  N   UNL     1       7.189   6.028  18.087  0.00  0.00    +0.000 NA
ATOM      8  C   UNL     1       5.969   6.001  17.292  0.00  0.00    +0.000 C 
ATOM      9  C   UNL     1       5.620   7.484  17.073  0.00  0.00    +0.000 C 
ATOM     10  C   UNL     1       6.279   5.349  15.938  0.00  0.00    +0.000 C 
ATOM     11  H   UNL     1       3.416   3.254  19.129  0.00  0.00    +0.000 HD
ATOM     12  H   UNL     1       4.601   2.814  20.370  0.00  0.00    +0.000 HD
ATOM     13  H   UNL     1       8.727   5.052  20.790  0.00  0.00    +0.000 HD
ATOM     14  H   UNL     1       9.309   6.189  19.555  0.00  0.00    +0.000 HD
ENDROOT
BRANCH   1  15
ATOM     15  O   UNL     1       3.725   4.924  17.318  0.00  0.00    +0.000 OA
BRANCH  15  16
ATOM     16  C   UNL     1       2.610   4.881  18.203  0.00  0.00    +0.000 C 
BRANCH  16  17
ATOM     17  C   UNL     1       2.271   6.320  18.553  0.00  0.00    +0.000 A 
ATOM     18  C   UNL     1       2.107   7.279  17.536  0.00  0.00    +0.000 A 
ATOM     19  C   UNL     1       1.768   8.599  17.851  0.00  0.00    +0.000 A 
ATOM     20  C   UNL     1       1.600   8.980  19.185  0.00  0.00    +0.000 A 
ATOM     21 CL   UNL     1       1.177  10.637  19.578  0.00  0.00    +0.000 Cl
ATOM     22  C   UNL     1       1.763   8.039  20.204  0.00  0.00    +0.000 A 
ATOM     23  C   UNL     1       2.087   6.715  19.893  0.00  0.00    +0.000 A 
ENDBRANCH  16  17
BRANCH  16  25
ATOM     24  C   UNL     1       0.916   2.999  18.606  0.00  0.00    +0.000 C 
ATOM     25  C   UNL     1       1.363   4.126  17.664  0.00  0.00    +0.000 C 
ENDBRANCH  16  25
ENDBRANCH  15  16
ENDBRANCH   1  15
TORSDOF 4
ENDMDL
