MODEL 1
REMARK VINA RESULT:      -6.5      0.000      0.000
REMARK  Name = 
REMARK  10 active torsions:
REMARK  status: ('A' for Active; 'I' for Inactive)
REMARK    1  A    between atoms: C_1  and  C_2
REMARK    2  A    between atoms: C_2  and  C_3
REMARK    3  A    between atoms: C_3  and  N_4
REMARK    4  A    between atoms: N_4  and  C_5
REMARK    5  A    between atoms: C_5  and  C_6
REMARK    6  A    between atoms: C_6  and  C_7
REMARK    7  A    between atoms: C_8  and  C_10
REMARK    8  A    between atoms: C_10  and  C_12
REMARK    9  A    between atoms: C_13  and  C_14
REMARK   10  A    between atoms: N_20  and  C_21
REMARK                            x       y       z     vdW  Elec       q    Type
REMARK                         _______ _______ _______ _____ _____    ______ ____
ROOT
ATOM      1  C   UNL     1      -1.952  12.364  19.207  0.00  0.00    +0.000 A 
ATOM      2  C   UNL     1      -2.981  12.619  20.134  0.00  0.00    +0.000 A 
ATOM      3  N   UNL     1      -4.171  12.286  19.496  0.00  0.00    +0.000 N 
ATOM      4  C   UNL     1      -5.524  12.474  19.984  0.00  0.00    +0.000 C 
ATOM      5  C   UNL     1      -3.929  11.738  18.248  0.00  0.00    +0.000 A 
ATOM      6  C   UNL     1      -4.820  11.197  17.300  0.00  0.00    +0.000 A 
ATOM      7  C   UNL     1      -4.296  10.715  16.100  0.00  0.00    +0.000 A 
ATOM      8  C   UNL     1      -2.935  10.783  15.861  0.00  0.00    +0.000 A 
ATOM      9  F   UNL     1      -2.448  10.311  14.705  0.00  0.00    +0.000 F 
ATOM     10  C   UNL     1      -2.057  11.319  16.800  0.00  0.00    +0.000 A 
ATOM     11  C   UNL     1      -2.556  11.803  18.029  0.00  0.00    +0.000 A 
ENDROOT
BRANCH   2  12
ATOM     12  C   UNL     1      -2.896  13.186  21.499  0.00  0.00    +0.000 A 
ATOM     13  C   UNL     1      -2.999  12.364  22.631  0.00  0.00    +0.000 A 
ATOM     14  C   UNL     1      -2.972  12.899  23.923  0.00  0.00    +0.000 A 
ATOM     15  C   UNL     1      -2.781  14.265  24.109  0.00  0.00    +0.000 A 
ATOM     16  C   UNL     1      -2.650  15.097  23.001  0.00  0.00    +0.000 A 
ATOM     17  C   UNL     1      -2.739  14.565  21.710  0.00  0.00    +0.000 A 
ENDBRANCH   2  12
BRANCH   1  18
ATOM     18  C   UNL     1      -0.515  12.596  19.419  0.00  0.00    +0.000 C 
ATOM     19  O   UNL     1       0.142  13.387  18.743  0.00  0.00    +0.000 OA
BRANCH  18  21
ATOM     20  N   UNL     1       0.660  10.490  20.221  0.00  0.00    +0.000 N 
ATOM     21  C   UNL     1       0.239  11.805  20.497  0.00  0.00    +0.000 C 
ATOM     22  O   UNL     1       0.430  12.376  21.568  0.00  0.00    +0.000 OA
BRANCH  20  23
ATOM     23  C   UNL     1       1.260   9.724  21.323  0.00  0.00    +0.000 C 
BRANCH  23  25
ATOM     24  C   UNL     1      -0.333   9.524  23.330  0.00  0.00    +0.000 C 
ATOM     25  C   UNL     1       0.311   8.837  22.136  0.00  0.00    +0.000 C 
ENDBRANCH  23  25
ENDBRANCH  20  23
BRANCH  20  26
ATOM     26  C   UNL     1       0.460   9.838  18.917  0.00  0.00    +0.000 C 
BRANCH  26  27
ATOM     27  C   UNL     1       1.698   9.709  18.019  0.00  0.00    +0.000 C 
ATOM     28  C   UNL     1       2.306   8.318  17.939  0.00  0.00    +0.000 C 
ENDBRANCH  26  27
ENDBRANCH  20  26
ENDBRANCH  18  21
ENDBRANCH   1  18
TORSDOF 7
ENDMDL
MODEL 2
REMARK VINA RESULT:      -6.5      1.771      4.899
REMARK  Name = 
REMARK  10 active torsions:
REMARK  status: ('A' for Active; 'I' for Inactive)
REMARK    1  A    between atoms: C_1  and  C_2
REMARK    2  A    between atoms: C_2  and  C_3
REMARK    3  A    between atoms: C_3  and  N_4
REMARK    4  A    between atoms: N_4  and  C_5
REMARK    5  A    between atoms: C_5  and  C_6
REMARK    6  A    between atoms: C_6  and  C_7
REMARK    7  A    between atoms: C_8  and  C_10
REMARK    8  A    between atoms: C_10  and  C_12
REMARK    9  A    between atoms: C_13  and  C_14
REMARK   10  A    between atoms: N_20  and  C_21
REMARK                            x       y       z     vdW  Elec       q    Type
REMARK                         _______ _______ _______ _____ _____    ______ ____
ROOT
ATOM      1  C   UNL     1      -0.778  11.337  20.250  0.00  0.00    +0.000 A 
ATOM      2  C   UNL     1      -0.845  11.306  21.657  0.00  0.00    +0.000 A 
ATOM      3  N   UNL     1      -0.107  10.197  22.057  0.00  0.00    +0.000 N 
ATOM      4  C   UNL     1       0.039   9.663  23.398  0.00  0.00    +0.000 C 
ATOM      5  C   UNL     1       0.503   9.589  20.974  0.00  0.00    +0.000 A 
ATOM      6  C   UNL     1       1.393   8.497  20.921  0.00  0.00    +0.000 A 
ATOM      7  C   UNL     1       1.853   8.080  19.672  0.00  0.00    +0.000 A 
ATOM      8  C   UNL     1       1.430   8.728  18.525  0.00  0.00    +0.000 A 
ATOM      9  F   UNL     1       1.887   8.317  17.334  0.00  0.00    +0.000 F 
ATOM     10  C   UNL     1       0.551   9.807  18.580  0.00  0.00    +0.000 A 
ATOM     11  C   UNL     1       0.077  10.260  19.831  0.00  0.00    +0.000 A 
ENDROOT
BRANCH   2  12
ATOM     12  C   UNL     1      -1.582  12.197  22.582  0.00  0.00    +0.000 A 
ATOM     13  C   UNL     1      -1.061  13.447  22.949  0.00  0.00    +0.000 A 
ATOM     14  C   UNL     1      -1.726  14.272  23.862  0.00  0.00    +0.000 A 
ATOM     15  C   UNL     1      -2.957  13.885  24.383  0.00  0.00    +0.000 A 
ATOM     16  C   UNL     1      -3.506  12.661  24.013  0.00  0.00    +0.000 A 
ATOM     17  C   UNL     1      -2.808  11.813  23.147  0.00  0.00    +0.000 A 
ENDBRANCH   2  12
BRANCH   1  18
ATOM     18  C   UNL     1      -1.436  12.316  19.371  0.00  0.00    +0.000 C 
ATOM     19  O   UNL     1      -0.814  13.161  18.728  0.00  0.00    +0.000 OA
BRANCH  18  21
ATOM     20  N   UNL     1      -3.589  11.714  18.163  0.00  0.00    +0.000 N 
ATOM     21  C   UNL     1      -2.966  12.340  19.259  0.00  0.00    +0.000 C 
ATOM     22  O   UNL     1      -3.575  12.925  20.152  0.00  0.00    +0.000 OA
BRANCH  20  23
ATOM     23  C   UNL     1      -5.044  11.873  18.026  0.00  0.00    +0.000 C 
BRANCH  23  25
ATOM     24  C   UNL     1      -7.121  11.195  19.381  0.00  0.00    +0.000 C 
ATOM     25  C   UNL     1      -5.910  10.737  18.582  0.00  0.00    +0.000 C 
ENDBRANCH  23  25
ENDBRANCH  20  23
BRANCH  20  26
ATOM     26  C   UNL     1      -2.845  10.981  17.126  0.00  0.00    +0.000 C 
BRANCH  26  27
ATOM     27  C   UNL     1      -3.533  10.840  15.761  0.00  0.00    +0.000 C 
ATOM     28  C   UNL     1      -2.772  10.024  14.727  0.00  0.00    +0.000 C 
ENDBRANCH  26  27
ENDBRANCH  20  26
ENDBRANCH  18  21
ENDBRANCH   1  18
TORSDOF 7
ENDMDL
MODEL 3
REMARK VINA RESULT:      -6.5      1.778      4.804
REMARK  Name = 
REMARK  10 active torsions:
REMARK  status: ('A' for Active; 'I' for Inactive)
REMARK    1  A    between atoms: C_1  and  C_2
REMARK    2  A    between atoms: C_2  and  C_3
REMARK    3  A    between atoms: C_3  and  N_4
REMARK    4  A    between atoms: N_4  and  C_5
REMARK    5  A    between atoms: C_5  and  C_6
REMARK    6  A    between atoms: C_6  and  C_7
REMARK    7  A    between atoms: C_8  and  C_10
REMARK    8  A    between atoms: C_10  and  C_12
REMARK    9  A    between atoms: C_13  and  C_14
REMARK   10  A    between atoms: N_20  and  C_21
REMARK                            x       y       z     vdW  Elec       q    Type
REMARK                         _______ _______ _______ _____ _____    ______ ____
ROOT
ATOM      1  C   UNL     1      -0.644  11.329  20.302  0.00  0.00    +0.000 A 
ATOM      2  C   UNL     1      -0.758  11.285  21.705  0.00  0.00    +0.000 A 
ATOM      3  N   UNL     1      -0.071  10.148  22.117  0.00  0.00    +0.000 N 
ATOM      4  C   UNL     1       0.013   9.595  23.455  0.00  0.00    +0.000 C 
ATOM      5  C   UNL     1       0.553   9.531  21.047  0.00  0.00    +0.000 A 
ATOM      6  C   UNL     1       1.408   8.411  21.010  0.00  0.00    +0.000 A 
ATOM      7  C   UNL     1       1.895   7.992  19.772  0.00  0.00    +0.000 A 
ATOM      8  C   UNL     1       1.532   8.665  18.619  0.00  0.00    +0.000 A 
ATOM      9  F   UNL     1       2.013   8.252  17.439  0.00  0.00    +0.000 F 
ATOM     10  C   UNL     1       0.687   9.772  18.658  0.00  0.00    +0.000 A 
ATOM     11  C   UNL     1       0.188  10.228  19.898  0.00  0.00    +0.000 A 
ENDROOT
BRANCH   2  12
ATOM     12  C   UNL     1      -1.495  12.191  22.616  0.00  0.00    +0.000 A 
ATOM     13  C   UNL     1      -2.766  11.850  23.102  0.00  0.00    +0.000 A 
ATOM     14  C   UNL     1      -3.489  12.724  23.921  0.00  0.00    +0.000 A 
ATOM     15  C   UNL     1      -2.929  13.933  24.317  0.00  0.00    +0.000 A 
ATOM     16  C   UNL     1      -1.658  14.281  23.869  0.00  0.00    +0.000 A 
ATOM     17  C   UNL     1      -0.964  13.431  23.001  0.00  0.00    +0.000 A 
ENDBRANCH   2  12
BRANCH   1  18
ATOM     18  C   UNL     1      -1.241  12.338  19.414  0.00  0.00    +0.000 C 
ATOM     19  O   UNL     1      -0.567  13.115  18.737  0.00  0.00    +0.000 OA
BRANCH  18  21
ATOM     20  N   UNL     1      -3.498  11.632  18.485  0.00  0.00    +0.000 N 
ATOM     21  C   UNL     1      -2.766  12.484  19.334  0.00  0.00    +0.000 C 
ATOM     22  O   UNL     1      -3.273  13.364  20.026  0.00  0.00    +0.000 OA
BRANCH  20  23
ATOM     23  C   UNL     1      -4.938  11.892  18.340  0.00  0.00    +0.000 C 
BRANCH  23  25
ATOM     24  C   UNL     1      -6.838  10.278  18.965  0.00  0.00    +0.000 C 
ATOM     25  C   UNL     1      -5.848  11.331  19.438  0.00  0.00    +0.000 C 
ENDBRANCH  23  25
ENDBRANCH  20  23
BRANCH  20  26
ATOM     26  C   UNL     1      -2.878  10.556  17.695  0.00  0.00    +0.000 C 
BRANCH  26  27
ATOM     27  C   UNL     1      -2.477  10.908  16.256  0.00  0.00    +0.000 C 
ATOM     28  C   UNL     1      -3.482  10.515  15.184  0.00  0.00    +0.000 C 
ENDBRANCH  26  27
ENDBRANCH  20  26
ENDBRANCH  18  21
ENDBRANCH   1  18
TORSDOF 7
ENDMDL
MODEL 4
REMARK VINA RESULT:      -6.4      0.616      1.236
REMARK  Name = 
REMARK  10 active torsions:
REMARK  status: ('A' for Active; 'I' for Inactive)
REMARK    1  A    between atoms: C_1  and  C_2
REMARK    2  A    between atoms: C_2  and  C_3
REMARK    3  A    between atoms: C_3  and  N_4
REMARK    4  A    between atoms: N_4  and  C_5
REMARK    5  A    between atoms: C_5  and  C_6
REMARK    6  A    between atoms: C_6  and  C_7
REMARK    7  A    between atoms: C_8  and  C_10
REMARK    8  A    between atoms: C_10  and  C_12
REMARK    9  A    between atoms: C_13  and  C_14
REMARK   10  A    between atoms: N_20  and  C_21
REMARK                            x       y       z     vdW  Elec       q    Type
REMARK                         _______ _______ _______ _____ _____    ______ ____
ROOT
ATOM      1  C   UNL     1      -2.148  12.424  19.529  0.00  0.00    +0.000 A 
ATOM      2  C   UNL     1      -3.229  12.680  20.394  0.00  0.00    +0.000 A 
ATOM      3  N   UNL     1      -4.381  12.352  19.687  0.00  0.00    +0.000 N 
ATOM      4  C   UNL     1      -5.760  12.543  20.095  0.00  0.00    +0.000 C 
ATOM      5  C   UNL     1      -4.067  11.808  18.454  0.00  0.00    +0.000 A 
ATOM      6  C   UNL     1      -4.903  11.272  17.452  0.00  0.00    +0.000 A 
ATOM      7  C   UNL     1      -4.311  10.793  16.284  0.00  0.00    +0.000 A 
ATOM      8  C   UNL     1      -2.938  10.858  16.126  0.00  0.00    +0.000 A 
ATOM      9  F   UNL     1      -2.385  10.388  14.998  0.00  0.00    +0.000 F 
ATOM     10  C   UNL     1      -2.114  11.388  17.116  0.00  0.00    +0.000 A 
ATOM     11  C   UNL     1      -2.683  11.869  18.316  0.00  0.00    +0.000 A 
ENDROOT
BRANCH   2  12
ATOM     12  C   UNL     1      -3.223  13.242  21.765  0.00  0.00    +0.000 A 
ATOM     13  C   UNL     1      -3.014  14.612  21.983  0.00  0.00    +0.000 A 
ATOM     14  C   UNL     1      -2.955  15.141  23.277  0.00  0.00    +0.000 A 
ATOM     15  C   UNL     1      -3.161  14.316  24.378  0.00  0.00    +0.000 A 
ATOM     16  C   UNL     1      -3.396  12.958  24.185  0.00  0.00    +0.000 A 
ATOM     17  C   UNL     1      -3.394  12.423  22.892  0.00  0.00    +0.000 A 
ENDBRANCH   2  12
BRANCH   1  18
ATOM     18  C   UNL     1      -0.725  12.651  19.826  0.00  0.00    +0.000 C 
ATOM     19  O   UNL     1      -0.064  13.540  19.291  0.00  0.00    +0.000 OA
BRANCH  18  21
ATOM     20  N   UNL     1       0.523  10.502  20.357  0.00  0.00    +0.000 N 
ATOM     21  C   UNL     1       0.009  11.731  20.812  0.00  0.00    +0.000 C 
ATOM     22  O   UNL     1       0.100  12.127  21.971  0.00  0.00    +0.000 OA
BRANCH  20  23
ATOM     23  C   UNL     1       1.101   9.596  21.360  0.00  0.00    +0.000 C 
BRANCH  23  25
ATOM     24  C   UNL     1       1.508   7.093  20.940  0.00  0.00    +0.000 C 
ATOM     25  C   UNL     1       0.538   8.171  21.399  0.00  0.00    +0.000 C 
ENDBRANCH  23  25
ENDBRANCH  20  23
BRANCH  20  26
ATOM     26  C   UNL     1       0.440  10.064  18.955  0.00  0.00    +0.000 C 
BRANCH  26  27
ATOM     27  C   UNL     1       1.761  10.023  18.172  0.00  0.00    +0.000 C 
ATOM     28  C   UNL     1       2.215   8.641  17.730  0.00  0.00    +0.000 C 
ENDBRANCH  26  27
ENDBRANCH  20  26
ENDBRANCH  18  21
ENDBRANCH   1  18
TORSDOF 7
ENDMDL
MODEL 5
REMARK VINA RESULT:      -6.4      1.779      5.364
REMARK  Name = 
REMARK  10 active torsions:
REMARK  status: ('A' for Active; 'I' for Inactive)
REMARK    1  A    between atoms: C_1  and  C_2
REMARK    2  A    between atoms: C_2  and  C_3
REMARK    3  A    between atoms: C_3  and  N_4
REMARK    4  A    between atoms: N_4  and  C_5
REMARK    5  A    between atoms: C_5  and  C_6
REMARK    6  A    between atoms: C_6  and  C_7
REMARK    7  A    between atoms: C_8  and  C_10
REMARK    8  A    between atoms: C_10  and  C_12
REMARK    9  A    between atoms: C_13  and  C_14
REMARK   10  A    between atoms: N_20  and  C_21
REMARK                            x       y       z     vdW  Elec       q    Type
REMARK                         _______ _______ _______ _____ _____    ______ ____
ROOT
ATOM      1  C   UNL     1      -0.603  11.365  20.315  0.00  0.00    +0.000 A 
ATOM      2  C   UNL     1      -0.756  11.311  21.714  0.00  0.00    +0.000 A 
ATOM      3  N   UNL     1      -0.097  10.161  22.134  0.00  0.00    +0.000 N 
ATOM      4  C   UNL     1      -0.058   9.595  23.469  0.00  0.00    +0.000 C 
ATOM      5  C   UNL     1       0.547   9.544  21.076  0.00  0.00    +0.000 A 
ATOM      6  C   UNL     1       1.386   8.411  21.052  0.00  0.00    +0.000 A 
ATOM      7  C   UNL     1       1.901   7.995  19.824  0.00  0.00    +0.000 A 
ATOM      8  C   UNL     1       1.579   8.684  18.669  0.00  0.00    +0.000 A 
ATOM      9  F   UNL     1       2.086   8.274  17.498  0.00  0.00    +0.000 F 
ATOM     10  C   UNL     1       0.750   9.803  18.694  0.00  0.00    +0.000 A 
ATOM     11  C   UNL     1       0.223  10.256  19.924  0.00  0.00    +0.000 A 
ENDROOT
BRANCH   2  12
ATOM     12  C   UNL     1      -1.504  12.220  22.613  0.00  0.00    +0.000 A 
ATOM     13  C   UNL     1      -0.994  13.481  22.953  0.00  0.00    +0.000 A 
ATOM     14  C   UNL     1      -1.670  14.323  23.842  0.00  0.00    +0.000 A 
ATOM     15  C   UNL     1      -2.902  13.942  24.364  0.00  0.00    +0.000 A 
ATOM     16  C   UNL     1      -3.440  12.706  24.021  0.00  0.00    +0.000 A 
ATOM     17  C   UNL     1      -2.732  11.842  23.179  0.00  0.00    +0.000 A 
ENDBRANCH   2  12
BRANCH   1  18
ATOM     18  C   UNL     1      -1.160  12.391  19.420  0.00  0.00    +0.000 C 
ATOM     19  O   UNL     1      -0.826  13.574  19.470  0.00  0.00    +0.000 OA
BRANCH  18  21
ATOM     20  N   UNL     1      -3.588  11.985  18.788  0.00  0.00    +0.000 N 
ATOM     21  C   UNL     1      -2.236  12.012  18.394  0.00  0.00    +0.000 C 
ATOM     22  O   UNL     1      -1.846  11.738  17.261  0.00  0.00    +0.000 OA
BRANCH  20  23
ATOM     23  C   UNL     1      -4.570  11.491  17.812  0.00  0.00    +0.000 C 
BRANCH  23  25
ATOM     24  C   UNL     1      -7.096  11.806  18.167  0.00  0.00    +0.000 C 
ATOM     25  C   UNL     1      -5.875  10.925  18.383  0.00  0.00    +0.000 C 
ENDBRANCH  23  25
ENDBRANCH  20  23
BRANCH  20  26
ATOM     26  C   UNL     1      -4.039  12.357  20.138  0.00  0.00    +0.000 C 
BRANCH  26  27
ATOM     27  C   UNL     1      -4.488  13.812  20.333  0.00  0.00    +0.000 C 
ATOM     28  C   UNL     1      -5.633  14.018  21.312  0.00  0.00    +0.000 C 
ENDBRANCH  26  27
ENDBRANCH  20  26
ENDBRANCH  18  21
ENDBRANCH   1  18
TORSDOF 7
ENDMDL
MODEL 6
REMARK VINA RESULT:      -6.4      1.788      5.409
REMARK  Name = 
REMARK  10 active torsions:
REMARK  status: ('A' for Active; 'I' for Inactive)
REMARK    1  A    between atoms: C_1  and  C_2
REMARK    2  A    between atoms: C_2  and  C_3
REMARK    3  A    between atoms: C_3  and  N_4
REMARK    4  A    between atoms: N_4  and  C_5
REMARK    5  A    between atoms: C_5  and  C_6
REMARK    6  A    between atoms: C_6  and  C_7
REMARK    7  A    between atoms: C_8  and  C_10
REMARK    8  A    between atoms: C_10  and  C_12
REMARK    9  A    between atoms: C_13  and  C_14
REMARK   10  A    between atoms: N_20  and  C_21
REMARK                            x       y       z     vdW  Elec       q    Type
REMARK                         _______ _______ _______ _____ _____    ______ ____
ROOT
ATOM      1  C   UNL     1      -0.774  11.383  20.350  0.00  0.00    +0.000 A 
ATOM      2  C   UNL     1      -0.859  11.335  21.755  0.00  0.00    +0.000 A 
ATOM      3  N   UNL     1      -0.134  10.216  22.152  0.00  0.00    +0.000 N 
ATOM      4  C   UNL     1      -0.010   9.665  23.488  0.00  0.00    +0.000 C 
ATOM      5  C   UNL     1       0.485   9.617  21.069  0.00  0.00    +0.000 A 
ATOM      6  C   UNL     1       1.368   8.520  21.014  0.00  0.00    +0.000 A 
ATOM      7  C   UNL     1       1.842   8.115  19.766  0.00  0.00    +0.000 A 
ATOM      8  C   UNL     1       1.439   8.780  18.622  0.00  0.00    +0.000 A 
ATOM      9  F   UNL     1       1.908   8.380  17.432  0.00  0.00    +0.000 F 
ATOM     10  C   UNL     1       0.566   9.864  18.679  0.00  0.00    +0.000 A 
ATOM     11  C   UNL     1       0.079  10.305  19.929  0.00  0.00    +0.000 A 
ENDROOT
BRANCH   2  12
ATOM     12  C   UNL     1      -1.602  12.220  22.681  0.00  0.00    +0.000 A 
ATOM     13  C   UNL     1      -2.827  11.821  23.236  0.00  0.00    +0.000 A 
ATOM     14  C   UNL     1      -3.559  12.672  24.071  0.00  0.00    +0.000 A 
ATOM     15  C   UNL     1      -3.050  13.921  24.413  0.00  0.00    +0.000 A 
ATOM     16  C   UNL     1      -1.824  14.328  23.895  0.00  0.00    +0.000 A 
ATOM     17  C   UNL     1      -1.124  13.498  23.013  0.00  0.00    +0.000 A 
ENDBRANCH   2  12
BRANCH   1  18
ATOM     18  C   UNL     1      -1.413  12.377  19.474  0.00  0.00    +0.000 C 
ATOM     19  O   UNL     1      -1.139  13.576  19.513  0.00  0.00    +0.000 OA
BRANCH  18  21
ATOM     20  N   UNL     1      -3.849  11.936  18.900  0.00  0.00    +0.000 N 
ATOM     21  C   UNL     1      -2.503  11.941  18.486  0.00  0.00    +0.000 C 
ATOM     22  O   UNL     1      -2.128  11.605  17.365  0.00  0.00    +0.000 OA
BRANCH  20  23
ATOM     23  C   UNL     1      -4.844  11.387  17.967  0.00  0.00    +0.000 C 
BRANCH  23  25
ATOM     24  C   UNL     1      -7.105  12.541  17.567  0.00  0.00    +0.000 C 
ATOM     25  C   UNL     1      -5.649  12.404  17.151  0.00  0.00    +0.000 C 
ENDBRANCH  23  25
ENDBRANCH  20  23
BRANCH  20  26
ATOM     26  C   UNL     1      -4.283  12.382  20.234  0.00  0.00    +0.000 C 
BRANCH  26  27
ATOM     27  C   UNL     1      -4.682  13.859  20.364  0.00  0.00    +0.000 C 
ATOM     28  C   UNL     1      -5.604  14.186  21.528  0.00  0.00    +0.000 C 
ENDBRANCH  26  27
ENDBRANCH  20  26
ENDBRANCH  18  21
ENDBRANCH   1  18
TORSDOF 7
ENDMDL
MODEL 7
REMARK VINA RESULT:      -6.1      0.787      2.439
REMARK  Name = 
REMARK  10 active torsions:
REMARK  status: ('A' for Active; 'I' for Inactive)
REMARK    1  A    between atoms: C_1  and  C_2
REMARK    2  A    between atoms: C_2  and  C_3
REMARK    3  A    between atoms: C_3  and  N_4
REMARK    4  A    between atoms: N_4  and  C_5
REMARK    5  A    between atoms: C_5  and  C_6
REMARK    6  A    between atoms: C_6  and  C_7
REMARK    7  A    between atoms: C_8  and  C_10
REMARK    8  A    between atoms: C_10  and  C_12
REMARK    9  A    between atoms: C_13  and  C_14
REMARK   10  A    between atoms: N_20  and  C_21
REMARK                            x       y       z     vdW  Elec       q    Type
REMARK                         _______ _______ _______ _____ _____    ______ ____
ROOT
ATOM      1  C   UNL     1      -2.313  12.322  19.858  0.00  0.00    +0.000 A 
ATOM      2  C   UNL     1      -3.432  12.708  20.621  0.00  0.00    +0.000 A 
ATOM      3  N   UNL     1      -4.542  12.536  19.801  0.00  0.00    +0.000 N 
ATOM      4  C   UNL     1      -5.918  12.899  20.078  0.00  0.00    +0.000 C 
ATOM      5  C   UNL     1      -4.181  11.965  18.592  0.00  0.00    +0.000 A 
ATOM      6  C   UNL     1      -4.976  11.548  17.506  0.00  0.00    +0.000 A 
ATOM      7  C   UNL     1      -4.339  11.005  16.390  0.00  0.00    +0.000 A 
ATOM      8  C   UNL     1      -2.960  10.894  16.365  0.00  0.00    +0.000 A 
ATOM      9  F   UNL     1      -2.365  10.366  15.287  0.00  0.00    +0.000 F 
ATOM     10  C   UNL     1      -2.176  11.307  17.440  0.00  0.00    +0.000 A 
ATOM     11  C   UNL     1      -2.794  11.849  18.589  0.00  0.00    +0.000 A 
ENDROOT
BRANCH   2  12
ATOM     12  C   UNL     1      -3.488  13.255  21.997  0.00  0.00    +0.000 A 
ATOM     13  C   UNL     1      -3.384  14.634  22.231  0.00  0.00    +0.000 A 
ATOM     14  C   UNL     1      -3.383  15.153  23.530  0.00  0.00    +0.000 A 
ATOM     15  C   UNL     1      -3.545  14.304  24.620  0.00  0.00    +0.000 A 
ATOM     16  C   UNL     1      -3.676  12.934  24.411  0.00  0.00    +0.000 A 
ATOM     17  C   UNL     1      -3.615  12.414  23.113  0.00  0.00    +0.000 A 
ENDBRANCH   2  12
BRANCH   1  18
ATOM     18  C   UNL     1      -0.909  12.362  20.295  0.00  0.00    +0.000 C 
ATOM     19  O   UNL     1      -0.563  12.796  21.393  0.00  0.00    +0.000 OA
BRANCH  18  21
ATOM     20  N   UNL     1       0.650  10.556  19.420  0.00  0.00    +0.000 N 
ATOM     21  C   UNL     1       0.203  11.889  19.348  0.00  0.00    +0.000 C 
ATOM     22  O   UNL     1       0.655  12.724  18.568  0.00  0.00    +0.000 OA
BRANCH  20  23
ATOM     23  C   UNL     1       1.803  10.181  18.588  0.00  0.00    +0.000 C 
BRANCH  23  25
ATOM     24  C   UNL     1       2.585   7.775  18.136  0.00  0.00    +0.000 C 
ATOM     25  C   UNL     1       1.653   8.911  17.744  0.00  0.00    +0.000 C 
ENDBRANCH  23  25
ENDBRANCH  20  23
BRANCH  20  26
ATOM     26  C   UNL     1       0.067   9.559  20.332  0.00  0.00    +0.000 C 
BRANCH  26  27
ATOM     27  C   UNL     1       0.818   9.315  21.648  0.00  0.00    +0.000 C 
ATOM     28  C   UNL     1       0.033   9.618  22.915  0.00  0.00    +0.000 C 
ENDBRANCH  26  27
ENDBRANCH  20  26
ENDBRANCH  18  21
ENDBRANCH   1  18
TORSDOF 7
ENDMDL
MODEL 8
REMARK VINA RESULT:      -6.0      5.132      9.053
REMARK  Name = 
REMARK  10 active torsions:
REMARK  status: ('A' for Active; 'I' for Inactive)
REMARK    1  A    between atoms: C_1  and  C_2
REMARK    2  A    between atoms: C_2  and  C_3
REMARK    3  A    between atoms: C_3  and  N_4
REMARK    4  A    between atoms: N_4  and  C_5
REMARK    5  A    between atoms: C_5  and  C_6
REMARK    6  A    between atoms: C_6  and  C_7
REMARK    7  A    between atoms: C_8  and  C_10
REMARK    8  A    between atoms: C_10  and  C_12
REMARK    9  A    between atoms: C_13  and  C_14
REMARK   10  A    between atoms: N_20  and  C_21
REMARK                            x       y       z     vdW  Elec       q    Type
REMARK                         _______ _______ _______ _____ _____    ______ ____
ROOT
ATOM      1  C   UNL     1       3.208   7.405  17.887  0.00  0.00    +0.000 A 
ATOM      2  C   UNL     1       2.785   6.330  18.693  0.00  0.00    +0.000 A 
ATOM      3  N   UNL     1       1.940   6.872  19.655  0.00  0.00    +0.000 N 
ATOM      4  C   UNL     1       1.334   6.199  20.789  0.00  0.00    +0.000 C 
ATOM      5  C   UNL     1       1.734   8.222  19.430  0.00  0.00    +0.000 A 
ATOM      6  C   UNL     1       0.903   9.144  20.099  0.00  0.00    +0.000 A 
ATOM      7  C   UNL     1       0.896  10.467  19.660  0.00  0.00    +0.000 A 
ATOM      8  C   UNL     1       1.697  10.850  18.599  0.00  0.00    +0.000 A 
ATOM      9  F   UNL     1       1.674  12.125  18.187  0.00  0.00    +0.000 F 
ATOM     10  C   UNL     1       2.517   9.938  17.939  0.00  0.00    +0.000 A 
ATOM     11  C   UNL     1       2.536   8.588  18.352  0.00  0.00    +0.000 A 
ENDROOT
BRANCH   2  12
ATOM     12  C   UNL     1       3.169   4.901  18.629  0.00  0.00    +0.000 A 
ATOM     13  C   UNL     1       2.477   4.003  17.803  0.00  0.00    +0.000 A 
ATOM     14  C   UNL     1       2.801   2.642  17.777  0.00  0.00    +0.000 A 
ATOM     15  C   UNL     1       3.863   2.163  18.536  0.00  0.00    +0.000 A 
ATOM     16  C   UNL     1       4.581   3.040  19.344  0.00  0.00    +0.000 A 
ATOM     17  C   UNL     1       4.215   4.389  19.413  0.00  0.00    +0.000 A 
ENDBRANCH   2  12
BRANCH   1  18
ATOM     18  C   UNL     1       4.141   7.325  16.753  0.00  0.00    +0.000 C 
ATOM     19  O   UNL     1       3.792   7.507  15.587  0.00  0.00    +0.000 OA
BRANCH  18  21
ATOM     20  N   UNL     1       6.105   5.729  16.524  0.00  0.00    +0.000 N 
ATOM     21  C   UNL     1       5.612   6.961  16.994  0.00  0.00    +0.000 C 
ATOM     22  O   UNL     1       6.290   7.783  17.606  0.00  0.00    +0.000 OA
BRANCH  20  23
ATOM     23  C   UNL     1       7.481   5.364  16.890  0.00  0.00    +0.000 C 
BRANCH  23  25
ATOM     24  C   UNL     1       8.010   5.597  19.395  0.00  0.00    +0.000 C 
ATOM     25  C   UNL     1       7.666   4.666  18.242  0.00  0.00    +0.000 C 
ENDBRANCH  23  25
ENDBRANCH  20  23
BRANCH  20  26
ATOM     26  C   UNL     1       5.288   4.776  15.756  0.00  0.00    +0.000 C 
BRANCH  26  27
ATOM     27  C   UNL     1       6.050   3.691  14.981  0.00  0.00    +0.000 C 
ATOM     28  C   UNL     1       6.005   3.817  13.466  0.00  0.00    +0.000 C 
ENDBRANCH  26  27
ENDBRANCH  20  26
ENDBRANCH  18  21
ENDBRANCH   1  18
TORSDOF 7
ENDMDL
MODEL 9
REMARK VINA RESULT:      -5.9      1.708      5.123
REMARK  Name = 
REMARK  10 active torsions:
REMARK  status: ('A' for Active; 'I' for Inactive)
REMARK    1  A    between atoms: C_1  and  C_2
REMARK    2  A    between atoms: C_2  and  C_3
REMARK    3  A    between atoms: C_3  and  N_4
REMARK    4  A    between atoms: N_4  and  C_5
REMARK    5  A    between atoms: C_5  and  C_6
REMARK    6  A    between atoms: C_6  and  C_7
REMARK    7  A    between atoms: C_8  and  C_10
REMARK    8  A    between atoms: C_10  and  C_12
REMARK    9  A    between atoms: C_13  and  C_14
REMARK   10  A    between atoms: N_20  and  C_21
REMARK                            x       y       z     vdW  Elec       q    Type
REMARK                         _______ _______ _______ _____ _____    ______ ____
ROOT
ATOM      1  C   UNL     1      -0.472  11.449  20.383  0.00  0.00    +0.000 A 
ATOM      2  C   UNL     1      -0.675  11.356  21.774  0.00  0.00    +0.000 A 
ATOM      3  N   UNL     1      -0.088  10.161  22.175  0.00  0.00    +0.000 N 
ATOM      4  C   UNL     1      -0.123   9.550  23.490  0.00  0.00    +0.000 C 
ATOM      5  C   UNL     1       0.561   9.548  21.117  0.00  0.00    +0.000 A 
ATOM      6  C   UNL     1       1.343   8.376  21.080  0.00  0.00    +0.000 A 
ATOM      7  C   UNL     1       1.878   7.976  19.856  0.00  0.00    +0.000 A 
ATOM      8  C   UNL     1       1.630   8.719  18.715  0.00  0.00    +0.000 A 
ATOM      9  F   UNL     1       2.156   8.323  17.548  0.00  0.00    +0.000 F 
ATOM     10  C   UNL     1       0.857   9.877  18.754  0.00  0.00    +0.000 A 
ATOM     11  C   UNL     1       0.312  10.314  19.981  0.00  0.00    +0.000 A 
ENDROOT
BRANCH   2  12
ATOM     12  C   UNL     1      -1.408  12.271  22.680  0.00  0.00    +0.000 A 
ATOM     13  C   UNL     1      -2.677  11.935  23.174  0.00  0.00    +0.000 A 
ATOM     14  C   UNL     1      -3.396  12.817  23.988  0.00  0.00    +0.000 A 
ATOM     15  C   UNL     1      -2.834  14.030  24.370  0.00  0.00    +0.000 A 
ATOM     16  C   UNL     1      -1.565  14.374  23.913  0.00  0.00    +0.000 A 
ATOM     17  C   UNL     1      -0.874  13.515  23.051  0.00  0.00    +0.000 A 
ENDBRANCH   2  12
BRANCH   1  18
ATOM     18  C   UNL     1      -0.947  12.532  19.507  0.00  0.00    +0.000 C 
ATOM     19  O   UNL     1      -0.578  13.699  19.628  0.00  0.00    +0.000 OA
BRANCH  18  21
ATOM     20  N   UNL     1      -3.348  12.225  18.735  0.00  0.00    +0.000 N 
ATOM     21  C   UNL     1      -1.978  12.234  18.411  0.00  0.00    +0.000 C 
ATOM     22  O   UNL     1      -1.537  12.007  17.286  0.00  0.00    +0.000 OA
BRANCH  20  23
ATOM     23  C   UNL     1      -4.291  11.807  17.687  0.00  0.00    +0.000 C 
BRANCH  23  25
ATOM     24  C   UNL     1      -3.502   9.363  17.770  0.00  0.00    +0.000 C 
ATOM     25  C   UNL     1      -4.676  10.324  17.666  0.00  0.00    +0.000 C 
ENDBRANCH  23  25
ENDBRANCH  20  23
BRANCH  20  26
ATOM     26  C   UNL     1      -3.859  12.541  20.079  0.00  0.00    +0.000 C 
BRANCH  26  27
ATOM     27  C   UNL     1      -5.308  13.042  20.159  0.00  0.00    +0.000 C 
ATOM     28  C   UNL     1      -6.278  12.122  20.885  0.00  0.00    +0.000 C 
ENDBRANCH  26  27
ENDBRANCH  20  26
ENDBRANCH  18  21
ENDBRANCH   1  18
TORSDOF 7
ENDMDL
