MODEL 1
REMARK VINA RESULT:      -8.0      0.000      0.000
REMARK  Name = 
REMARK  6 active torsions:
REMARK  status: ('A' for Active; 'I' for Inactive)
REMARK    1  A    between atoms: C_2  and  C_3
REMARK    2  A    between atoms: N_5  and  C_6
REMARK    3  A    between atoms: C_9  and  C_10
REMARK    4  A    between atoms: C_10  and  O_12
REMARK    5  A    between atoms: C_13  and  O_14
REMARK    6  A    between atoms: C_17  and  C_18
REMARK                            x       y       z     vdW  Elec       q    Type
REMARK                         _______ _______ _______ _____ _____    ______ ____
ROOT
ATOM      1  C   UNL     1       2.720   4.953  19.953  0.00  0.00    +0.000 A 
ATOM      2  C   UNL     1       1.881   5.871  20.555  0.00  0.00    +0.000 A 
ATOM      3  N   UNL     1       2.084   7.113  19.990  0.00  0.00    +0.000 N 
ATOM      4  C   UNL     1       3.056   6.956  19.020  0.00  0.00    +0.000 A 
ATOM      5  C   UNL     1       3.495   5.643  18.983  0.00  0.00    +0.000 A 
ENDROOT
BRANCH   5   6
ATOM      6  C   UNL     1       4.549   5.176  18.081  0.00  0.00    +0.000 A 
ATOM      7  C   UNL     1       4.238   4.700  16.794  0.00  0.00    +0.000 A 
ATOM      8  C   UNL     1       5.237   4.223  15.925  0.00  0.00    +0.000 A 
ATOM      9  C   UNL     1       6.575   4.225  16.316  0.00  0.00    +0.000 A 
ATOM     10  C   UNL     1       6.872   4.703  17.573  0.00  0.00    +0.000 A 
ATOM     11  C   UNL     1       5.897   5.163  18.435  0.00  0.00    +0.000 A 
ATOM     12  O   UNL     1       6.438   5.563  19.624  0.00  0.00    +0.000 OA
ATOM     13  C   UNL     1       7.841   5.320  19.401  0.00  0.00    +0.000 C 
ATOM     14  O   UNL     1       8.124   4.769  18.103  0.00  0.00    +0.000 OA
ENDBRANCH   5   6
BRANCH   3  15
ATOM     15  C   UNL     1       1.428   8.334  20.346  0.00  0.00    +0.000 A 
ATOM     16  C   UNL     1       1.126   9.292  19.364  0.00  0.00    +0.000 A 
ATOM     17  C   UNL     1       0.518  10.504  19.709  0.00  0.00    +0.000 A 
ATOM     18  C   UNL     1       0.201  10.784  21.040  0.00  0.00    +0.000 A 
ATOM     19  C   UNL     1       0.504   9.836  22.019  0.00  0.00    +0.000 A 
ATOM     20  C   UNL     1       1.094   8.612  21.682  0.00  0.00    +0.000 A 
BRANCH  18  21
ATOM     21  C   UNL     1      -0.416  12.100  21.334  0.00  0.00    +0.000 C 
ATOM     22  O   UNL     1      -0.019  12.830  22.224  0.00  0.00    +0.000 OA
BRANCH  21  23
ATOM     23  O   UNL     1      -1.439  12.421  20.515  0.00  0.00    +0.000 OA
ATOM     24  H   UNL     1      -1.996  11.661  20.248  0.00  0.00    +0.000 HD
ENDBRANCH  21  23
ENDBRANCH  18  21
BRANCH  19  25
ATOM     25  O   UNL     1       0.254  10.056  23.345  0.00  0.00    +0.000 OA
ATOM     26  H   UNL     1      -0.181  10.931  23.417  0.00  0.00    +0.000 HD
ENDBRANCH  19  25
ENDBRANCH   3  15
BRANCH   1  28
ATOM     27  N   UNL     1       2.777   2.447  20.613  0.00  0.00    +0.000 NA
ATOM     28  C   UNL     1       2.758   3.566  20.303  0.00  0.00    +0.000 C 
ENDBRANCH   1  28
TORSDOF 6
ENDMDL
MODEL 2
REMARK VINA RESULT:      -7.8      1.062      1.062
REMARK  Name = 
REMARK  6 active torsions:
REMARK  status: ('A' for Active; 'I' for Inactive)
REMARK    1  A    between atoms: C_2  and  C_3
REMARK    2  A    between atoms: N_5  and  C_6
REMARK    3  A    between atoms: C_9  and  C_10
REMARK    4  A    between atoms: C_10  and  O_12
REMARK    5  A    between atoms: C_13  and  O_14
REMARK    6  A    between atoms: C_17  and  C_18
REMARK                            x       y       z     vdW  Elec       q    Type
REMARK                         _______ _______ _______ _____ _____    ______ ____
ROOT
ATOM      1  C   UNL     1       3.034   5.011  19.654  0.00  0.00    +0.000 A 
ATOM      2  C   UNL     1       2.218   5.839  20.401  0.00  0.00    +0.000 A 
ATOM      3  N   UNL     1       2.206   7.098  19.837  0.00  0.00    +0.000 N 
ATOM      4  C   UNL     1       3.020   7.042  18.720  0.00  0.00    +0.000 A 
ATOM      5  C   UNL     1       3.574   5.779  18.588  0.00  0.00    +0.000 A 
ENDROOT
BRANCH   5   6
ATOM      6  C   UNL     1       4.509   5.423  17.520  0.00  0.00    +0.000 A 
ATOM      7  C   UNL     1       4.224   4.367  16.634  0.00  0.00    +0.000 A 
ATOM      8  C   UNL     1       5.126   3.995  15.619  0.00  0.00    +0.000 A 
ATOM      9  C   UNL     1       6.328   4.682  15.454  0.00  0.00    +0.000 A 
ATOM     10  C   UNL     1       6.593   5.721  16.318  0.00  0.00    +0.000 A 
ATOM     11  C   UNL     1       5.719   6.085  17.323  0.00  0.00    +0.000 A 
ATOM     12  O   UNL     1       6.215   7.126  18.055  0.00  0.00    +0.000 OA
ATOM     13  C   UNL     1       7.469   7.376  17.392  0.00  0.00    +0.000 C 
ATOM     14  O   UNL     1       7.719   6.485  16.291  0.00  0.00    +0.000 OA
ENDBRANCH   5   6
BRANCH   3  15
ATOM     15  C   UNL     1       1.500   8.246  20.317  0.00  0.00    +0.000 A 
ATOM     16  C   UNL     1       1.058   9.235  19.423  0.00  0.00    +0.000 A 
ATOM     17  C   UNL     1       0.398  10.378  19.888  0.00  0.00    +0.000 A 
ATOM     18  C   UNL     1       0.170  10.557  21.255  0.00  0.00    +0.000 A 
ATOM     19  C   UNL     1       0.612   9.579  22.146  0.00  0.00    +0.000 A 
ATOM     20  C   UNL     1       1.255   8.421  21.689  0.00  0.00    +0.000 A 
BRANCH  18  21
ATOM     21  C   UNL     1      -0.508  11.806  21.676  0.00  0.00    +0.000 C 
ATOM     22  O   UNL     1      -0.286  12.349  22.743  0.00  0.00    +0.000 OA
BRANCH  21  23
ATOM     23  O   UNL     1      -1.375  12.294  20.765  0.00  0.00    +0.000 OA
ATOM     24  H   UNL     1      -1.234  11.960  19.855  0.00  0.00    +0.000 HD
ENDBRANCH  21  23
ENDBRANCH  18  21
BRANCH  19  25
ATOM     25  O   UNL     1       0.454   9.703  23.499  0.00  0.00    +0.000 OA
ATOM     26  H   UNL     1      -0.079  10.509  23.655  0.00  0.00    +0.000 HD
ENDBRANCH  19  25
ENDBRANCH   3  15
BRANCH   1  28
ATOM     27  N   UNL     1       3.476   2.517  20.206  0.00  0.00    +0.000 NA
ATOM     28  C   UNL     1       3.264   3.633  19.966  0.00  0.00    +0.000 C 
ENDBRANCH   1  28
TORSDOF 6
ENDMDL
MODEL 3
REMARK VINA RESULT:      -7.7      0.565      1.463
REMARK  Name = 
REMARK  6 active torsions:
REMARK  status: ('A' for Active; 'I' for Inactive)
REMARK    1  A    between atoms: C_2  and  C_3
REMARK    2  A    between atoms: N_5  and  C_6
REMARK    3  A    between atoms: C_9  and  C_10
REMARK    4  A    between atoms: C_10  and  O_12
REMARK    5  A    between atoms: C_13  and  O_14
REMARK    6  A    between atoms: C_17  and  C_18
REMARK                            x       y       z     vdW  Elec       q    Type
REMARK                         _______ _______ _______ _____ _____    ______ ____
ROOT
ATOM      1  C   UNL     1       2.670   4.947  20.000  0.00  0.00    +0.000 A 
ATOM      2  C   UNL     1       1.844   5.864  20.622  0.00  0.00    +0.000 A 
ATOM      3  N   UNL     1       2.057   7.113  20.077  0.00  0.00    +0.000 N 
ATOM      4  C   UNL     1       3.022   6.962  19.098  0.00  0.00    +0.000 A 
ATOM      5  C   UNL     1       3.447   5.645  19.037  0.00  0.00    +0.000 A 
ENDROOT
BRANCH   5   6
ATOM      6  C   UNL     1       4.490   5.181  18.121  0.00  0.00    +0.000 A 
ATOM      7  C   UNL     1       4.162   4.693  16.842  0.00  0.00    +0.000 A 
ATOM      8  C   UNL     1       5.152   4.219  15.960  0.00  0.00    +0.000 A 
ATOM      9  C   UNL     1       6.496   4.238  16.329  0.00  0.00    +0.000 A 
ATOM     10  C   UNL     1       6.809   4.728  17.577  0.00  0.00    +0.000 A 
ATOM     11  C   UNL     1       5.844   5.185  18.452  0.00  0.00    +0.000 A 
ATOM     12  O   UNL     1       6.401   5.598  19.629  0.00  0.00    +0.000 OA
ATOM     13  C   UNL     1       7.802   5.367  19.384  0.00  0.00    +0.000 C 
ATOM     14  O   UNL     1       8.069   4.810  18.086  0.00  0.00    +0.000 OA
ENDBRANCH   5   6
BRANCH   3  15
ATOM     15  C   UNL     1       1.417   8.335  20.456  0.00  0.00    +0.000 A 
ATOM     16  C   UNL     1       1.061   8.566  21.795  0.00  0.00    +0.000 A 
ATOM     17  C   UNL     1       0.402   9.743  22.169  0.00  0.00    +0.000 A 
ATOM     18  C   UNL     1       0.082  10.710  21.212  0.00  0.00    +0.000 A 
ATOM     19  C   UNL     1       0.429  10.480  19.879  0.00  0.00    +0.000 A 
ATOM     20  C   UNL     1       1.107   9.316  19.499  0.00  0.00    +0.000 A 
BRANCH  18  21
ATOM     21  C   UNL     1      -0.642  11.917  21.676  0.00  0.00    +0.000 C 
ATOM     22  O   UNL     1      -1.268  12.640  20.923  0.00  0.00    +0.000 OA
BRANCH  21  23
ATOM     23  O   UNL     1      -0.561  12.127  23.006  0.00  0.00    +0.000 OA
ATOM     24  H   UNL     1      -0.684  11.322  23.550  0.00  0.00    +0.000 HD
ENDBRANCH  21  23
ENDBRANCH  18  21
BRANCH  19  25
ATOM     25  O   UNL     1       0.117  11.365  18.885  0.00  0.00    +0.000 OA
ATOM     26  H   UNL     1      -0.342  10.861  18.182  0.00  0.00    +0.000 HD
ENDBRANCH  19  25
ENDBRANCH   3  15
BRANCH   1  28
ATOM     27  N   UNL     1       2.697   2.419  20.573  0.00  0.00    +0.000 NA
ATOM     28  C   UNL     1       2.696   3.554  20.328  0.00  0.00    +0.000 C 
ENDBRANCH   1  28
TORSDOF 6
ENDMDL
MODEL 4
REMARK VINA RESULT:      -7.7      1.119      1.711
REMARK  Name = 
REMARK  6 active torsions:
REMARK  status: ('A' for Active; 'I' for Inactive)
REMARK    1  A    between atoms: C_2  and  C_3
REMARK    2  A    between atoms: N_5  and  C_6
REMARK    3  A    between atoms: C_9  and  C_10
REMARK    4  A    between atoms: C_10  and  O_12
REMARK    5  A    between atoms: C_13  and  O_14
REMARK    6  A    between atoms: C_17  and  C_18
REMARK                            x       y       z     vdW  Elec       q    Type
REMARK                         _______ _______ _______ _____ _____    ______ ____
ROOT
ATOM      1  C   UNL     1       2.891   4.656  18.811  0.00  0.00    +0.000 A 
ATOM      2  C   UNL     1       2.072   5.539  19.488  0.00  0.00    +0.000 A 
ATOM      3  N   UNL     1       2.365   6.828  19.092  0.00  0.00    +0.000 N 
ATOM      4  C   UNL     1       3.373   6.736  18.150  0.00  0.00    +0.000 A 
ATOM      5  C   UNL     1       3.746   5.414  17.968  0.00  0.00    +0.000 A 
ENDROOT
BRANCH   5   6
ATOM      6  C   UNL     1       4.817   5.002  17.058  0.00  0.00    +0.000 A 
ATOM      7  C   UNL     1       4.553   4.760  15.697  0.00  0.00    +0.000 A 
ATOM      8  C   UNL     1       5.567   4.338  14.816  0.00  0.00    +0.000 A 
ATOM      9  C   UNL     1       6.873   4.163  15.272  0.00  0.00    +0.000 A 
ATOM     10  C   UNL     1       7.124   4.414  16.602  0.00  0.00    +0.000 A 
ATOM     11  C   UNL     1       6.133   4.818  17.475  0.00  0.00    +0.000 A 
ATOM     12  O   UNL     1       6.627   4.980  18.738  0.00  0.00    +0.000 OA
ATOM     13  C   UNL     1       8.017   4.654  18.553  0.00  0.00    +0.000 C 
ATOM     14  O   UNL     1       8.340   4.287  17.200  0.00  0.00    +0.000 OA
ENDBRANCH   5   6
BRANCH   3  15
ATOM     15  C   UNL     1       1.756   8.031  19.570  0.00  0.00    +0.000 A 
ATOM     16  C   UNL     1       1.393   8.156  20.921  0.00  0.00    +0.000 A 
ATOM     17  C   UNL     1       0.764   9.316  21.389  0.00  0.00    +0.000 A 
ATOM     18  C   UNL     1       0.484  10.371  20.517  0.00  0.00    +0.000 A 
ATOM     19  C   UNL     1       0.839  10.247  19.173  0.00  0.00    +0.000 A 
ATOM     20  C   UNL     1       1.487   9.099  18.699  0.00  0.00    +0.000 A 
BRANCH  18  21
ATOM     21  C   UNL     1      -0.210  11.555  21.078  0.00  0.00    +0.000 C 
ATOM     22  O   UNL     1       0.247  12.212  21.995  0.00  0.00    +0.000 OA
BRANCH  21  23
ATOM     23  O   UNL     1      -1.377  11.847  20.468  0.00  0.00    +0.000 OA
ATOM     24  H   UNL     1      -1.424  11.566  19.531  0.00  0.00    +0.000 HD
ENDBRANCH  21  23
ENDBRANCH  18  21
BRANCH  19  25
ATOM     25  O   UNL     1       0.564  11.223  18.256  0.00  0.00    +0.000 OA
ATOM     26  H   UNL     1       1.031  12.033  18.548  0.00  0.00    +0.000 HD
ENDBRANCH  19  25
ENDBRANCH   3  15
BRANCH   1  28
ATOM     27  N   UNL     1       2.820   2.087  19.152  0.00  0.00    +0.000 NA
ATOM     28  C   UNL     1       2.841   3.236  18.986  0.00  0.00    +0.000 C 
ENDBRANCH   1  28
TORSDOF 6
ENDMDL
MODEL 5
REMARK VINA RESULT:      -7.7      2.518      8.516
REMARK  Name = 
REMARK  6 active torsions:
REMARK  status: ('A' for Active; 'I' for Inactive)
REMARK    1  A    between atoms: C_2  and  C_3
REMARK    2  A    between atoms: N_5  and  C_6
REMARK    3  A    between atoms: C_9  and  C_10
REMARK    4  A    between atoms: C_10  and  O_12
REMARK    5  A    between atoms: C_13  and  O_14
REMARK    6  A    between atoms: C_17  and  C_18
REMARK                            x       y       z     vdW  Elec       q    Type
REMARK                         _______ _______ _______ _____ _____    ______ ____
ROOT
ATOM      1  C   UNL     1       1.235   8.489  20.073  0.00  0.00    +0.000 A 
ATOM      2  C   UNL     1       2.109   7.444  19.843  0.00  0.00    +0.000 A 
ATOM      3  N   UNL     1       2.774   7.660  18.654  0.00  0.00    +0.000 N 
ATOM      4  C   UNL     1       2.308   8.860  18.148  0.00  0.00    +0.000 A 
ATOM      5  C   UNL     1       1.336   9.391  18.980  0.00  0.00    +0.000 A 
ENDROOT
BRANCH   5   6
ATOM      6  C   UNL     1       0.629  10.639  18.691  0.00  0.00    +0.000 A 
ATOM      7  C   UNL     1       1.275  11.882  18.826  0.00  0.00    +0.000 A 
ATOM      8  C   UNL     1       0.599  13.092  18.577  0.00  0.00    +0.000 A 
ATOM      9  C   UNL     1      -0.734  13.087  18.170  0.00  0.00    +0.000 A 
ATOM     10  C   UNL     1      -1.354  11.866  18.029  0.00  0.00    +0.000 A 
ATOM     11  C   UNL     1      -0.703  10.675  18.281  0.00  0.00    +0.000 A 
ATOM     12  O   UNL     1      -1.534   9.609  18.091  0.00  0.00    +0.000 OA
ATOM     13  C   UNL     1      -2.752  10.259  17.680  0.00  0.00    +0.000 C 
ATOM     14  O   UNL     1      -2.648  11.692  17.644  0.00  0.00    +0.000 OA
ENDBRANCH   5   6
BRANCH   3  15
ATOM     15  C   UNL     1       3.748   6.804  18.049  0.00  0.00    +0.000 A 
ATOM     16  C   UNL     1       4.199   7.051  16.741  0.00  0.00    +0.000 A 
ATOM     17  C   UNL     1       5.124   6.198  16.130  0.00  0.00    +0.000 A 
ATOM     18  C   UNL     1       5.616   5.081  16.810  0.00  0.00    +0.000 A 
ATOM     19  C   UNL     1       5.166   4.830  18.107  0.00  0.00    +0.000 A 
ATOM     20  C   UNL     1       4.256   5.689  18.735  0.00  0.00    +0.000 A 
BRANCH  18  21
ATOM     21  C   UNL     1       6.571   4.207  16.088  0.00  0.00    +0.000 C 
ATOM     22  O   UNL     1       6.302   3.671  15.028  0.00  0.00    +0.000 OA
BRANCH  21  23
ATOM     23  O   UNL     1       7.767   4.078  16.699  0.00  0.00    +0.000 OA
ATOM     24  H   UNL     1       8.298   4.901  16.723  0.00  0.00    +0.000 HD
ENDBRANCH  21  23
ENDBRANCH  18  21
BRANCH  19  25
ATOM     25  O   UNL     1       5.576   3.738  18.819  0.00  0.00    +0.000 OA
ATOM     26  H   UNL     1       5.109   3.761  19.680  0.00  0.00    +0.000 HD
ENDBRANCH  19  25
ENDBRANCH   3  15
BRANCH   1  28
ATOM     27  N   UNL     1      -0.279   8.674  22.169  0.00  0.00    +0.000 NA
ATOM     28  C   UNL     1       0.392   8.577  21.227  0.00  0.00    +0.000 C 
ENDBRANCH   1  28
TORSDOF 6
ENDMDL
MODEL 6
REMARK VINA RESULT:      -7.7      2.213      8.302
REMARK  Name = 
REMARK  6 active torsions:
REMARK  status: ('A' for Active; 'I' for Inactive)
REMARK    1  A    between atoms: C_2  and  C_3
REMARK    2  A    between atoms: N_5  and  C_6
REMARK    3  A    between atoms: C_9  and  C_10
REMARK    4  A    between atoms: C_10  and  O_12
REMARK    5  A    between atoms: C_13  and  O_14
REMARK    6  A    between atoms: C_17  and  C_18
REMARK                            x       y       z     vdW  Elec       q    Type
REMARK                         _______ _______ _______ _____ _____    ______ ____
ROOT
ATOM      1  C   UNL     1       1.236   8.397  20.177  0.00  0.00    +0.000 A 
ATOM      2  C   UNL     1       2.217   7.443  19.986  0.00  0.00    +0.000 A 
ATOM      3  N   UNL     1       2.720   7.557  18.706  0.00  0.00    +0.000 N 
ATOM      4  C   UNL     1       2.044   8.602  18.103  0.00  0.00    +0.000 A 
ATOM      5  C   UNL     1       1.099   9.130  18.968  0.00  0.00    +0.000 A 
ENDROOT
BRANCH   5   6
ATOM      6  C   UNL     1       0.201  10.226  18.601  0.00  0.00    +0.000 A 
ATOM      7  C   UNL     1      -1.008   9.972  17.928  0.00  0.00    +0.000 A 
ATOM      8  C   UNL     1      -1.870  11.017  17.545  0.00  0.00    +0.000 A 
ATOM      9  C   UNL     1      -1.551  12.341  17.841  0.00  0.00    +0.000 A 
ATOM     10  C   UNL     1      -0.371  12.580  18.511  0.00  0.00    +0.000 A 
ATOM     11  C   UNL     1       0.484  11.561  18.880  0.00  0.00    +0.000 A 
ATOM     12  O   UNL     1       1.592  12.053  19.511  0.00  0.00    +0.000 OA
ATOM     13  C   UNL     1       1.325  13.468  19.507  0.00  0.00    +0.000 C 
ATOM     14  O   UNL     1       0.083  13.811  18.869  0.00  0.00    +0.000 OA
ENDBRANCH   5   6
BRANCH   3  15
ATOM     15  C   UNL     1       3.734   6.744  18.108  0.00  0.00    +0.000 A 
ATOM     16  C   UNL     1       4.218   7.040  16.822  0.00  0.00    +0.000 A 
ATOM     17  C   UNL     1       5.184   6.229  16.216  0.00  0.00    +0.000 A 
ATOM     18  C   UNL     1       5.684   5.106  16.880  0.00  0.00    +0.000 A 
ATOM     19  C   UNL     1       5.202   4.806  18.155  0.00  0.00    +0.000 A 
ATOM     20  C   UNL     1       4.250   5.623  18.778  0.00  0.00    +0.000 A 
BRANCH  18  21
ATOM     21  C   UNL     1       6.684   4.279  16.164  0.00  0.00    +0.000 C 
ATOM     22  O   UNL     1       6.480   3.809  15.059  0.00  0.00    +0.000 OA
BRANCH  21  23
ATOM     23  O   UNL     1       7.841   4.112  16.837  0.00  0.00    +0.000 OA
ATOM     24  H   UNL     1       8.639   4.392  16.343  0.00  0.00    +0.000 HD
ENDBRANCH  21  23
ENDBRANCH  18  21
BRANCH  19  25
ATOM     25  O   UNL     1       5.620   3.705  18.849  0.00  0.00    +0.000 OA
ATOM     26  H   UNL     1       6.085   3.122  18.214  0.00  0.00    +0.000 HD
ENDBRANCH  19  25
ENDBRANCH   3  15
BRANCH   1  28
ATOM     27  N   UNL     1      -0.080   8.709  22.388  0.00  0.00    +0.000 NA
ATOM     28  C   UNL     1       0.512   8.554  21.402  0.00  0.00    +0.000 C 
ENDBRANCH   1  28
TORSDOF 6
ENDMDL
MODEL 7
REMARK VINA RESULT:      -7.7      2.827      8.348
REMARK  Name = 
REMARK  6 active torsions:
REMARK  status: ('A' for Active; 'I' for Inactive)
REMARK    1  A    between atoms: C_2  and  C_3
REMARK    2  A    between atoms: N_5  and  C_6
REMARK    3  A    between atoms: C_9  and  C_10
REMARK    4  A    between atoms: C_10  and  O_12
REMARK    5  A    between atoms: C_13  and  O_14
REMARK    6  A    between atoms: C_17  and  C_18
REMARK                            x       y       z     vdW  Elec       q    Type
REMARK                         _______ _______ _______ _____ _____    ______ ____
ROOT
ATOM      1  C   UNL     1       0.636   9.113  21.454  0.00  0.00    +0.000 A 
ATOM      2  C   UNL     1       1.174   7.845  21.556  0.00  0.00    +0.000 A 
ATOM      3  N   UNL     1       1.643   7.448  20.321  0.00  0.00    +0.000 N 
ATOM      4  C   UNL     1       1.397   8.491  19.447  0.00  0.00    +0.000 A 
ATOM      5  C   UNL     1       0.751   9.528  20.101  0.00  0.00    +0.000 A 
ENDROOT
BRANCH   5   6
ATOM      6  C   UNL     1       0.326  10.757  19.429  0.00  0.00    +0.000 A 
ATOM      7  C   UNL     1       1.104  11.927  19.507  0.00  0.00    +0.000 A 
ATOM      8  C   UNL     1       0.695  13.124  18.888  0.00  0.00    +0.000 A 
ATOM      9  C   UNL     1      -0.494  13.175  18.163  0.00  0.00    +0.000 A 
ATOM     10  C   UNL     1      -1.243  12.022  18.082  0.00  0.00    +0.000 A 
ATOM     11  C   UNL     1      -0.854  10.847  18.694  0.00  0.00    +0.000 A 
ATOM     12  O   UNL     1      -1.771   9.857  18.486  0.00  0.00    +0.000 OA
ATOM     13  C   UNL     1      -2.750  10.532  17.673  0.00  0.00    +0.000 C 
ATOM     14  O   UNL     1      -2.425  11.909  17.417  0.00  0.00    +0.000 OA
ENDBRANCH   5   6
BRANCH   3  15
ATOM     15  C   UNL     1       2.254   6.195  19.997  0.00  0.00    +0.000 A 
ATOM     16  C   UNL     1       2.925   6.025  18.775  0.00  0.00    +0.000 A 
ATOM     17  C   UNL     1       3.494   4.792  18.436  0.00  0.00    +0.000 A 
ATOM     18  C   UNL     1       3.401   3.705  19.309  0.00  0.00    +0.000 A 
ATOM     19  C   UNL     1       2.730   3.870  20.522  0.00  0.00    +0.000 A 
ATOM     20  C   UNL     1       2.175   5.105  20.879  0.00  0.00    +0.000 A 
BRANCH  18  21
ATOM     21  C   UNL     1       4.002   2.423  18.870  0.00  0.00    +0.000 C 
ATOM     22  O   UNL     1       3.660   1.850  17.851  0.00  0.00    +0.000 OA
BRANCH  21  23
ATOM     23  O   UNL     1       4.972   1.964  19.687  0.00  0.00    +0.000 OA
ATOM     24  H   UNL     1       4.649   1.402  20.421  0.00  0.00    +0.000 HD
ENDBRANCH  21  23
ENDBRANCH  18  21
BRANCH  19  25
ATOM     25  O   UNL     1       2.570   2.841  21.408  0.00  0.00    +0.000 OA
ATOM     26  H   UNL     1       2.613   3.226  22.308  0.00  0.00    +0.000 HD
ENDBRANCH  19  25
ENDBRANCH   3  15
BRANCH   1  28
ATOM     27  N   UNL     1      -0.381  10.420  23.449  0.00  0.00    +0.000 NA
ATOM     28  C   UNL     1       0.064   9.822  22.559  0.00  0.00    +0.000 C 
ENDBRANCH   1  28
TORSDOF 6
ENDMDL
MODEL 8
REMARK VINA RESULT:      -7.6      1.206      1.867
REMARK  Name = 
REMARK  6 active torsions:
REMARK  status: ('A' for Active; 'I' for Inactive)
REMARK    1  A    between atoms: C_2  and  C_3
REMARK    2  A    between atoms: N_5  and  C_6
REMARK    3  A    between atoms: C_9  and  C_10
REMARK    4  A    between atoms: C_10  and  O_12
REMARK    5  A    between atoms: C_13  and  O_14
REMARK    6  A    between atoms: C_17  and  C_18
REMARK                            x       y       z     vdW  Elec       q    Type
REMARK                         _______ _______ _______ _____ _____    ______ ____
ROOT
ATOM      1  C   UNL     1       3.085   4.989  19.536  0.00  0.00    +0.000 A 
ATOM      2  C   UNL     1       2.250   5.862  20.209  0.00  0.00    +0.000 A 
ATOM      3  N   UNL     1       2.258   7.084  19.569  0.00  0.00    +0.000 N 
ATOM      4  C   UNL     1       3.102   6.960  18.481  0.00  0.00    +0.000 A 
ATOM      5  C   UNL     1       3.656   5.691  18.440  0.00  0.00    +0.000 A 
ENDROOT
BRANCH   5   6
ATOM      6  C   UNL     1       4.619   5.269  17.422  0.00  0.00    +0.000 A 
ATOM      7  C   UNL     1       4.380   4.131  16.630  0.00  0.00    +0.000 A 
ATOM      8  C   UNL     1       5.309   3.698  15.665  0.00  0.00    +0.000 A 
ATOM      9  C   UNL     1       6.494   4.403  15.458  0.00  0.00    +0.000 A 
ATOM     10  C   UNL     1       6.714   5.522  16.229  0.00  0.00    +0.000 A 
ATOM     11  C   UNL     1       5.813   5.948  17.184  0.00  0.00    +0.000 A 
ATOM     12  O   UNL     1       6.267   7.064  17.828  0.00  0.00    +0.000 OA
ATOM     13  C   UNL     1       7.524   7.292  17.163  0.00  0.00    +0.000 C 
ATOM     14  O   UNL     1       7.818   6.314  16.151  0.00  0.00    +0.000 OA
ENDBRANCH   5   6
BRANCH   3  15
ATOM     15  C   UNL     1       1.542   8.260  19.959  0.00  0.00    +0.000 A 
ATOM     16  C   UNL     1       1.093   8.414  21.281  0.00  0.00    +0.000 A 
ATOM     17  C   UNL     1       0.361   9.545  21.661  0.00  0.00    +0.000 A 
ATOM     18  C   UNL     1       0.061  10.541  20.729  0.00  0.00    +0.000 A 
ATOM     19  C   UNL     1       0.501  10.388  19.414  0.00  0.00    +0.000 A 
ATOM     20  C   UNL     1       1.252   9.271  19.028  0.00  0.00    +0.000 A 
BRANCH  18  21
ATOM     21  C   UNL     1      -0.743  11.695  21.198  0.00  0.00    +0.000 C 
ATOM     22  O   UNL     1      -1.720  12.105  20.597  0.00  0.00    +0.000 OA
BRANCH  21  23
ATOM     23  O   UNL     1      -0.307  12.233  22.356  0.00  0.00    +0.000 OA
ATOM     24  H   UNL     1       0.581  11.928  22.633  0.00  0.00    +0.000 HD
ENDBRANCH  21  23
ENDBRANCH  18  21
BRANCH  19  25
ATOM     25  O   UNL     1       0.215  11.305  18.441  0.00  0.00    +0.000 OA
ATOM     26  H   UNL     1       0.550  10.944  17.594  0.00  0.00    +0.000 HD
ENDBRANCH  19  25
ENDBRANCH   3  15
BRANCH   1  28
ATOM     27  N   UNL     1       3.448   2.528  20.263  0.00  0.00    +0.000 NA
ATOM     28  C   UNL     1       3.302   3.633  19.937  0.00  0.00    +0.000 C 
ENDBRANCH   1  28
TORSDOF 6
ENDMDL
MODEL 9
REMARK VINA RESULT:      -7.6      2.616      8.420
REMARK  Name = 
REMARK  6 active torsions:
REMARK  status: ('A' for Active; 'I' for Inactive)
REMARK    1  A    between atoms: C_2  and  C_3
REMARK    2  A    between atoms: N_5  and  C_6
REMARK    3  A    between atoms: C_9  and  C_10
REMARK    4  A    between atoms: C_10  and  O_12
REMARK    5  A    between atoms: C_13  and  O_14
REMARK    6  A    between atoms: C_17  and  C_18
REMARK                            x       y       z     vdW  Elec       q    Type
REMARK                         _______ _______ _______ _____ _____    ______ ____
ROOT
ATOM      1  C   UNL     1       0.659   9.112  21.475  0.00  0.00    +0.000 A 
ATOM      2  C   UNL     1       1.177   7.835  21.580  0.00  0.00    +0.000 A 
ATOM      3  N   UNL     1       1.644   7.429  20.347  0.00  0.00    +0.000 N 
ATOM      4  C   UNL     1       1.419   8.475  19.471  0.00  0.00    +0.000 A 
ATOM      5  C   UNL     1       0.787   9.523  20.121  0.00  0.00    +0.000 A 
ENDROOT
BRANCH   5   6
ATOM      6  C   UNL     1       0.385  10.758  19.446  0.00  0.00    +0.000 A 
ATOM      7  C   UNL     1       1.198  11.905  19.496  0.00  0.00    +0.000 A 
ATOM      8  C   UNL     1       0.812  13.107  18.875  0.00  0.00    +0.000 A 
ATOM      9  C   UNL     1      -0.389  13.187  18.173  0.00  0.00    +0.000 A 
ATOM     10  C   UNL     1      -1.174  12.057  18.119  0.00  0.00    +0.000 A 
ATOM     11  C   UNL     1      -0.808  10.876  18.735  0.00  0.00    +0.000 A 
ATOM     12  O   UNL     1      -1.758   9.912  18.555  0.00  0.00    +0.000 OA
ATOM     13  C   UNL     1      -2.733  10.608  17.756  0.00  0.00    +0.000 C 
ATOM     14  O   UNL     1      -2.372  11.973  17.480  0.00  0.00    +0.000 OA
ENDBRANCH   5   6
BRANCH   3  15
ATOM     15  C   UNL     1       2.236   6.166  20.028  0.00  0.00    +0.000 A 
ATOM     16  C   UNL     1       1.710   4.978  20.563  0.00  0.00    +0.000 A 
ATOM     17  C   UNL     1       2.305   3.742  20.284  0.00  0.00    +0.000 A 
ATOM     18  C   UNL     1       3.438   3.669  19.469  0.00  0.00    +0.000 A 
ATOM     19  C   UNL     1       3.966   4.848  18.941  0.00  0.00    +0.000 A 
ATOM     20  C   UNL     1       3.365   6.087  19.197  0.00  0.00    +0.000 A 
BRANCH  18  21
ATOM     21  C   UNL     1       4.030   2.330  19.242  0.00  0.00    +0.000 C 
ATOM     22  O   UNL     1       3.520   1.498  18.513  0.00  0.00    +0.000 OA
BRANCH  21  23
ATOM     23  O   UNL     1       5.191   2.125  19.898  0.00  0.00    +0.000 OA
ATOM     24  H   UNL     1       5.188   2.428  20.829  0.00  0.00    +0.000 HD
ENDBRANCH  21  23
ENDBRANCH  18  21
BRANCH  19  25
ATOM     25  O   UNL     1       5.091   4.856  18.164  0.00  0.00    +0.000 OA
ATOM     26  H   UNL     1       5.034   5.641  17.580  0.00  0.00    +0.000 HD
ENDBRANCH  19  25
ENDBRANCH   3  15
BRANCH   1  28
ATOM     27  N   UNL     1      -0.360  10.391  23.486  0.00  0.00    +0.000 NA
ATOM     28  C   UNL     1       0.095   9.831  22.576  0.00  0.00    +0.000 C 
ENDBRANCH   1  28
TORSDOF 6
ENDMDL
