MODEL 1
REMARK VINA RESULT:      -6.1      0.000      0.000
REMARK  Name = 
REMARK  1 active torsions:
REMARK  status: ('A' for Active; 'I' for Inactive)
REMARK    1  A    between atoms: C_7  and  C_8
REMARK                            x       y       z     vdW  Elec       q    Type
REMARK                         _______ _______ _______ _____ _____    ______ ____
ROOT
ATOM      1  F   UNL     1       1.037   4.441  17.418  0.00  0.00    +0.000 F 
ATOM      2  C   UNL     1       1.607   3.944  18.529  0.00  0.00    +0.000 A 
ATOM      3  C   UNL     1       0.779   3.347  19.477  0.00  0.00    +0.000 A 
ATOM      4  C   UNL     1       1.330   2.823  20.644  0.00  0.00    +0.000 A 
ATOM      5  C   UNL     1       2.705   2.894  20.853  0.00  0.00    +0.000 A 
ATOM      6  C   UNL     1       3.530   3.495  19.897  0.00  0.00    +0.000 A 
ATOM      7  C   UNL     1       2.992   4.043  18.721  0.00  0.00    +0.000 A 
ENDROOT
BRANCH   7   8
ATOM      8  C   UNL     1       3.861   4.697  17.732  0.00  0.00    +0.000 A 
ATOM      9  C   UNL     1       4.074   6.017  17.630  0.00  0.00    +0.000 A 
ATOM     10  S   UNL     1       5.144   6.407  16.313  0.00  0.00    +0.000 S 
ATOM     11  C   UNL     1       5.287   4.705  15.879  0.00  0.00    +0.000 A 
ATOM     12  S   UNL     1       6.158   4.060  14.631  0.00  0.00    +0.000 S 
ATOM     13  N   UNL     1       4.531   3.977  16.769  0.00  0.00    +0.000 N 
ATOM     14  H   UNL     1       4.449   2.971  16.685  0.00  0.00    +0.000 HD
ENDBRANCH   7   8
TORSDOF 1
ENDMDL
MODEL 2
REMARK VINA RESULT:      -6.1      1.729      1.897
REMARK  Name = 
REMARK  1 active torsions:
REMARK  status: ('A' for Active; 'I' for Inactive)
REMARK    1  A    between atoms: C_7  and  C_8
REMARK                            x       y       z     vdW  Elec       q    Type
REMARK                         _______ _______ _______ _____ _____    ______ ____
ROOT
ATOM      1  F   UNL     1       3.563   1.377  18.304  0.00  0.00    +0.000 F 
ATOM      2  C   UNL     1       2.897   2.406  18.853  0.00  0.00    +0.000 A 
ATOM      3  C   UNL     1       1.706   2.131  19.523  0.00  0.00    +0.000 A 
ATOM      4  C   UNL     1       0.984   3.171  20.103  0.00  0.00    +0.000 A 
ATOM      5  C   UNL     1       1.457   4.477  20.016  0.00  0.00    +0.000 A 
ATOM      6  C   UNL     1       2.653   4.746  19.341  0.00  0.00    +0.000 A 
ATOM      7  C   UNL     1       3.388   3.713  18.736  0.00  0.00    +0.000 A 
ENDROOT
BRANCH   7   8
ATOM      8  C   UNL     1       4.631   4.006  18.006  0.00  0.00    +0.000 A 
ATOM      9  C   UNL     1       5.769   4.458  18.552  0.00  0.00    +0.000 A 
ATOM     10  S   UNL     1       7.010   4.713  17.359  0.00  0.00    +0.000 S 
ATOM     11  C   UNL     1       5.925   4.199  16.070  0.00  0.00    +0.000 A 
ATOM     12  S   UNL     1       6.257   4.127  14.451  0.00  0.00    +0.000 S 
ATOM     13  N   UNL     1       4.720   3.861  16.641  0.00  0.00    +0.000 N 
ATOM     14  H   UNL     1       3.937   3.562  16.072  0.00  0.00    +0.000 HD
ENDBRANCH   7   8
TORSDOF 1
ENDMDL
MODEL 3
REMARK VINA RESULT:      -6.0      1.987      2.589
REMARK  Name = 
REMARK  1 active torsions:
REMARK  status: ('A' for Active; 'I' for Inactive)
REMARK    1  A    between atoms: C_7  and  C_8
REMARK                            x       y       z     vdW  Elec       q    Type
REMARK                         _______ _______ _______ _____ _____    ______ ____
ROOT
ATOM      1  F   UNL     1       4.705   2.329  20.441  0.00  0.00    +0.000 F 
ATOM      2  C   UNL     1       3.480   2.872  20.360  0.00  0.00    +0.000 A 
ATOM      3  C   UNL     1       2.536   2.501  21.315  0.00  0.00    +0.000 A 
ATOM      4  C   UNL     1       1.252   3.041  21.264  0.00  0.00    +0.000 A 
ATOM      5  C   UNL     1       0.922   3.950  20.263  0.00  0.00    +0.000 A 
ATOM      6  C   UNL     1       1.875   4.318  19.307  0.00  0.00    +0.000 A 
ATOM      7  C   UNL     1       3.170   3.774  19.332  0.00  0.00    +0.000 A 
ENDROOT
BRANCH   7   8
ATOM      8  C   UNL     1       4.159   4.145  18.310  0.00  0.00    +0.000 A 
ATOM      9  C   UNL     1       4.275   3.586  17.097  0.00  0.00    +0.000 A 
ATOM     10  S   UNL     1       5.587   4.274  16.182  0.00  0.00    +0.000 S 
ATOM     11  C   UNL     1       5.998   5.349  17.516  0.00  0.00    +0.000 A 
ATOM     12  S   UNL     1       7.230   6.451  17.571  0.00  0.00    +0.000 S 
ATOM     13  N   UNL     1       5.106   5.117  18.538  0.00  0.00    +0.000 N 
ATOM     14  H   UNL     1       5.178   5.612  19.418  0.00  0.00    +0.000 HD
ENDBRANCH   7   8
TORSDOF 1
ENDMDL
MODEL 4
REMARK VINA RESULT:      -6.0      1.318      1.749
REMARK  Name = 
REMARK  1 active torsions:
REMARK  status: ('A' for Active; 'I' for Inactive)
REMARK    1  A    between atoms: C_7  and  C_8
REMARK                            x       y       z     vdW  Elec       q    Type
REMARK                         _______ _______ _______ _____ _____    ______ ____
ROOT
ATOM      1  F   UNL     1       1.492   4.891  17.970  0.00  0.00    +0.000 F 
ATOM      2  C   UNL     1       1.875   4.164  19.032  0.00  0.00    +0.000 A 
ATOM      3  C   UNL     1       0.904   3.807  19.965  0.00  0.00    +0.000 A 
ATOM      4  C   UNL     1       1.262   3.056  21.082  0.00  0.00    +0.000 A 
ATOM      5  C   UNL     1       2.585   2.661  21.257  0.00  0.00    +0.000 A 
ATOM      6  C   UNL     1       3.555   3.022  20.316  0.00  0.00    +0.000 A 
ATOM      7  C   UNL     1       3.218   3.793  19.191  0.00  0.00    +0.000 A 
ENDROOT
BRANCH   7   8
ATOM      8  C   UNL     1       4.247   4.192  18.219  0.00  0.00    +0.000 A 
ATOM      9  C   UNL     1       4.483   3.594  17.042  0.00  0.00    +0.000 A 
ATOM     10  S   UNL     1       5.804   4.337  16.185  0.00  0.00    +0.000 S 
ATOM     11  C   UNL     1       6.048   5.492  17.493  0.00  0.00    +0.000 A 
ATOM     12  S   UNL     1       7.196   6.679  17.578  0.00  0.00    +0.000 S 
ATOM     13  N   UNL     1       5.107   5.238  18.464  0.00  0.00    +0.000 N 
ATOM     14  H   UNL     1       5.085   5.772  19.324  0.00  0.00    +0.000 HD
ENDBRANCH   7   8
TORSDOF 1
ENDMDL
MODEL 5
REMARK VINA RESULT:      -5.9      1.390      1.443
REMARK  Name = 
REMARK  1 active torsions:
REMARK  status: ('A' for Active; 'I' for Inactive)
REMARK    1  A    between atoms: C_7  and  C_8
REMARK                            x       y       z     vdW  Elec       q    Type
REMARK                         _______ _______ _______ _____ _____    ______ ____
ROOT
ATOM      1  F   UNL     1       2.374   5.782  18.401  0.00  0.00    +0.000 F 
ATOM      2  C   UNL     1       2.438   4.753  19.262  0.00  0.00    +0.000 A 
ATOM      3  C   UNL     1       1.337   4.519  20.083  0.00  0.00    +0.000 A 
ATOM      4  C   UNL     1       1.364   3.462  20.991  0.00  0.00    +0.000 A 
ATOM      5  C   UNL     1       2.488   2.644  21.069  0.00  0.00    +0.000 A 
ATOM      6  C   UNL     1       3.590   2.885  20.242  0.00  0.00    +0.000 A 
ATOM      7  C   UNL     1       3.588   3.955  19.330  0.00  0.00    +0.000 A 
ENDROOT
BRANCH   7   8
ATOM      8  C   UNL     1       4.759   4.219  18.481  0.00  0.00    +0.000 A 
ATOM      9  C   UNL     1       5.916   4.756  18.893  0.00  0.00    +0.000 A 
ATOM     10  S   UNL     1       7.053   4.940  17.587  0.00  0.00    +0.000 S 
ATOM     11  C   UNL     1       5.894   4.273  16.439  0.00  0.00    +0.000 A 
ATOM     12  S   UNL     1       6.105   4.062  14.813  0.00  0.00    +0.000 S 
ATOM     13  N   UNL     1       4.750   3.951  17.132  0.00  0.00    +0.000 N 
ATOM     14  H   UNL     1       3.939   3.575  16.656  0.00  0.00    +0.000 HD
ENDBRANCH   7   8
TORSDOF 1
ENDMDL
MODEL 6
REMARK VINA RESULT:      -5.9      1.662      1.824
REMARK  Name = 
REMARK  1 active torsions:
REMARK  status: ('A' for Active; 'I' for Inactive)
REMARK    1  A    between atoms: C_7  and  C_8
REMARK                            x       y       z     vdW  Elec       q    Type
REMARK                         _______ _______ _______ _____ _____    ______ ____
ROOT
ATOM      1  F   UNL     1       3.405   6.013  19.766  0.00  0.00    +0.000 F 
ATOM      2  C   UNL     1       2.755   4.852  19.581  0.00  0.00    +0.000 A 
ATOM      3  C   UNL     1       1.579   4.639  20.297  0.00  0.00    +0.000 A 
ATOM      4  C   UNL     1       0.878   3.446  20.134  0.00  0.00    +0.000 A 
ATOM      5  C   UNL     1       1.352   2.477  19.255  0.00  0.00    +0.000 A 
ATOM      6  C   UNL     1       2.533   2.697  18.539  0.00  0.00    +0.000 A 
ATOM      7  C   UNL     1       3.264   3.887  18.700  0.00  0.00    +0.000 A 
ENDROOT
BRANCH   7   8
ATOM      8  C   UNL     1       4.519   4.102  17.965  0.00  0.00    +0.000 A 
ATOM      9  C   UNL     1       5.686   4.480  18.505  0.00  0.00    +0.000 A 
ATOM     10  S   UNL     1       6.935   4.659  17.306  0.00  0.00    +0.000 S 
ATOM     11  C   UNL     1       5.813   4.216  16.022  0.00  0.00    +0.000 A 
ATOM     12  S   UNL     1       6.131   4.126  14.401  0.00  0.00    +0.000 S 
ATOM     13  N   UNL     1       4.591   3.954  16.598  0.00  0.00    +0.000 N 
ATOM     14  H   UNL     1       3.788   3.706  16.033  0.00  0.00    +0.000 HD
ENDBRANCH   7   8
TORSDOF 1
ENDMDL
MODEL 7
REMARK VINA RESULT:      -5.9      1.389      1.884
REMARK  Name = 
REMARK  1 active torsions:
REMARK  status: ('A' for Active; 'I' for Inactive)
REMARK    1  A    between atoms: C_7  and  C_8
REMARK                            x       y       z     vdW  Elec       q    Type
REMARK                         _______ _______ _______ _____ _____    ______ ____
ROOT
ATOM      1  F   UNL     1       4.867   2.888  19.839  0.00  0.00    +0.000 F 
ATOM      2  C   UNL     1       3.575   3.251  19.909  0.00  0.00    +0.000 A 
ATOM      3  C   UNL     1       2.783   2.662  20.893  0.00  0.00    +0.000 A 
ATOM      4  C   UNL     1       1.438   3.009  20.997  0.00  0.00    +0.000 A 
ATOM      5  C   UNL     1       0.894   3.945  20.122  0.00  0.00    +0.000 A 
ATOM      6  C   UNL     1       1.695   4.532  19.136  0.00  0.00    +0.000 A 
ATOM      7  C   UNL     1       3.050   4.184  19.005  0.00  0.00    +0.000 A 
ENDROOT
BRANCH   7   8
ATOM      8  C   UNL     1       3.880   4.785  17.951  0.00  0.00    +0.000 A 
ATOM      9  C   UNL     1       4.070   6.099  17.761  0.00  0.00    +0.000 A 
ATOM     10  S   UNL     1       5.094   6.420  16.389  0.00  0.00    +0.000 S 
ATOM     11  C   UNL     1       5.249   4.696  16.059  0.00  0.00    +0.000 A 
ATOM     12  S   UNL     1       6.092   3.986  14.826  0.00  0.00    +0.000 S 
ATOM     13  N   UNL     1       4.531   4.015  17.015  0.00  0.00    +0.000 N 
ATOM     14  H   UNL     1       4.462   3.005  16.996  0.00  0.00    +0.000 HD
ENDBRANCH   7   8
TORSDOF 1
ENDMDL
MODEL 8
REMARK VINA RESULT:      -5.9      1.661      1.744
REMARK  Name = 
REMARK  1 active torsions:
REMARK  status: ('A' for Active; 'I' for Inactive)
REMARK    1  A    between atoms: C_7  and  C_8
REMARK                            x       y       z     vdW  Elec       q    Type
REMARK                         _______ _______ _______ _____ _____    ______ ____
ROOT
ATOM      1  F   UNL     1       2.576   5.724  17.851  0.00  0.00    +0.000 F 
ATOM      2  C   UNL     1       2.428   4.419  18.132  0.00  0.00    +0.000 A 
ATOM      3  C   UNL     1       1.192   3.990  18.612  0.00  0.00    +0.000 A 
ATOM      4  C   UNL     1       0.999   2.644  18.917  0.00  0.00    +0.000 A 
ATOM      5  C   UNL     1       2.038   1.736  18.736  0.00  0.00    +0.000 A 
ATOM      6  C   UNL     1       3.276   2.174  18.253  0.00  0.00    +0.000 A 
ATOM      7  C   UNL     1       3.496   3.529  17.954  0.00  0.00    +0.000 A 
ENDROOT
BRANCH   7   8
ATOM      8  C   UNL     1       4.807   3.987  17.472  0.00  0.00    +0.000 A 
ATOM      9  C   UNL     1       5.816   4.418  18.243  0.00  0.00    +0.000 A 
ATOM     10  S   UNL     1       7.197   4.905  17.302  0.00  0.00    +0.000 S 
ATOM     11  C   UNL     1       6.354   4.521  15.803  0.00  0.00    +0.000 A 
ATOM     12  S   UNL     1       6.924   4.695  14.261  0.00  0.00    +0.000 S 
ATOM     13  N   UNL     1       5.106   4.042  16.130  0.00  0.00    +0.000 N 
ATOM     14  H   UNL     1       4.440   3.785  15.412  0.00  0.00    +0.000 HD
ENDBRANCH   7   8
TORSDOF 1
ENDMDL
MODEL 9
REMARK VINA RESULT:      -5.9      3.436      5.267
REMARK  Name = 
REMARK  1 active torsions:
REMARK  status: ('A' for Active; 'I' for Inactive)
REMARK    1  A    between atoms: C_7  and  C_8
REMARK                            x       y       z     vdW  Elec       q    Type
REMARK                         _______ _______ _______ _____ _____    ______ ____
ROOT
ATOM      1  F   UNL     1       6.507   5.394  19.658  0.00  0.00    +0.000 F 
ATOM      2  C   UNL     1       6.245   4.958  18.414  0.00  0.00    +0.000 A 
ATOM      3  C   UNL     1       7.302   4.888  17.510  0.00  0.00    +0.000 A 
ATOM      4  C   UNL     1       7.071   4.444  16.210  0.00  0.00    +0.000 A 
ATOM      5  C   UNL     1       5.787   4.069  15.823  0.00  0.00    +0.000 A 
ATOM      6  C   UNL     1       4.730   4.142  16.736  0.00  0.00    +0.000 A 
ATOM      7  C   UNL     1       4.939   4.602  18.048  0.00  0.00    +0.000 A 
ENDROOT
BRANCH   7   8
ATOM      8  C   UNL     1       3.820   4.702  18.995  0.00  0.00    +0.000 A 
ATOM      9  C   UNL     1       3.149   5.823  19.296  0.00  0.00    +0.000 A 
ATOM     10  S   UNL     1       1.909   5.543  20.486  0.00  0.00    +0.000 S 
ATOM     11  C   UNL     1       2.339   3.838  20.584  0.00  0.00    +0.000 A 
ATOM     12  S   UNL     1       1.653   2.687  21.552  0.00  0.00    +0.000 S 
ATOM     13  N   UNL     1       3.371   3.610  19.702  0.00  0.00    +0.000 N 
ATOM     14  H   UNL     1       3.794   2.694  19.618  0.00  0.00    +0.000 HD
ENDBRANCH   7   8
TORSDOF 1
ENDMDL
