MODEL 1
REMARK VINA RESULT:      -8.6      0.000      0.000
REMARK  Name = 
REMARK  7 active torsions:
REMARK  status: ('A' for Active; 'I' for Inactive)
REMARK    1  A    between atoms: C_8  and  O_9
REMARK    2  A    between atoms: O_9  and  C_10
REMARK    3  A    between atoms: C_10  and  C_11
REMARK    4  A    between atoms: C_11  and  C_12
REMARK    5  A    between atoms: C_12  and  C_13
REMARK    6  A    between atoms: C_13  and  O_14
REMARK    7  A    between atoms: O_14  and  C_15
REMARK                            x       y       z     vdW  Elec       q    Type
REMARK                         _______ _______ _______ _____ _____    ______ ____
ROOT
ATOM      1  C   UNL     1       1.920   5.451  20.695  0.00  0.00    +0.000 C 
ENDROOT
BRANCH   1   2
ATOM      2  C   UNL     1       0.822   4.430  20.418  0.00  0.00    +0.000 C 
BRANCH   2   3
ATOM      3  C   UNL     1       1.384   2.999  20.528  0.00  0.00    +0.000 C 
BRANCH   3   4
ATOM      4  C   UNL     1       2.764   2.951  21.192  0.00  0.00    +0.000 C 
BRANCH   4   5
ATOM      5  O   UNL     1       3.703   2.298  20.336  0.00  0.00    +0.000 OA
BRANCH   5  13
ATOM      6  O   UNL     1       7.588   7.289  17.017  0.00  0.00    +0.000 OA
ATOM      7  C   UNL     1       6.761   6.385  16.982  0.00  0.00    +0.000 A 
ATOM      8  C   UNL     1       6.128   5.992  15.711  0.00  0.00    +0.000 A 
ATOM      9  C   UNL     1       5.201   5.031  15.637  0.00  0.00    +0.000 A 
ATOM     10  C   UNL     1       4.791   4.337  16.845  0.00  0.00    +0.000 A 
ATOM     11  C   UNL     1       3.816   3.341  16.845  0.00  0.00    +0.000 A 
ATOM     12  C   UNL     1       3.474   2.694  18.041  0.00  0.00    +0.000 A 
ATOM     13  C   UNL     1       4.106   3.026  19.243  0.00  0.00    +0.000 A 
ATOM     14  C   UNL     1       5.073   4.033  19.246  0.00  0.00    +0.000 A 
ATOM     15  C   UNL     1       5.400   4.673  18.051  0.00  0.00    +0.000 A 
ATOM     16  O   UNL     1       6.378   5.685  18.116  0.00  0.00    +0.000 OA
ENDBRANCH   5  13
ENDBRANCH   4   5
ENDBRANCH   3   4
ENDBRANCH   2   3
ENDBRANCH   1   2
BRANCH   1  17
ATOM     17  O   UNL     1       1.494   6.621  21.378  0.00  0.00    +0.000 OA
BRANCH  17  18
ATOM     18  C   UNL     1       1.417   7.750  20.539  0.00  0.00    +0.000 A 
ATOM     19  C   UNL     1       1.999   7.876  19.234  0.00  0.00    +0.000 A 
ATOM     20  C   UNL     1       2.786   7.082  18.333  0.00  0.00    +0.000 A 
ATOM     21  C   UNL     1       3.032   7.841  17.215  0.00  0.00    +0.000 A 
ATOM     22  O   UNL     1       2.440   9.051  17.335  0.00  0.00    +0.000 OA
ATOM     23  C   UNL     1       1.819   9.076  18.545  0.00  0.00    +0.000 A 
ATOM     24  C   UNL     1       1.104  10.164  19.022  0.00  0.00    +0.000 A 
ATOM     25  C   UNL     1       0.550  10.016  20.290  0.00  0.00    +0.000 A 
ATOM     26  O   UNL     1      -0.173  11.134  20.767  0.00  0.00    +0.000 OA
ATOM     27  C   UNL     1      -0.774  11.140  22.015  0.00  0.00    +0.000 A 
ATOM     28  O   UNL     1      -1.411  12.098  22.436  0.00  0.00    +0.000 OA
ATOM     29  C   UNL     1      -0.604   9.927  22.827  0.00  0.00    +0.000 A 
ATOM     30  C   UNL     1       0.073   8.857  22.389  0.00  0.00    +0.000 A 
ATOM     31  C   UNL     1       0.688   8.854  21.060  0.00  0.00    +0.000 A 
ENDBRANCH  17  18
ENDBRANCH   1  17
TORSDOF 7
ENDMDL
MODEL 2
REMARK VINA RESULT:      -8.5      3.458      9.555
REMARK  Name = 
REMARK  7 active torsions:
REMARK  status: ('A' for Active; 'I' for Inactive)
REMARK    1  A    between atoms: C_8  and  O_9
REMARK    2  A    between atoms: O_9  and  C_10
REMARK    3  A    between atoms: C_10  and  C_11
REMARK    4  A    between atoms: C_11  and  C_12
REMARK    5  A    between atoms: C_12  and  C_13
REMARK    6  A    between atoms: C_13  and  O_14
REMARK    7  A    between atoms: O_14  and  C_15
REMARK                            x       y       z     vdW  Elec       q    Type
REMARK                         _______ _______ _______ _____ _____    ______ ____
ROOT
ATOM      1  C   UNL     1       2.233   7.740  18.671  0.00  0.00    +0.000 C 
ENDROOT
BRANCH   1   2
ATOM      2  C   UNL     1       2.063   9.023  17.867  0.00  0.00    +0.000 C 
BRANCH   2   3
ATOM      3  C   UNL     1       1.426  10.121  18.743  0.00  0.00    +0.000 C 
BRANCH   3   4
ATOM      4  C   UNL     1      -0.089   9.955  18.895  0.00  0.00    +0.000 C 
BRANCH   4   5
ATOM      5  O   UNL     1      -0.719   9.960  17.614  0.00  0.00    +0.000 OA
BRANCH   5  13
ATOM      6  O   UNL     1      -6.208  13.606  20.371  0.00  0.00    +0.000 OA
ATOM      7  C   UNL     1      -5.680  13.026  19.429  0.00  0.00    +0.000 A 
ATOM      8  C   UNL     1      -6.373  12.906  18.135  0.00  0.00    +0.000 A 
ATOM      9  C   UNL     1      -5.843  12.257  17.093  0.00  0.00    +0.000 A 
ATOM     10  C   UNL     1      -4.533  11.641  17.224  0.00  0.00    +0.000 A 
ATOM     11  C   UNL     1      -3.930  10.931  16.187  0.00  0.00    +0.000 A 
ATOM     12  C   UNL     1      -2.656  10.374  16.367  0.00  0.00    +0.000 A 
ATOM     13  C   UNL     1      -1.970  10.527  17.576  0.00  0.00    +0.000 A 
ATOM     14  C   UNL     1      -2.579  11.227  18.619  0.00  0.00    +0.000 A 
ATOM     15  C   UNL     1      -3.849  11.770  18.430  0.00  0.00    +0.000 A 
ATOM     16  O   UNL     1      -4.417  12.460  19.519  0.00  0.00    +0.000 OA
ENDBRANCH   5  13
ENDBRANCH   4   5
ENDBRANCH   3   4
ENDBRANCH   2   3
ENDBRANCH   1   2
BRANCH   1  17
ATOM     17  O   UNL     1       2.145   6.541  17.914  0.00  0.00    +0.000 OA
BRANCH  17  18
ATOM     18  C   UNL     1       2.901   5.487  18.464  0.00  0.00    +0.000 A 
ATOM     19  C   UNL     1       2.498   4.627  19.539  0.00  0.00    +0.000 A 
ATOM     20  C   UNL     1       1.364   4.457  20.405  0.00  0.00    +0.000 A 
ATOM     21  C   UNL     1       1.648   3.422  21.261  0.00  0.00    +0.000 A 
ATOM     22  O   UNL     1       2.869   2.911  20.987  0.00  0.00    +0.000 OA
ATOM     23  C   UNL     1       3.382   3.631  19.954  0.00  0.00    +0.000 A 
ATOM     24  C   UNL     1       4.630   3.396  19.396  0.00  0.00    +0.000 A 
ATOM     25  C   UNL     1       4.997   4.244  18.355  0.00  0.00    +0.000 A 
ATOM     26  O   UNL     1       6.273   3.998  17.797  0.00  0.00    +0.000 OA
ATOM     27  C   UNL     1       6.780   4.764  16.760  0.00  0.00    +0.000 A 
ATOM     28  O   UNL     1       7.880   4.555  16.262  0.00  0.00    +0.000 OA
ATOM     29  C   UNL     1       5.928   5.863  16.283  0.00  0.00    +0.000 A 
ATOM     30  C   UNL     1       4.716   6.108  16.797  0.00  0.00    +0.000 A 
ATOM     31  C   UNL     1       4.180   5.279  17.879  0.00  0.00    +0.000 A 
ENDBRANCH  17  18
ENDBRANCH   1  17
TORSDOF 7
ENDMDL
MODEL 3
REMARK VINA RESULT:      -8.5      3.037      8.582
REMARK  Name = 
REMARK  7 active torsions:
REMARK  status: ('A' for Active; 'I' for Inactive)
REMARK    1  A    between atoms: C_8  and  O_9
REMARK    2  A    between atoms: O_9  and  C_10
REMARK    3  A    between atoms: C_10  and  C_11
REMARK    4  A    between atoms: C_11  and  C_12
REMARK    5  A    between atoms: C_12  and  C_13
REMARK    6  A    between atoms: C_13  and  O_14
REMARK    7  A    between atoms: O_14  and  C_15
REMARK                            x       y       z     vdW  Elec       q    Type
REMARK                         _______ _______ _______ _____ _____    ______ ____
ROOT
ATOM      1  C   UNL     1       2.481   6.666  20.164  0.00  0.00    +0.000 C 
ENDROOT
BRANCH   1   2
ATOM      2  C   UNL     1       1.188   7.084  20.853  0.00  0.00    +0.000 C 
BRANCH   2   3
ATOM      3  C   UNL     1       1.233   8.583  21.209  0.00  0.00    +0.000 C 
BRANCH   3   4
ATOM      4  C   UNL     1       1.150   9.490  19.977  0.00  0.00    +0.000 C 
BRANCH   4   5
ATOM      5  O   UNL     1       0.400  10.667  20.278  0.00  0.00    +0.000 OA
BRANCH   5  13
ATOM      6  O   UNL     1      -3.394   9.995  14.264  0.00  0.00    +0.000 OA
ATOM      7  C   UNL     1      -3.282  10.411  15.411  0.00  0.00    +0.000 A 
ATOM      8  C   UNL     1      -4.359  11.198  16.036  0.00  0.00    +0.000 A 
ATOM      9  C   UNL     1      -4.261  11.693  17.274  0.00  0.00    +0.000 A 
ATOM     10  C   UNL     1      -3.055  11.454  18.048  0.00  0.00    +0.000 A 
ATOM     11  C   UNL     1      -2.876  11.958  19.336  0.00  0.00    +0.000 A 
ATOM     12  C   UNL     1      -1.697  11.679  20.041  0.00  0.00    +0.000 A 
ATOM     13  C   UNL     1      -0.691  10.890  19.474  0.00  0.00    +0.000 A 
ATOM     14  C   UNL     1      -0.864  10.397  18.179  0.00  0.00    +0.000 A 
ATOM     15  C   UNL     1      -2.038  10.687  17.487  0.00  0.00    +0.000 A 
ATOM     16  O   UNL     1      -2.155  10.168  16.182  0.00  0.00    +0.000 OA
ENDBRANCH   5  13
ENDBRANCH   4   5
ENDBRANCH   3   4
ENDBRANCH   2   3
ENDBRANCH   1   2
BRANCH   1  17
ATOM     17  O   UNL     1       2.420   6.622  18.745  0.00  0.00    +0.000 OA
BRANCH  17  18
ATOM     18  C   UNL     1       2.877   5.401  18.212  0.00  0.00    +0.000 A 
ATOM     19  C   UNL     1       2.233   4.126  18.344  0.00  0.00    +0.000 A 
ATOM     20  C   UNL     1       1.056   3.581  18.960  0.00  0.00    +0.000 A 
ATOM     21  C   UNL     1       1.046   2.230  18.715  0.00  0.00    +0.000 A 
ATOM     22  O   UNL     1       2.120   1.884  17.970  0.00  0.00    +0.000 OA
ATOM     23  C   UNL     1       2.835   3.019  17.746  0.00  0.00    +0.000 A 
ATOM     24  C   UNL     1       4.013   3.056  17.015  0.00  0.00    +0.000 A 
ATOM     25  C   UNL     1       4.617   4.305  16.902  0.00  0.00    +0.000 A 
ATOM     26  O   UNL     1       5.820   4.328  16.159  0.00  0.00    +0.000 OA
ATOM     27  C   UNL     1       6.540   5.496  15.967  0.00  0.00    +0.000 A 
ATOM     28  O   UNL     1       7.578   5.532  15.316  0.00  0.00    +0.000 OA
ATOM     29  C   UNL     1       5.997   6.709  16.595  0.00  0.00    +0.000 A 
ATOM     30  C   UNL     1       4.857   6.705  17.299  0.00  0.00    +0.000 A 
ATOM     31  C   UNL     1       4.093   5.469  17.479  0.00  0.00    +0.000 A 
ENDBRANCH  17  18
ENDBRANCH   1  17
TORSDOF 7
ENDMDL
MODEL 4
REMARK VINA RESULT:      -8.4      2.844      8.547
REMARK  Name = 
REMARK  7 active torsions:
REMARK  status: ('A' for Active; 'I' for Inactive)
REMARK    1  A    between atoms: C_8  and  O_9
REMARK    2  A    between atoms: O_9  and  C_10
REMARK    3  A    between atoms: C_10  and  C_11
REMARK    4  A    between atoms: C_11  and  C_12
REMARK    5  A    between atoms: C_12  and  C_13
REMARK    6  A    between atoms: C_13  and  O_14
REMARK    7  A    between atoms: O_14  and  C_15
REMARK                            x       y       z     vdW  Elec       q    Type
REMARK                         _______ _______ _______ _____ _____    ______ ____
ROOT
ATOM      1  C   UNL     1       2.216   7.608  19.089  0.00  0.00    +0.000 C 
ENDROOT
BRANCH   1   2
ATOM      2  C   UNL     1       1.254   7.618  20.272  0.00  0.00    +0.000 C 
BRANCH   2   3
ATOM      3  C   UNL     1       1.678   8.690  21.295  0.00  0.00    +0.000 C 
BRANCH   3   4
ATOM      4  C   UNL     1       0.711   9.877  21.348  0.00  0.00    +0.000 C 
BRANCH   4   5
ATOM      5  O   UNL     1       0.841  10.674  20.170  0.00  0.00    +0.000 OA
BRANCH   5  13
ATOM      6  O   UNL     1      -3.481  10.082  14.513  0.00  0.00    +0.000 OA
ATOM      7  C   UNL     1      -3.271  10.467  15.658  0.00  0.00    +0.000 A 
ATOM      8  C   UNL     1      -4.303  11.208  16.404  0.00  0.00    +0.000 A 
ATOM      9  C   UNL     1      -4.102  11.669  17.643  0.00  0.00    +0.000 A 
ATOM     10  C   UNL     1      -2.823  11.438  18.294  0.00  0.00    +0.000 A 
ATOM     11  C   UNL     1      -2.537  11.909  19.575  0.00  0.00    +0.000 A 
ATOM     12  C   UNL     1      -1.291  11.639  20.159  0.00  0.00    +0.000 A 
ATOM     13  C   UNL     1      -0.325  10.893  19.476  0.00  0.00    +0.000 A 
ATOM     14  C   UNL     1      -0.607  10.434  18.189  0.00  0.00    +0.000 A 
ATOM     15  C   UNL     1      -1.847  10.713  17.617  0.00  0.00    +0.000 A 
ATOM     16  O   UNL     1      -2.073  10.230  16.313  0.00  0.00    +0.000 OA
ENDBRANCH   5  13
ENDBRANCH   4   5
ENDBRANCH   3   4
ENDBRANCH   2   3
ENDBRANCH   1   2
BRANCH   1  17
ATOM     17  O   UNL     1       2.150   6.449  18.270  0.00  0.00    +0.000 OA
BRANCH  17  18
ATOM     18  C   UNL     1       2.850   5.352  18.811  0.00  0.00    +0.000 A 
ATOM     19  C   UNL     1       2.337   4.406  19.758  0.00  0.00    +0.000 A 
ATOM     20  C   UNL     1       1.116   4.164  20.475  0.00  0.00    +0.000 A 
ATOM     21  C   UNL     1       1.312   3.060  21.269  0.00  0.00    +0.000 A 
ATOM     22  O   UNL     1       2.560   2.574  21.090  0.00  0.00    +0.000 OA
ATOM     23  C   UNL     1       3.179   3.378  20.185  0.00  0.00    +0.000 A 
ATOM     24  C   UNL     1       4.483   3.190  19.751  0.00  0.00    +0.000 A 
ATOM     25  C   UNL     1       4.956   4.123  18.832  0.00  0.00    +0.000 A 
ATOM     26  O   UNL     1       6.288   3.924  18.402  0.00  0.00    +0.000 OA
ATOM     27  C   UNL     1       6.900   4.775  17.496  0.00  0.00    +0.000 A 
ATOM     28  O   UNL     1       8.050   4.608  17.107  0.00  0.00    +0.000 OA
ATOM     29  C   UNL     1       6.096   5.909  17.020  0.00  0.00    +0.000 A 
ATOM     30  C   UNL     1       4.832   6.111  17.414  0.00  0.00    +0.000 A 
ATOM     31  C   UNL     1       4.188   5.194  18.357  0.00  0.00    +0.000 A 
ENDBRANCH  17  18
ENDBRANCH   1  17
TORSDOF 7
ENDMDL
MODEL 5
REMARK VINA RESULT:      -8.4      2.018      9.012
REMARK  Name = 
REMARK  7 active torsions:
REMARK  status: ('A' for Active; 'I' for Inactive)
REMARK    1  A    between atoms: C_8  and  O_9
REMARK    2  A    between atoms: O_9  and  C_10
REMARK    3  A    between atoms: C_10  and  C_11
REMARK    4  A    between atoms: C_11  and  C_12
REMARK    5  A    between atoms: C_12  and  C_13
REMARK    6  A    between atoms: C_13  and  O_14
REMARK    7  A    between atoms: O_14  and  C_15
REMARK                            x       y       z     vdW  Elec       q    Type
REMARK                         _______ _______ _______ _____ _____    ______ ____
ROOT
ATOM      1  C   UNL     1       2.478   8.099  18.159  0.00  0.00    +0.000 C 
ENDROOT
BRANCH   1   2
ATOM      2  C   UNL     1       1.499   8.790  19.101  0.00  0.00    +0.000 C 
BRANCH   2   3
ATOM      3  C   UNL     1       1.752   8.343  20.554  0.00  0.00    +0.000 C 
BRANCH   3   4
ATOM      4  C   UNL     1       0.684   8.851  21.528  0.00  0.00    +0.000 C 
BRANCH   4   5
ATOM      5  O   UNL     1       0.985  10.185  21.941  0.00  0.00    +0.000 OA
BRANCH   5  13
ATOM      6  O   UNL     1      -5.240  12.349  24.696  0.00  0.00    +0.000 OA
ATOM      7  C   UNL     1      -4.299  12.517  23.929  0.00  0.00    +0.000 A 
ATOM      8  C   UNL     1      -4.253  13.689  23.038  0.00  0.00    +0.000 A 
ATOM      9  C   UNL     1      -3.258  13.892  22.168  0.00  0.00    +0.000 A 
ATOM     10  C   UNL     1      -2.172  12.930  22.085  0.00  0.00    +0.000 A 
ATOM     11  C   UNL     1      -1.114  13.067  21.187  0.00  0.00    +0.000 A 
ATOM     12  C   UNL     1      -0.085  12.116  21.165  0.00  0.00    +0.000 A 
ATOM     13  C   UNL     1      -0.095  11.027  22.043  0.00  0.00    +0.000 A 
ATOM     14  C   UNL     1      -1.160  10.883  22.933  0.00  0.00    +0.000 A 
ATOM     15  C   UNL     1      -2.181  11.832  22.940  0.00  0.00    +0.000 A 
ATOM     16  O   UNL     1      -3.234  11.632  23.856  0.00  0.00    +0.000 OA
ENDBRANCH   5  13
ENDBRANCH   4   5
ENDBRANCH   3   4
ENDBRANCH   2   3
ENDBRANCH   1   2
BRANCH   1  17
ATOM     17  O   UNL     1       2.116   6.780  17.778  0.00  0.00    +0.000 OA
BRANCH  17  18
ATOM     18  C   UNL     1       3.110   5.827  18.081  0.00  0.00    +0.000 A 
ATOM     19  C   UNL     1       4.395   5.717  17.455  0.00  0.00    +0.000 A 
ATOM     20  C   UNL     1       5.143   6.380  16.424  0.00  0.00    +0.000 A 
ATOM     21  C   UNL     1       6.347   5.730  16.300  0.00  0.00    +0.000 A 
ATOM     22  O   UNL     1       6.423   4.718  17.192  0.00  0.00    +0.000 OA
ATOM     23  C   UNL     1       5.254   4.706  17.887  0.00  0.00    +0.000 A 
ATOM     24  C   UNL     1       4.965   3.796  18.893  0.00  0.00    +0.000 A 
ATOM     25  C   UNL     1       3.711   3.925  19.484  0.00  0.00    +0.000 A 
ATOM     26  O   UNL     1       3.426   2.989  20.505  0.00  0.00    +0.000 OA
ATOM     27  C   UNL     1       2.216   2.986  21.179  0.00  0.00    +0.000 A 
ATOM     28  O   UNL     1       1.960   2.187  22.072  0.00  0.00    +0.000 OA
ATOM     29  C   UNL     1       1.234   3.997  20.763  0.00  0.00    +0.000 A 
ATOM     30  C   UNL     1       1.488   4.894  19.800  0.00  0.00    +0.000 A 
ATOM     31  C   UNL     1       2.779   4.901  19.107  0.00  0.00    +0.000 A 
ENDBRANCH  17  18
ENDBRANCH   1  17
TORSDOF 7
ENDMDL
MODEL 6
REMARK VINA RESULT:      -8.3      4.991      7.577
REMARK  Name = 
REMARK  7 active torsions:
REMARK  status: ('A' for Active; 'I' for Inactive)
REMARK    1  A    between atoms: C_8  and  O_9
REMARK    2  A    between atoms: O_9  and  C_10
REMARK    3  A    between atoms: C_10  and  C_11
REMARK    4  A    between atoms: C_11  and  C_12
REMARK    5  A    between atoms: C_12  and  C_13
REMARK    6  A    between atoms: C_13  and  O_14
REMARK    7  A    between atoms: O_14  and  C_15
REMARK                            x       y       z     vdW  Elec       q    Type
REMARK                         _______ _______ _______ _____ _____    ______ ____
ROOT
ATOM      1  C   UNL     1       5.920   5.746  17.309  0.00  0.00    +0.000 C 
ENDROOT
BRANCH   1   2
ATOM      2  C   UNL     1       6.498   7.116  16.977  0.00  0.00    +0.000 C 
BRANCH   2   3
ATOM      3  C   UNL     1       7.736   7.398  17.850  0.00  0.00    +0.000 C 
BRANCH   3   4
ATOM      4  C   UNL     1       8.103   8.885  17.901  0.00  0.00    +0.000 C 
BRANCH   4   5
ATOM      5  O   UNL     1       8.932   9.153  19.033  0.00  0.00    +0.000 OA
BRANCH   5  13
ATOM      6  O   UNL     1      10.201  15.212  22.596  0.00  0.00    +0.000 OA
ATOM      7  C   UNL     1      10.260  14.549  21.566  0.00  0.00    +0.000 A 
ATOM      8  C   UNL     1      10.839  15.118  20.337  0.00  0.00    +0.000 A 
ATOM      9  C   UNL     1      10.895  14.437  19.188  0.00  0.00    +0.000 A 
ATOM     10  C   UNL     1      10.370  13.083  19.131  0.00  0.00    +0.000 A 
ATOM     11  C   UNL     1      10.377  12.323  17.962  0.00  0.00    +0.000 A 
ATOM     12  C   UNL     1       9.872  11.015  17.973  0.00  0.00    +0.000 A 
ATOM     13  C   UNL     1       9.367  10.451  19.148  0.00  0.00    +0.000 A 
ATOM     14  C   UNL     1       9.349  11.215  20.316  0.00  0.00    +0.000 A 
ATOM     15  C   UNL     1       9.847  12.517  20.290  0.00  0.00    +0.000 A 
ATOM     16  O   UNL     1       9.797  13.244  21.496  0.00  0.00    +0.000 OA
ENDBRANCH   5  13
ENDBRANCH   4   5
ENDBRANCH   3   4
ENDBRANCH   2   3
ENDBRANCH   1   2
BRANCH   1  17
ATOM     17  O   UNL     1       4.531   5.601  17.048  0.00  0.00    +0.000 OA
BRANCH  17  18
ATOM     18  C   UNL     1       3.756   5.526  18.222  0.00  0.00    +0.000 A 
ATOM     19  C   UNL     1       3.662   4.398  19.104  0.00  0.00    +0.000 A 
ATOM     20  C   UNL     1       4.196   3.069  19.201  0.00  0.00    +0.000 A 
ATOM     21  C   UNL     1       3.659   2.486  20.322  0.00  0.00    +0.000 A 
ATOM     22  O   UNL     1       2.840   3.357  20.953  0.00  0.00    +0.000 OA
ATOM     23  C   UNL     1       2.839   4.505  20.226  0.00  0.00    +0.000 A 
ATOM     24  C   UNL     1       2.106   5.633  20.566  0.00  0.00    +0.000 A 
ATOM     25  C   UNL     1       2.214   6.712  19.694  0.00  0.00    +0.000 A 
ATOM     26  O   UNL     1       1.458   7.853  20.049  0.00  0.00    +0.000 OA
ATOM     27  C   UNL     1       1.458   9.002  19.275  0.00  0.00    +0.000 A 
ATOM     28  O   UNL     1       0.816  10.001  19.577  0.00  0.00    +0.000 OA
ATOM     29  C   UNL     1       2.271   8.965  18.051  0.00  0.00    +0.000 A 
ATOM     30  C   UNL     1       2.996   7.894  17.701  0.00  0.00    +0.000 A 
ATOM     31  C   UNL     1       3.005   6.691  18.538  0.00  0.00    +0.000 A 
ENDBRANCH  17  18
ENDBRANCH   1  17
TORSDOF 7
ENDMDL
MODEL 7
REMARK VINA RESULT:      -8.2      3.158      9.123
REMARK  Name = 
REMARK  7 active torsions:
REMARK  status: ('A' for Active; 'I' for Inactive)
REMARK    1  A    between atoms: C_8  and  O_9
REMARK    2  A    between atoms: O_9  and  C_10
REMARK    3  A    between atoms: C_10  and  C_11
REMARK    4  A    between atoms: C_11  and  C_12
REMARK    5  A    between atoms: C_12  and  C_13
REMARK    6  A    between atoms: C_13  and  O_14
REMARK    7  A    between atoms: O_14  and  C_15
REMARK                            x       y       z     vdW  Elec       q    Type
REMARK                         _______ _______ _______ _____ _____    ______ ____
ROOT
ATOM      1  C   UNL     1       2.324   6.859  20.192  0.00  0.00    +0.000 C 
ENDROOT
BRANCH   1   2
ATOM      2  C   UNL     1       1.047   7.431  20.796  0.00  0.00    +0.000 C 
BRANCH   2   3
ATOM      3  C   UNL     1       1.184   8.954  20.989  0.00  0.00    +0.000 C 
BRANCH   3   4
ATOM      4  C   UNL     1       0.809   9.749  19.734  0.00  0.00    +0.000 C 
BRANCH   4   5
ATOM      5  O   UNL     1      -0.032  10.851  20.079  0.00  0.00    +0.000 OA
BRANCH   5  13
ATOM      6  O   UNL     1      -6.628  13.258  18.767  0.00  0.00    +0.000 OA
ATOM      7  C   UNL     1      -5.635  12.629  18.420  0.00  0.00    +0.000 A 
ATOM      8  C   UNL     1      -5.594  11.946  17.115  0.00  0.00    +0.000 A 
ATOM      9  C   UNL     1      -4.541  11.227  16.713  0.00  0.00    +0.000 A 
ATOM     10  C   UNL     1      -3.384  11.104  17.583  0.00  0.00    +0.000 A 
ATOM     11  C   UNL     1      -2.261  10.353  17.237  0.00  0.00    +0.000 A 
ATOM     12  C   UNL     1      -1.166  10.287  18.110  0.00  0.00    +0.000 A 
ATOM     13  C   UNL     1      -1.177  10.973  19.329  0.00  0.00    +0.000 A 
ATOM     14  C   UNL     1      -2.306  11.714  19.680  0.00  0.00    +0.000 A 
ATOM     15  C   UNL     1      -3.391  11.768  18.806  0.00  0.00    +0.000 A 
ATOM     16  O   UNL     1      -4.506  12.526  19.217  0.00  0.00    +0.000 OA
ENDBRANCH   5  13
ENDBRANCH   4   5
ENDBRANCH   3   4
ENDBRANCH   2   3
ENDBRANCH   1   2
BRANCH   1  17
ATOM     17  O   UNL     1       2.294   6.681  18.783  0.00  0.00    +0.000 OA
BRANCH  17  18
ATOM     18  C   UNL     1       2.804   5.432  18.376  0.00  0.00    +0.000 A 
ATOM     19  C   UNL     1       2.224   4.150  18.653  0.00  0.00    +0.000 A 
ATOM     20  C   UNL     1       1.081   3.619  19.341  0.00  0.00    +0.000 A 
ATOM     21  C   UNL     1       1.133   2.251  19.241  0.00  0.00    +0.000 A 
ATOM     22  O   UNL     1       2.215   1.878  18.521  0.00  0.00    +0.000 OA
ATOM     23  C   UNL     1       2.872   3.014  18.166  0.00  0.00    +0.000 A 
ATOM     24  C   UNL     1       4.040   3.027  17.417  0.00  0.00    +0.000 A 
ATOM     25  C   UNL     1       4.582   4.284  17.163  0.00  0.00    +0.000 A 
ATOM     26  O   UNL     1       5.775   4.284  16.403  0.00  0.00    +0.000 OA
ATOM     27  C   UNL     1       6.435   5.457  16.077  0.00  0.00    +0.000 A 
ATOM     28  O   UNL     1       7.464   5.472  15.411  0.00  0.00    +0.000 OA
ATOM     29  C   UNL     1       5.841   6.703  16.581  0.00  0.00    +0.000 A 
ATOM     30  C   UNL     1       4.710   6.722  17.299  0.00  0.00    +0.000 A 
ATOM     31  C   UNL     1       4.008   5.477  17.621  0.00  0.00    +0.000 A 
ENDBRANCH  17  18
ENDBRANCH   1  17
TORSDOF 7
ENDMDL
MODEL 8
REMARK VINA RESULT:      -8.2      2.840      9.309
REMARK  Name = 
REMARK  7 active torsions:
REMARK  status: ('A' for Active; 'I' for Inactive)
REMARK    1  A    between atoms: C_8  and  O_9
REMARK    2  A    between atoms: O_9  and  C_10
REMARK    3  A    between atoms: C_10  and  C_11
REMARK    4  A    between atoms: C_11  and  C_12
REMARK    5  A    between atoms: C_12  and  C_13
REMARK    6  A    between atoms: C_13  and  O_14
REMARK    7  A    between atoms: O_14  and  C_15
REMARK                            x       y       z     vdW  Elec       q    Type
REMARK                         _______ _______ _______ _____ _____    ______ ____
ROOT
ATOM      1  C   UNL     1       2.353   7.298  19.283  0.00  0.00    +0.000 C 
ENDROOT
BRANCH   1   2
ATOM      2  C   UNL     1       2.412   7.912  17.889  0.00  0.00    +0.000 C 
BRANCH   2   3
ATOM      3  C   UNL     1       1.699   9.279  17.878  0.00  0.00    +0.000 C 
BRANCH   3   4
ATOM      4  C   UNL     1       1.064   9.630  19.228  0.00  0.00    +0.000 C 
BRANCH   4   5
ATOM      5  O   UNL     1       0.889  11.043  19.341  0.00  0.00    +0.000 OA
BRANCH   5  13
ATOM      6  O   UNL     1      -5.874  11.903  17.210  0.00  0.00    +0.000 OA
ATOM      7  C   UNL     1      -5.004  12.020  18.065  0.00  0.00    +0.000 A 
ATOM      8  C   UNL     1      -5.307  12.632  19.370  0.00  0.00    +0.000 A 
ATOM      9  C   UNL     1      -4.378  12.804  20.316  0.00  0.00    +0.000 A 
ATOM     10  C   UNL     1      -3.013  12.375  20.066  0.00  0.00    +0.000 A 
ATOM     11  C   UNL     1      -1.990  12.543  20.999  0.00  0.00    +0.000 A 
ATOM     12  C   UNL     1      -0.695  12.092  20.707  0.00  0.00    +0.000 A 
ATOM     13  C   UNL     1      -0.410  11.464  19.491  0.00  0.00    +0.000 A 
ATOM     14  C   UNL     1      -1.431  11.308  18.552  0.00  0.00    +0.000 A 
ATOM     15  C   UNL     1      -2.713  11.766  18.851  0.00  0.00    +0.000 A 
ATOM     16  O   UNL     1      -3.702  11.588  17.863  0.00  0.00    +0.000 OA
ENDBRANCH   5  13
ENDBRANCH   4   5
ENDBRANCH   3   4
ENDBRANCH   2   3
ENDBRANCH   1   2
BRANCH   1  17
ATOM     17  O   UNL     1       3.413   6.404  19.591  0.00  0.00    +0.000 OA
BRANCH  17  18
ATOM     18  C   UNL     1       3.436   5.270  18.755  0.00  0.00    +0.000 A 
ATOM     19  C   UNL     1       2.461   4.219  18.726  0.00  0.00    +0.000 A 
ATOM     20  C   UNL     1       1.239   3.875  19.398  0.00  0.00    +0.000 A 
ATOM     21  C   UNL     1       0.808   2.675  18.889  0.00  0.00    +0.000 A 
ATOM     22  O   UNL     1       1.656   2.245  17.928  0.00  0.00    +0.000 OA
ATOM     23  C   UNL     1       2.649   3.169  17.828  0.00  0.00    +0.000 A 
ATOM     24  C   UNL     1       3.711   3.065  16.941  0.00  0.00    +0.000 A 
ATOM     25  C   UNL     1       4.644   4.097  16.990  0.00  0.00    +0.000 A 
ATOM     26  O   UNL     1       5.724   3.978  16.085  0.00  0.00    +0.000 OA
ATOM     27  C   UNL     1       6.735   4.923  16.022  0.00  0.00    +0.000 A 
ATOM     28  O   UNL     1       7.671   4.836  15.236  0.00  0.00    +0.000 OA
ATOM     29  C   UNL     1       6.636   6.048  16.961  0.00  0.00    +0.000 A 
ATOM     30  C   UNL     1       5.618   6.180  17.822  0.00  0.00    +0.000 A 
ATOM     31  C   UNL     1       4.544   5.185  17.867  0.00  0.00    +0.000 A 
ENDBRANCH  17  18
ENDBRANCH   1  17
TORSDOF 7
ENDMDL
MODEL 9
REMARK VINA RESULT:      -8.2      3.325      9.525
REMARK  Name = 
REMARK  7 active torsions:
REMARK  status: ('A' for Active; 'I' for Inactive)
REMARK    1  A    between atoms: C_8  and  O_9
REMARK    2  A    between atoms: O_9  and  C_10
REMARK    3  A    between atoms: C_10  and  C_11
REMARK    4  A    between atoms: C_11  and  C_12
REMARK    5  A    between atoms: C_12  and  C_13
REMARK    6  A    between atoms: C_13  and  O_14
REMARK    7  A    between atoms: O_14  and  C_15
REMARK                            x       y       z     vdW  Elec       q    Type
REMARK                         _______ _______ _______ _____ _____    ______ ____
ROOT
ATOM      1  C   UNL     1       2.060   7.715  19.130  0.00  0.00    +0.000 C 
ENDROOT
BRANCH   1   2
ATOM      2  C   UNL     1       1.975   8.501  17.827  0.00  0.00    +0.000 C 
BRANCH   2   3
ATOM      3  C   UNL     1       1.745   9.997  18.121  0.00  0.00    +0.000 C 
BRANCH   3   4
ATOM      4  C   UNL     1       0.478  10.254  18.943  0.00  0.00    +0.000 C 
BRANCH   4   5
ATOM      5  O   UNL     1      -0.194  11.420  18.465  0.00  0.00    +0.000 OA
BRANCH   5  13
ATOM      6  O   UNL     1      -6.824  13.252  20.392  0.00  0.00    +0.000 OA
ATOM      7  C   UNL     1      -6.061  12.591  19.697  0.00  0.00    +0.000 A 
ATOM      8  C   UNL     1      -6.583  11.628  18.711  0.00  0.00    +0.000 A 
ATOM      9  C   UNL     1      -5.783  10.869  17.956  0.00  0.00    +0.000 A 
ATOM     10  C   UNL     1      -4.342  10.987  18.096  0.00  0.00    +0.000 A 
ATOM     11  C   UNL     1      -3.449  10.212  17.356  0.00  0.00    +0.000 A 
ATOM     12  C   UNL     1      -2.068  10.383  17.522  0.00  0.00    +0.000 A 
ATOM     13  C   UNL     1      -1.564  11.331  18.418  0.00  0.00    +0.000 A 
ATOM     14  C   UNL     1      -2.457  12.097  19.169  0.00  0.00    +0.000 A 
ATOM     15  C   UNL     1      -3.829  11.913  18.999  0.00  0.00    +0.000 A 
ATOM     16  O   UNL     1      -4.682  12.710  19.788  0.00  0.00    +0.000 OA
ENDBRANCH   5  13
ENDBRANCH   4   5
ENDBRANCH   3   4
ENDBRANCH   2   3
ENDBRANCH   1   2
BRANCH   1  17
ATOM     17  O   UNL     1       3.242   6.944  19.290  0.00  0.00    +0.000 OA
BRANCH  17  18
ATOM     18  C   UNL     1       3.127   5.643  18.761  0.00  0.00    +0.000 A 
ATOM     19  C   UNL     1       2.248   4.613  19.233  0.00  0.00    +0.000 A 
ATOM     20  C   UNL     1       1.264   4.435  20.264  0.00  0.00    +0.000 A 
ATOM     21  C   UNL     1       0.798   3.147  20.176  0.00  0.00    +0.000 A 
ATOM     22  O   UNL     1       1.399   2.503  19.151  0.00  0.00    +0.000 OA
ATOM     23  C   UNL     1       2.270   3.379  18.583  0.00  0.00    +0.000 A 
ATOM     24  C   UNL     1       3.074   3.070  17.496  0.00  0.00    +0.000 A 
ATOM     25  C   UNL     1       3.917   4.087  17.058  0.00  0.00    +0.000 A 
ATOM     26  O   UNL     1       4.736   3.758  15.952  0.00  0.00    +0.000 OA
ATOM     27  C   UNL     1       5.632   4.664  15.409  0.00  0.00    +0.000 A 
ATOM     28  O   UNL     1       6.339   4.396  14.446  0.00  0.00    +0.000 OA
ATOM     29  C   UNL     1       5.702   5.982  16.057  0.00  0.00    +0.000 A 
ATOM     30  C   UNL     1       4.932   6.311  17.102  0.00  0.00    +0.000 A 
ATOM     31  C   UNL     1       3.973   5.353  17.656  0.00  0.00    +0.000 A 
ENDBRANCH  17  18
ENDBRANCH   1  17
TORSDOF 7
ENDMDL
