MODEL 1
REMARK VINA RESULT:      -8.3      0.000      0.000
REMARK  Name = 
REMARK  10 active torsions:
REMARK  status: ('A' for Active; 'I' for Inactive)
REMARK    1  A    between atoms: C_1  and  C_2
REMARK    2  A    between atoms: C_4  and  C_5
REMARK    3  A    between atoms: C_6  and  N_7
REMARK    4  A    between atoms: C_8  and  C_10
REMARK    5  A    between atoms: C_10  and  N_11
REMARK    6  A    between atoms: C_12  and  C_14
REMARK    7  A    between atoms: C_14  and  C_15
REMARK    8  A    between atoms: C_18  and  S_19
REMARK    9  A    between atoms: S_19  and  N_22
REMARK   10  A    between atoms: C_29  and  C_30
REMARK                            x       y       z     vdW  Elec       q    Type
REMARK                         _______ _______ _______ _____ _____    ______ ____
ROOT
ATOM      1  N   UNL     1       0.751   9.864  19.733  0.00  0.00    +0.000 N 
ATOM      2  C   UNL     1       1.130   9.397  20.973  0.00  0.00    +0.000 C 
ATOM      3  O   UNL     1       1.592  10.129  21.843  0.00  0.00    +0.000 OA
ATOM      4  H   UNL     1       0.357   9.228  19.047  0.00  0.00    +0.000 HD
ENDROOT
BRANCH   1   5
ATOM      5  C   UNL     1       0.888  11.268  19.349  0.00  0.00    +0.000 C 
BRANCH   5   7
ATOM      6  N   UNL     1      -1.547  11.149  19.201  0.00  0.00    +0.000 N 
ATOM      7  C   UNL     1      -0.435  11.922  18.909  0.00  0.00    +0.000 C 
ATOM      8  O   UNL     1      -0.443  12.998  18.319  0.00  0.00    +0.000 OA
ATOM      9  H   UNL     1      -1.329  10.163  19.249  0.00  0.00    +0.000 HD
BRANCH   6  15
ATOM     10  C   UNL     1      -6.932  12.267  17.562  0.00  0.00    +0.000 C 
ATOM     11  C   UNL     1      -5.518  12.003  17.985  0.00  0.00    +0.000 A 
ATOM     12  C   UNL     1      -4.695  11.176  17.229  0.00  0.00    +0.000 A 
ATOM     13  C   UNL     1      -3.377  10.910  17.636  0.00  0.00    +0.000 A 
ATOM     14  C   UNL     1      -2.546  10.009  16.778  0.00  0.00    +0.000 C 
ATOM     15  C   UNL     1      -2.871  11.486  18.818  0.00  0.00    +0.000 A 
ATOM     16  C   UNL     1      -3.705  12.289  19.613  0.00  0.00    +0.000 A 
ATOM     17  C   UNL     1      -3.309  12.837  20.956  0.00  0.00    +0.000 C 
ATOM     18  C   UNL     1      -5.018  12.560  19.168  0.00  0.00    +0.000 A 
ENDBRANCH   6  15
ENDBRANCH   5   7
ENDBRANCH   1   5
BRANCH   2  19
ATOM     19  C   UNL     1       1.003   7.892  21.161  0.00  0.00    +0.000 C 
BRANCH  19  20
ATOM     20  C   UNL     1       1.793   7.168  20.107  0.00  0.00    +0.000 A 
ATOM     21  C   UNL     1       2.407   7.675  18.977  0.00  0.00    +0.000 A 
ATOM     22  C   UNL     1       3.043   6.663  18.209  0.00  0.00    +0.000 A 
ATOM     23  C   UNL     1       2.959   5.424  18.805  0.00  0.00    +0.000 A 
ATOM     24  S   UNL     1       2.073   5.482  20.260  0.00  0.00    +0.000 S 
BRANCH  23  25
ATOM     25  S   UNL     1       3.669   3.871  18.313  0.00  0.00    +0.000 S 
ATOM     26  O   UNL     1       3.878   3.084  19.512  0.00  0.00    +0.000 OA
ATOM     27  O   UNL     1       2.794   3.413  17.253  0.00  0.00    +0.000 OA
BRANCH  25  28
ATOM     28  N   UNL     1       5.154   4.222  17.619  0.00  0.00    +0.000 NA
ATOM     29  C   UNL     1       5.175   4.641  16.192  0.00  0.00    +0.000 C 
ATOM     30  C   UNL     1       6.562   4.300  15.639  0.00  0.00    +0.000 C 
ATOM     31  O   UNL     1       7.577   5.015  16.367  0.00  0.00    +0.000 OA
ATOM     32  C   UNL     1       7.544   4.681  17.767  0.00  0.00    +0.000 C 
ATOM     33  C   UNL     1       6.169   4.977  18.393  0.00  0.00    +0.000 C 
ENDBRANCH  25  28
ENDBRANCH  23  25
ENDBRANCH  19  20
ENDBRANCH   2  19
TORSDOF 7
ENDMDL
MODEL 2
REMARK VINA RESULT:      -8.1      7.137     11.037
REMARK  Name = 
REMARK  10 active torsions:
REMARK  status: ('A' for Active; 'I' for Inactive)
REMARK    1  A    between atoms: C_1  and  C_2
REMARK    2  A    between atoms: C_4  and  C_5
REMARK    3  A    between atoms: C_6  and  N_7
REMARK    4  A    between atoms: C_8  and  C_10
REMARK    5  A    between atoms: C_10  and  N_11
REMARK    6  A    between atoms: C_12  and  C_14
REMARK    7  A    between atoms: C_14  and  C_15
REMARK    8  A    between atoms: C_18  and  S_19
REMARK    9  A    between atoms: S_19  and  N_22
REMARK   10  A    between atoms: C_29  and  C_30
REMARK                            x       y       z     vdW  Elec       q    Type
REMARK                         _______ _______ _______ _____ _____    ______ ____
ROOT
ATOM      1  N   UNL     1       8.311   8.392  18.141  0.00  0.00    +0.000 N 
ATOM      2  C   UNL     1       8.412   9.759  18.284  0.00  0.00    +0.000 C 
ATOM      3  O   UNL     1       7.794  10.546  17.574  0.00  0.00    +0.000 OA
ATOM      4  H   UNL     1       8.827   7.775  18.761  0.00  0.00    +0.000 HD
ENDROOT
BRANCH   1   5
ATOM      5  C   UNL     1       7.474   7.772  17.116  0.00  0.00    +0.000 C 
BRANCH   5   7
ATOM      6  N   UNL     1       5.396   6.499  16.936  0.00  0.00    +0.000 N 
ATOM      7  C   UNL     1       6.572   6.645  17.653  0.00  0.00    +0.000 C 
ATOM      8  O   UNL     1       6.890   6.003  18.651  0.00  0.00    +0.000 OA
ATOM      9  H   UNL     1       5.112   7.358  16.485  0.00  0.00    +0.000 HD
BRANCH   6  15
ATOM     10  C   UNL     1       1.031   3.029  18.290  0.00  0.00    +0.000 C 
ATOM     11  C   UNL     1       2.188   3.922  17.957  0.00  0.00    +0.000 A 
ATOM     12  C   UNL     1       2.145   5.279  18.254  0.00  0.00    +0.000 A 
ATOM     13  C   UNL     1       3.219   6.121  17.922  0.00  0.00    +0.000 A 
ATOM     14  C   UNL     1       3.106   7.572  18.269  0.00  0.00    +0.000 C 
ATOM     15  C   UNL     1       4.360   5.595  17.285  0.00  0.00    +0.000 A 
ATOM     16  C   UNL     1       4.399   4.234  16.940  0.00  0.00    +0.000 A 
ATOM     17  C   UNL     1       5.504   3.604  16.139  0.00  0.00    +0.000 C 
ATOM     18  C   UNL     1       3.316   3.404  17.307  0.00  0.00    +0.000 A 
ENDBRANCH   6  15
ENDBRANCH   5   7
ENDBRANCH   1   5
BRANCH   2  19
ATOM     19  C   UNL     1       9.403  10.225  19.341  0.00  0.00    +0.000 C 
BRANCH  19  20
ATOM     20  C   UNL     1      10.113  11.466  18.877  0.00  0.00    +0.000 A 
ATOM     21  C   UNL     1      11.058  11.607  17.877  0.00  0.00    +0.000 A 
ATOM     22  C   UNL     1      11.512  12.947  17.750  0.00  0.00    +0.000 A 
ATOM     23  C   UNL     1      10.856  13.806  18.605  0.00  0.00    +0.000 A 
ATOM     24  S   UNL     1       9.732  12.982  19.587  0.00  0.00    +0.000 S 
BRANCH  23  25
ATOM     25  S   UNL     1      10.978  15.571  18.764  0.00  0.00    +0.000 S 
ATOM     26  O   UNL     1      11.899  15.852  19.847  0.00  0.00    +0.000 OA
ATOM     27  O   UNL     1      11.242  16.020  17.412  0.00  0.00    +0.000 OA
BRANCH  25  28
ATOM     28  N   UNL     1       9.451  16.120  19.185  0.00  0.00    +0.000 NA
ATOM     29  C   UNL     1       9.256  16.650  20.561  0.00  0.00    +0.000 C 
ATOM     30  C   UNL     1       7.772  16.491  20.903  0.00  0.00    +0.000 C 
ATOM     31  O   UNL     1       6.965  17.242  19.978  0.00  0.00    +0.000 OA
ATOM     32  C   UNL     1       7.176  16.797  18.625  0.00  0.00    +0.000 C 
ATOM     33  C   UNL     1       8.655  16.907  18.212  0.00  0.00    +0.000 C 
ENDBRANCH  25  28
ENDBRANCH  23  25
ENDBRANCH  19  20
ENDBRANCH   2  19
TORSDOF 7
ENDMDL
MODEL 3
REMARK VINA RESULT:      -7.8      6.519      9.319
REMARK  Name = 
REMARK  10 active torsions:
REMARK  status: ('A' for Active; 'I' for Inactive)
REMARK    1  A    between atoms: C_1  and  C_2
REMARK    2  A    between atoms: C_4  and  C_5
REMARK    3  A    between atoms: C_6  and  N_7
REMARK    4  A    between atoms: C_8  and  C_10
REMARK    5  A    between atoms: C_10  and  N_11
REMARK    6  A    between atoms: C_12  and  C_14
REMARK    7  A    between atoms: C_14  and  C_15
REMARK    8  A    between atoms: C_18  and  S_19
REMARK    9  A    between atoms: S_19  and  N_22
REMARK   10  A    between atoms: C_29  and  C_30
REMARK                            x       y       z     vdW  Elec       q    Type
REMARK                         _______ _______ _______ _____ _____    ______ ____
ROOT
ATOM      1  N   UNL     1       8.182   8.733  17.768  0.00  0.00    +0.000 N 
ATOM      2  C   UNL     1       7.798   7.411  17.807  0.00  0.00    +0.000 C 
ATOM      3  O   UNL     1       7.949   6.706  18.801  0.00  0.00    +0.000 OA
ATOM      4  H   UNL     1       8.023   9.286  16.932  0.00  0.00    +0.000 HD
ENDROOT
BRANCH   1   5
ATOM      5  C   UNL     1       8.822   9.397  18.903  0.00  0.00    +0.000 C 
BRANCH   5   7
ATOM      6  N   UNL     1       8.750  11.808  19.286  0.00  0.00    +0.000 N 
ATOM      7  C   UNL     1       9.370  10.797  18.572  0.00  0.00    +0.000 C 
ATOM      8  O   UNL     1      10.237  10.949  17.715  0.00  0.00    +0.000 OA
ATOM      9  H   UNL     1       7.810  11.562  19.565  0.00  0.00    +0.000 HD
BRANCH   6  15
ATOM     10  C   UNL     1       9.551  17.432  18.468  0.00  0.00    +0.000 C 
ATOM     11  C   UNL     1       9.369  15.958  18.671  0.00  0.00    +0.000 A 
ATOM     12  C   UNL     1       8.462  15.242  17.899  0.00  0.00    +0.000 A 
ATOM     13  C   UNL     1       8.274  13.865  18.103  0.00  0.00    +0.000 A 
ATOM     14  C   UNL     1       7.281  13.156  17.238  0.00  0.00    +0.000 C 
ATOM     15  C   UNL     1       9.012  13.190  19.096  0.00  0.00    +0.000 A 
ATOM     16  C   UNL     1       9.899  13.909  19.913  0.00  0.00    +0.000 A 
ATOM     17  C   UNL     1      10.627  13.314  21.086  0.00  0.00    +0.000 C 
ATOM     18  C   UNL     1      10.087  15.288  19.670  0.00  0.00    +0.000 A 
ENDBRANCH   6  15
ENDBRANCH   5   7
ENDBRANCH   1   5
BRANCH   2  19
ATOM     19  C   UNL     1       7.235   6.864  16.503  0.00  0.00    +0.000 C 
BRANCH  19  20
ATOM     20  C   UNL     1       6.105   5.913  16.782  0.00  0.00    +0.000 A 
ATOM     21  C   UNL     1       6.068   4.539  16.640  0.00  0.00    +0.000 A 
ATOM     22  C   UNL     1       4.803   3.995  16.988  0.00  0.00    +0.000 A 
ATOM     23  C   UNL     1       3.930   4.955  17.452  0.00  0.00    +0.000 A 
ATOM     24  S   UNL     1       4.627   6.510  17.419  0.00  0.00    +0.000 S 
BRANCH  23  25
ATOM     25  S   UNL     1       2.286   4.782  18.104  0.00  0.00    +0.000 S 
ATOM     26  O   UNL     1       1.807   6.108  18.443  0.00  0.00    +0.000 OA
ATOM     27  O   UNL     1       1.609   3.965  17.118  0.00  0.00    +0.000 OA
BRANCH  25  28
ATOM     28  N   UNL     1       2.420   3.871  19.504  0.00  0.00    +0.000 NA
ATOM     29  C   UNL     1       3.782   3.625  20.049  0.00  0.00    +0.000 C 
ATOM     30  C   UNL     1       3.716   2.339  20.876  0.00  0.00    +0.000 C 
ATOM     31  O   UNL     1       2.783   2.492  21.961  0.00  0.00    +0.000 OA
ATOM     32  C   UNL     1       1.462   2.795  21.472  0.00  0.00    +0.000 C 
ATOM     33  C   UNL     1       1.451   4.070  20.609  0.00  0.00    +0.000 C 
ENDBRANCH  25  28
ENDBRANCH  23  25
ENDBRANCH  19  20
ENDBRANCH   2  19
TORSDOF 7
ENDMDL
MODEL 4
REMARK VINA RESULT:      -7.8      1.686      2.691
REMARK  Name = 
REMARK  10 active torsions:
REMARK  status: ('A' for Active; 'I' for Inactive)
REMARK    1  A    between atoms: C_1  and  C_2
REMARK    2  A    between atoms: C_4  and  C_5
REMARK    3  A    between atoms: C_6  and  N_7
REMARK    4  A    between atoms: C_8  and  C_10
REMARK    5  A    between atoms: C_10  and  N_11
REMARK    6  A    between atoms: C_12  and  C_14
REMARK    7  A    between atoms: C_14  and  C_15
REMARK    8  A    between atoms: C_18  and  S_19
REMARK    9  A    between atoms: S_19  and  N_22
REMARK   10  A    between atoms: C_29  and  C_30
REMARK                            x       y       z     vdW  Elec       q    Type
REMARK                         _______ _______ _______ _____ _____    ______ ____
ROOT
ATOM      1  N   UNL     1       1.651  11.009  18.170  0.00  0.00    +0.000 N 
ATOM      2  C   UNL     1       1.395   9.762  18.699  0.00  0.00    +0.000 C 
ATOM      3  O   UNL     1       1.044   9.596  19.863  0.00  0.00    +0.000 OA
ATOM      4  H   UNL     1       1.922  11.104  17.196  0.00  0.00    +0.000 HD
ENDROOT
BRANCH   1   5
ATOM      5  C   UNL     1       1.547  12.233  18.964  0.00  0.00    +0.000 C 
BRANCH   5   7
ATOM      6  N   UNL     1      -0.743  11.975  19.774  0.00  0.00    +0.000 N 
ATOM      7  C   UNL     1       0.115  12.791  19.054  0.00  0.00    +0.000 C 
ATOM      8  O   UNL     1      -0.194  13.834  18.484  0.00  0.00    +0.000 OA
ATOM      9  H   UNL     1      -0.455  11.006  19.759  0.00  0.00    +0.000 HD
BRANCH   6  15
ATOM     10  C   UNL     1      -6.302  13.197  20.503  0.00  0.00    +0.000 C 
ATOM     11  C   UNL     1      -4.856  12.849  20.315  0.00  0.00    +0.000 A 
ATOM     12  C   UNL     1      -3.918  13.165  21.290  0.00  0.00    +0.000 A 
ATOM     13  C   UNL     1      -2.559  12.860  21.105  0.00  0.00    +0.000 A 
ATOM     14  C   UNL     1      -1.602  13.231  22.193  0.00  0.00    +0.000 C 
ATOM     15  C   UNL     1      -2.132  12.221  19.924  0.00  0.00    +0.000 A 
ATOM     16  C   UNL     1      -3.063  11.934  18.912  0.00  0.00    +0.000 A 
ATOM     17  C   UNL     1      -2.691  11.383  17.564  0.00  0.00    +0.000 C 
ATOM     18  C   UNL     1      -4.427  12.230  19.134  0.00  0.00    +0.000 A 
ENDBRANCH   6  15
ENDBRANCH   5   7
ENDBRANCH   1   5
BRANCH   2  19
ATOM     19  C   UNL     1       1.646   8.597  17.752  0.00  0.00    +0.000 C 
BRANCH  19  20
ATOM     20  C   UNL     1       2.418   7.515  18.455  0.00  0.00    +0.000 A 
ATOM     21  C   UNL     1       2.097   6.825  19.609  0.00  0.00    +0.000 A 
ATOM     22  C   UNL     1       3.099   5.885  19.972  0.00  0.00    +0.000 A 
ATOM     23  C   UNL     1       4.123   5.831  19.051  0.00  0.00    +0.000 A 
ATOM     24  S   UNL     1       3.892   6.947  17.784  0.00  0.00    +0.000 S 
BRANCH  23  25
ATOM     25  S   UNL     1       5.542   4.764  18.986  0.00  0.00    +0.000 S 
ATOM     26  O   UNL     1       6.632   5.441  19.660  0.00  0.00    +0.000 OA
ATOM     27  O   UNL     1       5.037   3.491  19.458  0.00  0.00    +0.000 OA
BRANCH  25  28
ATOM     28  N   UNL     1       5.928   4.580  17.365  0.00  0.00    +0.000 NA
ATOM     29  C   UNL     1       7.367   4.527  16.992  0.00  0.00    +0.000 C 
ATOM     30  C   UNL     1       7.476   4.981  15.534  0.00  0.00    +0.000 C 
ATOM     31  O   UNL     1       6.724   4.099  14.681  0.00  0.00    +0.000 OA
ATOM     32  C   UNL     1       5.334   4.076  15.055  0.00  0.00    +0.000 C 
ATOM     33  C   UNL     1       5.143   3.648  16.521  0.00  0.00    +0.000 C 
ENDBRANCH  25  28
ENDBRANCH  23  25
ENDBRANCH  19  20
ENDBRANCH   2  19
TORSDOF 7
ENDMDL
MODEL 5
REMARK VINA RESULT:      -7.8      6.226      9.819
REMARK  Name = 
REMARK  10 active torsions:
REMARK  status: ('A' for Active; 'I' for Inactive)
REMARK    1  A    between atoms: C_1  and  C_2
REMARK    2  A    between atoms: C_4  and  C_5
REMARK    3  A    between atoms: C_6  and  N_7
REMARK    4  A    between atoms: C_8  and  C_10
REMARK    5  A    between atoms: C_10  and  N_11
REMARK    6  A    between atoms: C_12  and  C_14
REMARK    7  A    between atoms: C_14  and  C_15
REMARK    8  A    between atoms: C_18  and  S_19
REMARK    9  A    between atoms: S_19  and  N_22
REMARK   10  A    between atoms: C_29  and  C_30
REMARK                            x       y       z     vdW  Elec       q    Type
REMARK                         _______ _______ _______ _____ _____    ______ ____
ROOT
ATOM      1  N   UNL     1       7.768   8.768  17.716  0.00  0.00    +0.000 N 
ATOM      2  C   UNL     1       7.287   7.479  17.649  0.00  0.00    +0.000 C 
ATOM      3  O   UNL     1       7.699   6.580  18.376  0.00  0.00    +0.000 OA
ATOM      4  H   UNL     1       7.388   9.487  17.107  0.00  0.00    +0.000 HD
ENDROOT
BRANCH   1   5
ATOM      5  C   UNL     1       8.825   9.163  18.646  0.00  0.00    +0.000 C 
BRANCH   5   7
ATOM      6  N   UNL     1      10.019  11.054  19.629  0.00  0.00    +0.000 N 
ATOM      7  C   UNL     1       9.093  10.680  18.670  0.00  0.00    +0.000 C 
ATOM      8  O   UNL     1       8.482  11.440  17.924  0.00  0.00    +0.000 OA
ATOM      9  H   UNL     1      10.052  10.407  20.405  0.00  0.00    +0.000 HD
BRANCH   6  15
ATOM     10  C   UNL     1      11.444  16.434  21.028  0.00  0.00    +0.000 C 
ATOM     11  C   UNL     1      11.056  15.039  20.640  0.00  0.00    +0.000 A 
ATOM     12  C   UNL     1      10.209  14.288  21.446  0.00  0.00    +0.000 A 
ATOM     13  C   UNL     1       9.862  12.973  21.094  0.00  0.00    +0.000 A 
ATOM     14  C   UNL     1       8.948  12.220  22.008  0.00  0.00    +0.000 C 
ATOM     15  C   UNL     1      10.369  12.400  19.911  0.00  0.00    +0.000 A 
ATOM     16  C   UNL     1      11.260  13.132  19.110  0.00  0.00    +0.000 A 
ATOM     17  C   UNL     1      11.963  12.566  17.907  0.00  0.00    +0.000 C 
ATOM     18  C   UNL     1      11.573  14.461  19.473  0.00  0.00    +0.000 A 
ENDBRANCH   6  15
ENDBRANCH   5   7
ENDBRANCH   1   5
BRANCH   2  19
ATOM     19  C   UNL     1       6.256   7.231  16.557  0.00  0.00    +0.000 C 
BRANCH  19  20
ATOM     20  C   UNL     1       4.922   6.901  17.168  0.00  0.00    +0.000 A 
ATOM     21  C   UNL     1       3.861   7.741  17.450  0.00  0.00    +0.000 A 
ATOM     22  C   UNL     1       2.773   7.053  18.050  0.00  0.00    +0.000 A 
ATOM     23  C   UNL     1       3.001   5.698  18.148  0.00  0.00    +0.000 A 
ATOM     24  S   UNL     1       4.544   5.274  17.559  0.00  0.00    +0.000 S 
BRANCH  23  25
ATOM     25  S   UNL     1       1.930   4.399  18.717  0.00  0.00    +0.000 S 
ATOM     26  O   UNL     1       1.340   4.834  19.968  0.00  0.00    +0.000 OA
ATOM     27  O   UNL     1       1.112   4.097  17.561  0.00  0.00    +0.000 OA
BRANCH  25  28
ATOM     28  N   UNL     1       2.906   3.066  19.004  0.00  0.00    +0.000 NA
ATOM     29  C   UNL     1       3.240   2.738  20.415  0.00  0.00    +0.000 C 
ATOM     30  C   UNL     1       4.556   1.954  20.400  0.00  0.00    +0.000 C 
ATOM     31  O   UNL     1       4.402   0.739  19.645  0.00  0.00    +0.000 OA
ATOM     32  C   UNL     1       4.016   1.017  18.286  0.00  0.00    +0.000 C 
ATOM     33  C   UNL     1       2.707   1.824  18.219  0.00  0.00    +0.000 C 
ENDBRANCH  25  28
ENDBRANCH  23  25
ENDBRANCH  19  20
ENDBRANCH   2  19
TORSDOF 7
ENDMDL
MODEL 6
REMARK VINA RESULT:      -7.6      6.869     10.776
REMARK  Name = 
REMARK  10 active torsions:
REMARK  status: ('A' for Active; 'I' for Inactive)
REMARK    1  A    between atoms: C_1  and  C_2
REMARK    2  A    between atoms: C_4  and  C_5
REMARK    3  A    between atoms: C_6  and  N_7
REMARK    4  A    between atoms: C_8  and  C_10
REMARK    5  A    between atoms: C_10  and  N_11
REMARK    6  A    between atoms: C_12  and  C_14
REMARK    7  A    between atoms: C_14  and  C_15
REMARK    8  A    between atoms: C_18  and  S_19
REMARK    9  A    between atoms: S_19  and  N_22
REMARK   10  A    between atoms: C_29  and  C_30
REMARK                            x       y       z     vdW  Elec       q    Type
REMARK                         _______ _______ _______ _____ _____    ______ ____
ROOT
ATOM      1  N   UNL     1       8.174   7.979  18.110  0.00  0.00    +0.000 N 
ATOM      2  C   UNL     1       8.344   9.333  18.300  0.00  0.00    +0.000 C 
ATOM      3  O   UNL     1       7.706  10.175  17.675  0.00  0.00    +0.000 OA
ATOM      4  H   UNL     1       8.710   7.316  18.661  0.00  0.00    +0.000 HD
ENDROOT
BRANCH   1   5
ATOM      5  C   UNL     1       7.233   7.438  17.131  0.00  0.00    +0.000 C 
BRANCH   5   7
ATOM      6  N   UNL     1       5.118   6.228  16.973  0.00  0.00    +0.000 N 
ATOM      7  C   UNL     1       6.280   6.376  17.711  0.00  0.00    +0.000 C 
ATOM      8  O   UNL     1       6.551   5.786  18.753  0.00  0.00    +0.000 OA
ATOM      9  H   UNL     1       4.874   7.067  16.464  0.00  0.00    +0.000 HD
BRANCH   6  15
ATOM     10  C   UNL     1       0.945   2.613  18.541  0.00  0.00    +0.000 C 
ATOM     11  C   UNL     1       2.016   3.570  18.112  0.00  0.00    +0.000 A 
ATOM     12  C   UNL     1       3.128   3.121  17.410  0.00  0.00    +0.000 A 
ATOM     13  C   UNL     1       4.144   4.013  17.027  0.00  0.00    +0.000 A 
ATOM     14  C   UNL     1       5.314   3.463  16.275  0.00  0.00    +0.000 C 
ATOM     15  C   UNL     1       4.042   5.381  17.348  0.00  0.00    +0.000 A 
ATOM     16  C   UNL     1       2.945   5.841  18.095  0.00  0.00    +0.000 A 
ATOM     17  C   UNL     1       2.811   7.248  18.607  0.00  0.00    +0.000 C 
ATOM     18  C   UNL     1       1.926   4.927  18.446  0.00  0.00    +0.000 A 
ENDBRANCH   6  15
ENDBRANCH   5   7
ENDBRANCH   1   5
BRANCH   2  19
ATOM     19  C   UNL     1       9.434   9.713  19.293  0.00  0.00    +0.000 C 
BRANCH  19  20
ATOM     20  C   UNL     1       9.905  11.117  19.035  0.00  0.00    +0.000 A 
ATOM     21  C   UNL     1      10.393  11.671  17.866  0.00  0.00    +0.000 A 
ATOM     22  C   UNL     1      10.758  13.034  18.027  0.00  0.00    +0.000 A 
ATOM     23  C   UNL     1      10.477  13.506  19.290  0.00  0.00    +0.000 A 
ATOM     24  S   UNL     1       9.820  12.288  20.286  0.00  0.00    +0.000 S 
BRANCH  23  25
ATOM     25  S   UNL     1      10.643  15.143  19.960  0.00  0.00    +0.000 S 
ATOM     26  O   UNL     1      10.881  15.013  21.384  0.00  0.00    +0.000 OA
ATOM     27  O   UNL     1      11.612  15.775  19.088  0.00  0.00    +0.000 OA
BRANCH  25  28
ATOM     28  N   UNL     1       9.173  15.911  19.716  0.00  0.00    +0.000 NA
ATOM     29  C   UNL     1       8.250  16.034  20.875  0.00  0.00    +0.000 C 
ATOM     30  C   UNL     1       6.831  16.164  20.315  0.00  0.00    +0.000 C 
ATOM     31  O   UNL     1       6.728  17.339  19.490  0.00  0.00    +0.000 OA
ATOM     32  C   UNL     1       7.655  17.283  18.389  0.00  0.00    +0.000 C 
ATOM     33  C   UNL     1       9.108  17.130  18.874  0.00  0.00    +0.000 C 
ENDBRANCH  25  28
ENDBRANCH  23  25
ENDBRANCH  19  20
ENDBRANCH   2  19
TORSDOF 7
ENDMDL
MODEL 7
REMARK VINA RESULT:      -7.6      3.465     10.804
REMARK  Name = 
REMARK  10 active torsions:
REMARK  status: ('A' for Active; 'I' for Inactive)
REMARK    1  A    between atoms: C_1  and  C_2
REMARK    2  A    between atoms: C_4  and  C_5
REMARK    3  A    between atoms: C_6  and  N_7
REMARK    4  A    between atoms: C_8  and  C_10
REMARK    5  A    between atoms: C_10  and  N_11
REMARK    6  A    between atoms: C_12  and  C_14
REMARK    7  A    between atoms: C_14  and  C_15
REMARK    8  A    between atoms: C_18  and  S_19
REMARK    9  A    between atoms: S_19  and  N_22
REMARK   10  A    between atoms: C_29  and  C_30
REMARK                            x       y       z     vdW  Elec       q    Type
REMARK                         _______ _______ _______ _____ _____    ______ ____
ROOT
ATOM      1  N   UNL     1       1.697   7.606  21.205  0.00  0.00    +0.000 N 
ATOM      2  C   UNL     1       0.651   8.457  21.490  0.00  0.00    +0.000 C 
ATOM      3  O   UNL     1      -0.509   8.069  21.591  0.00  0.00    +0.000 OA
ATOM      4  H   UNL     1       2.645   7.965  21.147  0.00  0.00    +0.000 HD
ENDROOT
BRANCH   1   5
ATOM      5  C   UNL     1       1.504   6.174  20.980  0.00  0.00    +0.000 C 
BRANCH   5   7
ATOM      6  N   UNL     1       3.464   6.005  19.532  0.00  0.00    +0.000 N 
ATOM      7  C   UNL     1       2.128   5.665  19.667  0.00  0.00    +0.000 C 
ATOM      8  O   UNL     1       1.451   5.066  18.836  0.00  0.00    +0.000 OA
ATOM      9  H   UNL     1       3.703   6.841  20.048  0.00  0.00    +0.000 HD
BRANCH   6  15
ATOM     10  C   UNL     1       6.517   4.652  14.865  0.00  0.00    +0.000 C 
ATOM     11  C   UNL     1       5.740   5.025  16.091  0.00  0.00    +0.000 A 
ATOM     12  C   UNL     1       5.617   4.135  17.152  0.00  0.00    +0.000 A 
ATOM     13  C   UNL     1       4.870   4.476  18.292  0.00  0.00    +0.000 A 
ATOM     14  C   UNL     1       4.777   3.470  19.395  0.00  0.00    +0.000 C 
ATOM     15  C   UNL     1       4.239   5.732  18.375  0.00  0.00    +0.000 A 
ATOM     16  C   UNL     1       4.319   6.624  17.293  0.00  0.00    +0.000 A 
ATOM     17  C   UNL     1       3.571   7.927  17.224  0.00  0.00    +0.000 C 
ATOM     18  C   UNL     1       5.096   6.267  16.169  0.00  0.00    +0.000 A 
ENDBRANCH   6  15
ENDBRANCH   5   7
ENDBRANCH   1   5
BRANCH   2  19
ATOM     19  C   UNL     1       1.028   9.927  21.599  0.00  0.00    +0.000 C 
BRANCH  19  20
ATOM     20  C   UNL     1      -0.193  10.790  21.437  0.00  0.00    +0.000 A 
ATOM     21  C   UNL     1      -0.765  11.280  20.278  0.00  0.00    +0.000 A 
ATOM     22  C   UNL     1      -1.908  12.082  20.538  0.00  0.00    +0.000 A 
ATOM     23  C   UNL     1      -2.220  12.128  21.879  0.00  0.00    +0.000 A 
ATOM     24  S   UNL     1      -1.106  11.243  22.817  0.00  0.00    +0.000 S 
BRANCH  23  25
ATOM     25  S   UNL     1      -3.595  12.894  22.704  0.00  0.00    +0.000 S 
ATOM     26  O   UNL     1      -3.942  12.064  23.841  0.00  0.00    +0.000 OA
ATOM     27  O   UNL     1      -3.170  14.269  22.875  0.00  0.00    +0.000 OA
BRANCH  25  28
ATOM     28  N   UNL     1      -4.868  12.895  21.614  0.00  0.00    +0.000 NA
ATOM     29  C   UNL     1      -6.226  12.576  22.128  0.00  0.00    +0.000 C 
ATOM     30  C   UNL     1      -7.043  12.036  20.951  0.00  0.00    +0.000 C 
ATOM     31  O   UNL     1      -7.140  13.030  19.915  0.00  0.00    +0.000 OA
ATOM     32  C   UNL     1      -5.836  13.410  19.436  0.00  0.00    +0.000 C 
ATOM     33  C   UNL     1      -4.945  13.946  20.571  0.00  0.00    +0.000 C 
ENDBRANCH  25  28
ENDBRANCH  23  25
ENDBRANCH  19  20
ENDBRANCH   2  19
TORSDOF 7
ENDMDL
MODEL 8
REMARK VINA RESULT:      -7.6      6.903     11.143
REMARK  Name = 
REMARK  10 active torsions:
REMARK  status: ('A' for Active; 'I' for Inactive)
REMARK    1  A    between atoms: C_1  and  C_2
REMARK    2  A    between atoms: C_4  and  C_5
REMARK    3  A    between atoms: C_6  and  N_7
REMARK    4  A    between atoms: C_8  and  C_10
REMARK    5  A    between atoms: C_10  and  N_11
REMARK    6  A    between atoms: C_12  and  C_14
REMARK    7  A    between atoms: C_14  and  C_15
REMARK    8  A    between atoms: C_18  and  S_19
REMARK    9  A    between atoms: S_19  and  N_22
REMARK   10  A    between atoms: C_29  and  C_30
REMARK                            x       y       z     vdW  Elec       q    Type
REMARK                         _______ _______ _______ _____ _____    ______ ____
ROOT
ATOM      1  N   UNL     1       8.712   9.212  18.553  0.00  0.00    +0.000 N 
ATOM      2  C   UNL     1       9.070  10.540  18.644  0.00  0.00    +0.000 C 
ATOM      3  O   UNL     1       8.746  11.372  17.802  0.00  0.00    +0.000 OA
ATOM      4  H   UNL     1       8.985   8.559  19.280  0.00  0.00    +0.000 HD
ENDROOT
BRANCH   1   5
ATOM      5  C   UNL     1       7.935   8.686  17.431  0.00  0.00    +0.000 C 
BRANCH   5   7
ATOM      6  N   UNL     1       6.141   7.103  16.939  0.00  0.00    +0.000 N 
ATOM      7  C   UNL     1       7.251   7.338  17.732  0.00  0.00    +0.000 C 
ATOM      8  O   UNL     1       7.663   6.608  18.629  0.00  0.00    +0.000 OA
ATOM      9  H   UNL     1       5.708   7.958  16.617  0.00  0.00    +0.000 HD
BRANCH   6  15
ATOM     10  C   UNL     1       2.487   2.706  17.448  0.00  0.00    +0.000 C 
ATOM     11  C   UNL     1       3.458   3.843  17.336  0.00  0.00    +0.000 A 
ATOM     12  C   UNL     1       3.089   5.130  17.709  0.00  0.00    +0.000 A 
ATOM     13  C   UNL     1       3.990   6.200  17.584  0.00  0.00    +0.000 A 
ATOM     14  C   UNL     1       3.527   7.560  18.000  0.00  0.00    +0.000 C 
ATOM     15  C   UNL     1       5.288   5.978  17.082  0.00  0.00    +0.000 A 
ATOM     16  C   UNL     1       5.660   4.690  16.662  0.00  0.00    +0.000 A 
ATOM     17  C   UNL     1       6.966   4.374  15.987  0.00  0.00    +0.000 C 
ATOM     18  C   UNL     1       4.743   3.628  16.821  0.00  0.00    +0.000 A 
ENDBRANCH   6  15
ENDBRANCH   5   7
ENDBRANCH   1   5
BRANCH   2  19
ATOM     19  C   UNL     1       9.958  10.887  19.830  0.00  0.00    +0.000 C 
BRANCH  19  20
ATOM     20  C   UNL     1       9.242  11.831  20.756  0.00  0.00    +0.000 A 
ATOM     21  C   UNL     1       8.621  11.565  21.962  0.00  0.00    +0.000 A 
ATOM     22  C   UNL     1       8.033  12.725  22.533  0.00  0.00    +0.000 A 
ATOM     23  C   UNL     1       8.277  13.857  21.786  0.00  0.00    +0.000 A 
ATOM     24  S   UNL     1       9.173  13.505  20.380  0.00  0.00    +0.000 S 
BRANCH  23  25
ATOM     25  S   UNL     1       7.858  15.553  22.115  0.00  0.00    +0.000 S 
ATOM     26  O   UNL     1       6.422  15.621  22.301  0.00  0.00    +0.000 OA
ATOM     27  O   UNL     1       8.775  15.936  23.169  0.00  0.00    +0.000 OA
BRANCH  25  28
ATOM     28  N   UNL     1       8.276  16.423  20.745  0.00  0.00    +0.000 NA
ATOM     29  C   UNL     1       7.184  16.852  19.831  0.00  0.00    +0.000 C 
ATOM     30  C   UNL     1       7.801  17.037  18.441  0.00  0.00    +0.000 C 
ATOM     31  O   UNL     1       8.822  18.050  18.482  0.00  0.00    +0.000 OA
ATOM     32  C   UNL     1       9.868  17.697  19.407  0.00  0.00    +0.000 C 
ATOM     33  C   UNL     1       9.320  17.472  20.828  0.00  0.00    +0.000 C 
ENDBRANCH  25  28
ENDBRANCH  23  25
ENDBRANCH  19  20
ENDBRANCH   2  19
TORSDOF 7
ENDMDL
MODEL 9
REMARK VINA RESULT:      -7.5      2.256      3.583
REMARK  Name = 
REMARK  10 active torsions:
REMARK  status: ('A' for Active; 'I' for Inactive)
REMARK    1  A    between atoms: C_1  and  C_2
REMARK    2  A    between atoms: C_4  and  C_5
REMARK    3  A    between atoms: C_6  and  N_7
REMARK    4  A    between atoms: C_8  and  C_10
REMARK    5  A    between atoms: C_10  and  N_11
REMARK    6  A    between atoms: C_12  and  C_14
REMARK    7  A    between atoms: C_14  and  C_15
REMARK    8  A    between atoms: C_18  and  S_19
REMARK    9  A    between atoms: S_19  and  N_22
REMARK   10  A    between atoms: C_29  and  C_30
REMARK                            x       y       z     vdW  Elec       q    Type
REMARK                         _______ _______ _______ _____ _____    ______ ____
ROOT
ATOM      1  N   UNL     1       0.204   9.612  19.819  0.00  0.00    +0.000 N 
ATOM      2  C   UNL     1       0.261   8.711  20.860  0.00  0.00    +0.000 C 
ATOM      3  O   UNL     1      -0.721   8.414  21.534  0.00  0.00    +0.000 OA
ATOM      4  H   UNL     1       1.036   9.816  19.275  0.00  0.00    +0.000 HD
ENDROOT
BRANCH   1   5
ATOM      5  C   UNL     1      -1.030  10.305  19.449  0.00  0.00    +0.000 C 
BRANCH   5   7
ATOM      6  N   UNL     1       0.020  12.488  19.763  0.00  0.00    +0.000 N 
ATOM      7  C   UNL     1      -0.804  11.740  18.938  0.00  0.00    +0.000 C 
ATOM      8  O   UNL     1      -1.362  12.144  17.922  0.00  0.00    +0.000 OA
ATOM      9  H   UNL     1      -0.003  12.168  20.722  0.00  0.00    +0.000 HD
BRANCH   6  15
ATOM     10  C   UNL     1       1.277  17.986  18.705  0.00  0.00    +0.000 C 
ATOM     11  C   UNL     1       0.954  16.555  19.011  0.00  0.00    +0.000 A 
ATOM     12  C   UNL     1       1.776  15.530  18.555  0.00  0.00    +0.000 A 
ATOM     13  C   UNL     1       1.462  14.187  18.821  0.00  0.00    +0.000 A 
ATOM     14  C   UNL     1       2.388  13.134  18.300  0.00  0.00    +0.000 C 
ATOM     15  C   UNL     1       0.308  13.862  19.561  0.00  0.00    +0.000 A 
ATOM     16  C   UNL     1      -0.554  14.885  19.990  0.00  0.00    +0.000 A 
ATOM     17  C   UNL     1      -1.876  14.640  20.663  0.00  0.00    +0.000 C 
ATOM     18  C   UNL     1      -0.202  16.229  19.730  0.00  0.00    +0.000 A 
ENDBRANCH   6  15
ENDBRANCH   5   7
ENDBRANCH   1   5
BRANCH   2  19
ATOM     19  C   UNL     1       1.648   8.160  21.160  0.00  0.00    +0.000 C 
BRANCH  19  20
ATOM     20  C   UNL     1       2.143   7.339  20.001  0.00  0.00    +0.000 A 
ATOM     21  C   UNL     1       2.409   7.736  18.704  0.00  0.00    +0.000 A 
ATOM     22  C   UNL     1       2.843   6.656  17.889  0.00  0.00    +0.000 A 
ATOM     23  C   UNL     1       2.965   5.481  18.598  0.00  0.00    +0.000 A 
ATOM     24  S   UNL     1       2.508   5.678  20.229  0.00  0.00    +0.000 S 
BRANCH  23  25
ATOM     25  S   UNL     1       3.563   3.891  18.077  0.00  0.00    +0.000 S 
ATOM     26  O   UNL     1       3.710   3.068  19.261  0.00  0.00    +0.000 OA
ATOM     27  O   UNL     1       2.661   3.518  17.006  0.00  0.00    +0.000 OA
BRANCH  25  28
ATOM     28  N   UNL     1       5.072   4.148  17.394  0.00  0.00    +0.000 NA
ATOM     29  C   UNL     1       5.136   4.458  15.941  0.00  0.00    +0.000 C 
ATOM     30  C   UNL     1       6.523   4.038  15.448  0.00  0.00    +0.000 C 
ATOM     31  O   UNL     1       7.543   4.776  16.144  0.00  0.00    +0.000 OA
ATOM     32  C   UNL     1       7.471   4.550  17.564  0.00  0.00    +0.000 C 
ATOM     33  C   UNL     1       6.092   4.930  18.133  0.00  0.00    +0.000 C 
ENDBRANCH  25  28
ENDBRANCH  23  25
ENDBRANCH  19  20
ENDBRANCH   2  19
TORSDOF 7
ENDMDL
