MODEL 1
REMARK VINA RESULT:      -7.5      0.000      0.000
REMARK  Name = 
REMARK  6 active torsions:
REMARK  status: ('A' for Active; 'I' for Inactive)
REMARK    1  A    between atoms: C_1  and  C_2
REMARK    2  A    between atoms: N_4  and  C_5
REMARK    3  A    between atoms: N_9  and  C_10
REMARK    4  A    between atoms: N_9  and  C_17
REMARK    5  A    between atoms: C_10  and  C_11
REMARK    6  A    between atoms: N_14  and  C_15
REMARK                            x       y       z     vdW  Elec       q    Type
REMARK                         _______ _______ _______ _____ _____    ______ ____
ROOT
ATOM      1  C   UNL     1      -0.533   8.757  22.485  0.00  0.00    +0.000 C 
ATOM      2  C   UNL     1       0.038   9.213  21.199  0.00  0.00    +0.000 A 
ATOM      3  N   UNL     1      -0.339  10.364  20.608  0.00  0.00    +0.000 NA
ATOM      4  N   UNL     1       0.473  10.324  19.499  0.00  0.00    +0.000 N 
ATOM      5  C   UNL     1       0.485  11.449  18.601  0.00  0.00    +0.000 C 
ATOM      6  C   UNL     1       1.273   9.206  19.385  0.00  0.00    +0.000 A 
ATOM      7  N   UNL     1       2.154   8.769  18.460  0.00  0.00    +0.000 NA
ATOM      8  C   UNL     1       2.574   7.565  18.836  0.00  0.00    +0.000 A 
ATOM      9  N   UNL     1       3.404   6.766  18.100  0.00  0.00    +0.000 N 
ATOM     10  S   UNL     1       2.018   7.075  20.452  0.00  0.00    +0.000 S 
ATOM     11  C   UNL     1       1.026   8.462  20.494  0.00  0.00    +0.000 A 
ENDROOT
BRANCH   9  12
ATOM     12  C   UNL     1       3.414   5.298  18.114  0.00  0.00    +0.000 C 
ATOM     13  C   UNL     1       2.095   4.583  17.794  0.00  0.00    +0.000 C 
ATOM     14  C   UNL     1       2.388   3.109  17.493  0.00  0.00    +0.000 C 
ATOM     15  C   UNL     1       3.223   2.427  18.586  0.00  0.00    +0.000 C 
ATOM     16  C   UNL     1       4.407   3.257  19.097  0.00  0.00    +0.000 C 
ATOM     17  C   UNL     1       4.021   4.708  19.386  0.00  0.00    +0.000 C 
ENDBRANCH   9  12
BRANCH   9  18
ATOM     18  C   UNL     1       4.288   7.388  17.101  0.00  0.00    +0.000 C 
BRANCH  18  19
ATOM     19  C   UNL     1       5.360   6.546  16.482  0.00  0.00    +0.000 A 
ATOM     20  C   UNL     1       6.563   6.094  17.082  0.00  0.00    +0.000 A 
ATOM     21  N   UNL     1       7.183   5.166  16.350  0.00  0.00    +0.000 NA
ATOM     22  N   UNL     1       6.362   5.005  15.296  0.00  0.00    +0.000 N 
ATOM     23  C   UNL     1       6.379   3.768  14.551  0.00  0.00    +0.000 C 
ATOM     24  C   UNL     1       5.363   5.933  15.245  0.00  0.00    +0.000 A 
ENDBRANCH  18  19
ENDBRANCH   9  18
TORSDOF 3
ENDMDL
MODEL 2
REMARK VINA RESULT:      -7.4      1.547      2.312
REMARK  Name = 
REMARK  6 active torsions:
REMARK  status: ('A' for Active; 'I' for Inactive)
REMARK    1  A    between atoms: C_1  and  C_2
REMARK    2  A    between atoms: N_4  and  C_5
REMARK    3  A    between atoms: N_9  and  C_10
REMARK    4  A    between atoms: N_9  and  C_17
REMARK    5  A    between atoms: C_10  and  C_11
REMARK    6  A    between atoms: N_14  and  C_15
REMARK                            x       y       z     vdW  Elec       q    Type
REMARK                         _______ _______ _______ _____ _____    ______ ____
ROOT
ATOM      1  C   UNL     1      -0.368  10.127  23.039  0.00  0.00    +0.000 C 
ATOM      2  C   UNL     1       0.224  10.138  21.683  0.00  0.00    +0.000 A 
ATOM      3  N   UNL     1       0.198  11.229  20.891  0.00  0.00    +0.000 NA
ATOM      4  N   UNL     1       0.870  10.731  19.800  0.00  0.00    +0.000 N 
ATOM      5  C   UNL     1       1.180  11.615  18.708  0.00  0.00    +0.000 C 
ATOM      6  C   UNL     1       1.254   9.409  19.888  0.00  0.00    +0.000 A 
ATOM      7  N   UNL     1       1.876   8.552  19.051  0.00  0.00    +0.000 NA
ATOM      8  C   UNL     1       1.910   7.361  19.641  0.00  0.00    +0.000 A 
ATOM      9  N   UNL     1       2.380   6.217  19.057  0.00  0.00    +0.000 N 
ATOM     10  S   UNL     1       1.345   7.370  21.326  0.00  0.00    +0.000 S 
ATOM     11  C   UNL     1       0.862   8.993  21.120  0.00  0.00    +0.000 A 
ENDROOT
BRANCH   9  12
ATOM     12  C   UNL     1       1.915   4.855  19.345  0.00  0.00    +0.000 C 
ATOM     13  C   UNL     1       2.574   4.121  20.520  0.00  0.00    +0.000 C 
ATOM     14  C   UNL     1       1.719   2.904  20.888  0.00  0.00    +0.000 C 
ATOM     15  C   UNL     1       1.403   2.005  19.685  0.00  0.00    +0.000 C 
ATOM     16  C   UNL     1       0.986   2.759  18.416  0.00  0.00    +0.000 C 
ATOM     17  C   UNL     1       1.901   3.946  18.116  0.00  0.00    +0.000 C 
ENDBRANCH   9  12
BRANCH   9  18
ATOM     18  C   UNL     1       3.342   6.329  17.948  0.00  0.00    +0.000 C 
BRANCH  18  19
ATOM     19  C   UNL     1       4.688   5.693  18.113  0.00  0.00    +0.000 A 
ATOM     20  C   UNL     1       5.496   5.100  17.111  0.00  0.00    +0.000 A 
ATOM     21  N   UNL     1       6.736   4.846  17.536  0.00  0.00    +0.000 NA
ATOM     22  N   UNL     1       6.727   5.303  18.802  0.00  0.00    +0.000 N 
ATOM     23  C   UNL     1       7.963   5.693  19.436  0.00  0.00    +0.000 C 
ATOM     24  C   UNL     1       5.481   5.647  19.241  0.00  0.00    +0.000 A 
ENDBRANCH  18  19
ENDBRANCH   9  18
TORSDOF 3
ENDMDL
MODEL 3
REMARK VINA RESULT:      -7.4      1.328      1.917
REMARK  Name = 
REMARK  6 active torsions:
REMARK  status: ('A' for Active; 'I' for Inactive)
REMARK    1  A    between atoms: C_1  and  C_2
REMARK    2  A    between atoms: N_4  and  C_5
REMARK    3  A    between atoms: N_9  and  C_10
REMARK    4  A    between atoms: N_9  and  C_17
REMARK    5  A    between atoms: C_10  and  C_11
REMARK    6  A    between atoms: N_14  and  C_15
REMARK                            x       y       z     vdW  Elec       q    Type
REMARK                         _______ _______ _______ _____ _____    ______ ____
ROOT
ATOM      1  C   UNL     1      -0.196   9.486  22.863  0.00  0.00    +0.000 C 
ATOM      2  C   UNL     1       0.364   9.653  21.504  0.00  0.00    +0.000 A 
ATOM      3  N   UNL     1       0.232  10.797  20.803  0.00  0.00    +0.000 NA
ATOM      4  N   UNL     1       0.920  10.444  19.665  0.00  0.00    +0.000 N 
ATOM      5  C   UNL     1       1.133  11.434  18.643  0.00  0.00    +0.000 C 
ATOM      6  C   UNL     1       1.414   9.156  19.642  0.00  0.00    +0.000 A 
ATOM      7  N   UNL     1       2.087   8.422  18.730  0.00  0.00    +0.000 NA
ATOM      8  C   UNL     1       2.231   7.196  19.222  0.00  0.00    +0.000 A 
ATOM      9  N   UNL     1       2.781   6.145  18.542  0.00  0.00    +0.000 N 
ATOM     10  S   UNL     1       1.702   7.025  20.911  0.00  0.00    +0.000 S 
ATOM     11  C   UNL     1       1.083   8.613  20.842  0.00  0.00    +0.000 A 
ENDROOT
BRANCH   9  12
ATOM     12  C   UNL     1       2.436   4.730  18.727  0.00  0.00    +0.000 C 
ATOM     13  C   UNL     1       2.269   3.876  17.463  0.00  0.00    +0.000 C 
ATOM     14  C   UNL     1       2.287   2.396  17.858  0.00  0.00    +0.000 C 
ATOM     15  C   UNL     1       1.292   2.061  18.978  0.00  0.00    +0.000 C 
ATOM     16  C   UNL     1       1.273   3.064  20.137  0.00  0.00    +0.000 C 
ATOM     17  C   UNL     1       1.240   4.514  19.653  0.00  0.00    +0.000 C 
ENDBRANCH   9  12
BRANCH   9  18
ATOM     18  C   UNL     1       3.707   6.424  17.432  0.00  0.00    +0.000 C 
BRANCH  18  19
ATOM     19  C   UNL     1       5.131   5.979  17.571  0.00  0.00    +0.000 A 
ATOM     20  C   UNL     1       6.185   6.140  16.636  0.00  0.00    +0.000 A 
ATOM     21  N   UNL     1       7.380   5.855  17.159  0.00  0.00    +0.000 NA
ATOM     22  N   UNL     1       7.092   5.540  18.435  0.00  0.00    +0.000 N 
ATOM     23  C   UNL     1       8.103   5.674  19.456  0.00  0.00    +0.000 C 
ATOM     24  C   UNL     1       5.753   5.425  18.671  0.00  0.00    +0.000 A 
ENDBRANCH  18  19
ENDBRANCH   9  18
TORSDOF 3
ENDMDL
MODEL 4
REMARK VINA RESULT:      -7.3      1.953      6.385
REMARK  Name = 
REMARK  6 active torsions:
REMARK  status: ('A' for Active; 'I' for Inactive)
REMARK    1  A    between atoms: C_1  and  C_2
REMARK    2  A    between atoms: N_4  and  C_5
REMARK    3  A    between atoms: N_9  and  C_10
REMARK    4  A    between atoms: N_9  and  C_17
REMARK    5  A    between atoms: C_10  and  C_11
REMARK    6  A    between atoms: N_14  and  C_15
REMARK                            x       y       z     vdW  Elec       q    Type
REMARK                         _______ _______ _______ _____ _____    ______ ____
ROOT
ATOM      1  C   UNL     1       6.735   4.173  14.244  0.00  0.00    +0.000 C 
ATOM      2  C   UNL     1       6.679   5.107  15.390  0.00  0.00    +0.000 A 
ATOM      3  N   UNL     1       7.682   5.961  15.676  0.00  0.00    +0.000 NA
ATOM      4  N   UNL     1       7.139   6.586  16.774  0.00  0.00    +0.000 N 
ATOM      5  C   UNL     1       7.846   7.689  17.371  0.00  0.00    +0.000 C 
ATOM      6  C   UNL     1       5.899   6.127  17.170  0.00  0.00    +0.000 A 
ATOM      7  N   UNL     1       5.064   6.429  18.187  0.00  0.00    +0.000 NA
ATOM      8  C   UNL     1       4.029   5.598  18.122  0.00  0.00    +0.000 A 
ATOM      9  N   UNL     1       3.021   5.538  19.044  0.00  0.00    +0.000 N 
ATOM     10  S   UNL     1       4.007   4.579  16.665  0.00  0.00    +0.000 S 
ATOM     11  C   UNL     1       5.558   5.167  16.271  0.00  0.00    +0.000 A 
ENDROOT
BRANCH   9  12
ATOM     12  C   UNL     1       2.245   4.340  19.388  0.00  0.00    +0.000 C 
ATOM     13  C   UNL     1       1.235   3.834  18.349  0.00  0.00    +0.000 C 
ATOM     14  C   UNL     1       0.815   2.408  18.719  0.00  0.00    +0.000 C 
ATOM     15  C   UNL     1       0.337   2.280  20.172  0.00  0.00    +0.000 C 
ATOM     16  C   UNL     1       1.212   3.008  21.199  0.00  0.00    +0.000 C 
ATOM     17  C   UNL     1       1.570   4.428  20.757  0.00  0.00    +0.000 C 
ENDBRANCH   9  12
BRANCH   9  18
ATOM     18  C   UNL     1       2.747   6.721  19.875  0.00  0.00    +0.000 C 
BRANCH  18  19
ATOM     19  C   UNL     1       2.159   7.930  19.214  0.00  0.00    +0.000 A 
ATOM     20  C   UNL     1       2.186   8.264  17.837  0.00  0.00    +0.000 A 
ATOM     21  N   UNL     1       1.366   9.276  17.539  0.00  0.00    +0.000 NA
ATOM     22  N   UNL     1       0.795   9.568  18.723  0.00  0.00    +0.000 N 
ATOM     23  C   UNL     1      -0.491  10.221  18.760  0.00  0.00    +0.000 C 
ATOM     24  C   UNL     1       1.371   8.915  19.773  0.00  0.00    +0.000 A 
ENDBRANCH  18  19
ENDBRANCH   9  18
TORSDOF 3
ENDMDL
MODEL 5
REMARK VINA RESULT:      -7.0      1.154      1.742
REMARK  Name = 
REMARK  6 active torsions:
REMARK  status: ('A' for Active; 'I' for Inactive)
REMARK    1  A    between atoms: C_1  and  C_2
REMARK    2  A    between atoms: N_4  and  C_5
REMARK    3  A    between atoms: N_9  and  C_10
REMARK    4  A    between atoms: N_9  and  C_17
REMARK    5  A    between atoms: C_10  and  C_11
REMARK    6  A    between atoms: N_14  and  C_15
REMARK                            x       y       z     vdW  Elec       q    Type
REMARK                         _______ _______ _______ _____ _____    ______ ____
ROOT
ATOM      1  C   UNL     1       0.256   9.132  22.705  0.00  0.00    +0.000 C 
ATOM      2  C   UNL     1       0.689   9.314  21.302  0.00  0.00    +0.000 A 
ATOM      3  N   UNL     1       0.446  10.447  20.611  0.00  0.00    +0.000 NA
ATOM      4  N   UNL     1       1.048  10.117  19.420  0.00  0.00    +0.000 N 
ATOM      5  C   UNL     1       1.128  11.109  18.380  0.00  0.00    +0.000 C 
ATOM      6  C   UNL     1       1.596   8.852  19.358  0.00  0.00    +0.000 A 
ATOM      7  N   UNL     1       2.221   8.143  18.394  0.00  0.00    +0.000 NA
ATOM      8  C   UNL     1       2.462   6.928  18.875  0.00  0.00    +0.000 A 
ATOM      9  N   UNL     1       2.998   5.898  18.153  0.00  0.00    +0.000 N 
ATOM     10  S   UNL     1       2.089   6.745  20.603  0.00  0.00    +0.000 S 
ATOM     11  C   UNL     1       1.394   8.303  20.584  0.00  0.00    +0.000 A 
ENDROOT
BRANCH   9  12
ATOM     12  C   UNL     1       2.735   4.470  18.371  0.00  0.00    +0.000 C 
ATOM     13  C   UNL     1       1.311   4.072  18.781  0.00  0.00    +0.000 C 
ATOM     14  C   UNL     1       1.144   2.561  18.595  0.00  0.00    +0.000 C 
ATOM     15  C   UNL     1       2.246   1.745  19.286  0.00  0.00    +0.000 C 
ATOM     16  C   UNL     1       3.665   2.293  19.089  0.00  0.00    +0.000 C 
ATOM     17  C   UNL     1       3.742   3.804  19.308  0.00  0.00    +0.000 C 
ENDBRANCH   9  12
BRANCH   9  18
ATOM     18  C   UNL     1       3.812   6.210  16.967  0.00  0.00    +0.000 C 
BRANCH  18  19
ATOM     19  C   UNL     1       5.302   6.231  17.117  0.00  0.00    +0.000 A 
ATOM     20  C   UNL     1       6.277   5.879  16.151  0.00  0.00    +0.000 A 
ATOM     21  N   UNL     1       7.511   6.239  16.512  0.00  0.00    +0.000 NA
ATOM     22  N   UNL     1       7.319   6.847  17.698  0.00  0.00    +0.000 N 
ATOM     23  C   UNL     1       8.278   7.814  18.174  0.00  0.00    +0.000 C 
ATOM     24  C   UNL     1       6.050   6.703  18.177  0.00  0.00    +0.000 A 
ENDBRANCH  18  19
ENDBRANCH   9  18
TORSDOF 3
ENDMDL
MODEL 6
REMARK VINA RESULT:      -6.9      1.963      6.330
REMARK  Name = 
REMARK  6 active torsions:
REMARK  status: ('A' for Active; 'I' for Inactive)
REMARK    1  A    between atoms: C_1  and  C_2
REMARK    2  A    between atoms: N_4  and  C_5
REMARK    3  A    between atoms: N_9  and  C_10
REMARK    4  A    between atoms: N_9  and  C_17
REMARK    5  A    between atoms: C_10  and  C_11
REMARK    6  A    between atoms: N_14  and  C_15
REMARK                            x       y       z     vdW  Elec       q    Type
REMARK                         _______ _______ _______ _____ _____    ______ ____
ROOT
ATOM      1  C   UNL     1       6.677   4.334  14.289  0.00  0.00    +0.000 C 
ATOM      2  C   UNL     1       6.661   5.195  15.492  0.00  0.00    +0.000 A 
ATOM      3  N   UNL     1       7.672   6.033  15.795  0.00  0.00    +0.000 NA
ATOM      4  N   UNL     1       7.167   6.586  16.949  0.00  0.00    +0.000 N 
ATOM      5  C   UNL     1       7.892   7.653  17.587  0.00  0.00    +0.000 C 
ATOM      6  C   UNL     1       5.943   6.098  17.359  0.00  0.00    +0.000 A 
ATOM      7  N   UNL     1       5.145   6.332  18.421  0.00  0.00    +0.000 NA
ATOM      8  C   UNL     1       4.109   5.503  18.342  0.00  0.00    +0.000 A 
ATOM      9  N   UNL     1       3.135   5.381  19.294  0.00  0.00    +0.000 N 
ATOM     10  S   UNL     1       4.037   4.576  16.827  0.00  0.00    +0.000 S 
ATOM     11  C   UNL     1       5.572   5.195  16.415  0.00  0.00    +0.000 A 
ENDROOT
BRANCH   9  12
ATOM     12  C   UNL     1       2.374   4.161  19.591  0.00  0.00    +0.000 C 
ATOM     13  C   UNL     1       1.234   3.794  18.633  0.00  0.00    +0.000 C 
ATOM     14  C   UNL     1       0.823   2.339  18.884  0.00  0.00    +0.000 C 
ATOM     15  C   UNL     1       0.521   2.046  20.360  0.00  0.00    +0.000 C 
ATOM     16  C   UNL     1       1.533   2.638  21.349  0.00  0.00    +0.000 C 
ATOM     17  C   UNL     1       1.873   4.095  21.033  0.00  0.00    +0.000 C 
ENDBRANCH   9  12
BRANCH   9  18
ATOM     18  C   UNL     1       2.889   6.510  20.207  0.00  0.00    +0.000 C 
BRANCH  18  19
ATOM     19  C   UNL     1       2.085   7.667  19.700  0.00  0.00    +0.000 A 
ATOM     20  C   UNL     1       1.153   8.457  20.418  0.00  0.00    +0.000 A 
ATOM     21  N   UNL     1       0.791   9.556  19.751  0.00  0.00    +0.000 NA
ATOM     22  N   UNL     1       1.514   9.481  18.619  0.00  0.00    +0.000 N 
ATOM     23  C   UNL     1       1.818  10.682  17.877  0.00  0.00    +0.000 C 
ATOM     24  C   UNL     1       2.156   8.286  18.468  0.00  0.00    +0.000 A 
ENDBRANCH  18  19
ENDBRANCH   9  18
TORSDOF 3
ENDMDL
MODEL 7
REMARK VINA RESULT:      -6.9      2.057      4.283
REMARK  Name = 
REMARK  6 active torsions:
REMARK  status: ('A' for Active; 'I' for Inactive)
REMARK    1  A    between atoms: C_1  and  C_2
REMARK    2  A    between atoms: N_4  and  C_5
REMARK    3  A    between atoms: N_9  and  C_10
REMARK    4  A    between atoms: N_9  and  C_17
REMARK    5  A    between atoms: C_10  and  C_11
REMARK    6  A    between atoms: N_14  and  C_15
REMARK                            x       y       z     vdW  Elec       q    Type
REMARK                         _______ _______ _______ _____ _____    ______ ____
ROOT
ATOM      1  C   UNL     1      -0.204  10.764  18.033  0.00  0.00    +0.000 C 
ATOM      2  C   UNL     1       0.366   9.977  19.148  0.00  0.00    +0.000 A 
ATOM      3  N   UNL     1       0.087  10.245  20.440  0.00  0.00    +0.000 NA
ATOM      4  N   UNL     1       0.823   9.251  21.040  0.00  0.00    +0.000 N 
ATOM      5  C   UNL     1       0.736   9.082  22.467  0.00  0.00    +0.000 C 
ATOM      6  C   UNL     1       1.543   8.442  20.185  0.00  0.00    +0.000 A 
ATOM      7  N   UNL     1       2.397   7.411  20.361  0.00  0.00    +0.000 NA
ATOM      8  C   UNL     1       2.864   7.063  19.166  0.00  0.00    +0.000 A 
ATOM      9  N   UNL     1       3.827   6.116  18.953  0.00  0.00    +0.000 N 
ATOM     10  S   UNL     1       2.073   7.894  17.808  0.00  0.00    +0.000 S 
ATOM     11  C   UNL     1       1.252   8.879  18.933  0.00  0.00    +0.000 A 
ENDROOT
BRANCH   9  12
ATOM     12  C   UNL     1       4.790   6.107  17.845  0.00  0.00    +0.000 C 
ATOM     13  C   UNL     1       4.513   5.146  16.681  0.00  0.00    +0.000 C 
ATOM     14  C   UNL     1       5.390   5.543  15.489  0.00  0.00    +0.000 C 
ATOM     15  C   UNL     1       6.875   5.677  15.854  0.00  0.00    +0.000 C 
ATOM     16  C   UNL     1       7.147   6.423  17.165  0.00  0.00    +0.000 C 
ATOM     17  C   UNL     1       6.240   5.953  18.303  0.00  0.00    +0.000 C 
ENDBRANCH   9  12
BRANCH   9  18
ATOM     18  C   UNL     1       4.033   5.071  19.970  0.00  0.00    +0.000 C 
BRANCH  18  19
ATOM     19  C   UNL     1       2.998   3.996  20.099  0.00  0.00    +0.000 A 
ATOM     20  C   UNL     1       2.059   3.817  21.145  0.00  0.00    +0.000 A 
ATOM     21  N   UNL     1       1.121   2.915  20.843  0.00  0.00    +0.000 NA
ATOM     22  N   UNL     1       1.446   2.539  19.593  0.00  0.00    +0.000 N 
ATOM     23  C   UNL     1       0.436   1.992  18.719  0.00  0.00    +0.000 C 
ATOM     24  C   UNL     1       2.656   3.021  19.183  0.00  0.00    +0.000 A 
ENDBRANCH  18  19
ENDBRANCH   9  18
TORSDOF 3
ENDMDL
MODEL 8
REMARK VINA RESULT:      -6.9      1.858      6.404
REMARK  Name = 
REMARK  6 active torsions:
REMARK  status: ('A' for Active; 'I' for Inactive)
REMARK    1  A    between atoms: C_1  and  C_2
REMARK    2  A    between atoms: N_4  and  C_5
REMARK    3  A    between atoms: N_9  and  C_10
REMARK    4  A    between atoms: N_9  and  C_17
REMARK    5  A    between atoms: C_10  and  C_11
REMARK    6  A    between atoms: N_14  and  C_15
REMARK                            x       y       z     vdW  Elec       q    Type
REMARK                         _______ _______ _______ _____ _____    ______ ____
ROOT
ATOM      1  C   UNL     1       6.768   4.389  14.550  0.00  0.00    +0.000 C 
ATOM      2  C   UNL     1       6.673   5.332  15.686  0.00  0.00    +0.000 A 
ATOM      3  N   UNL     1       7.663   6.194  15.995  0.00  0.00    +0.000 NA
ATOM      4  N   UNL     1       7.084   6.825  17.071  0.00  0.00    +0.000 N 
ATOM      5  C   UNL     1       7.766   7.937  17.678  0.00  0.00    +0.000 C 
ATOM      6  C   UNL     1       5.836   6.362  17.433  0.00  0.00    +0.000 A 
ATOM      7  N   UNL     1       4.969   6.667  18.422  0.00  0.00    +0.000 NA
ATOM      8  C   UNL     1       3.941   5.830  18.334  0.00  0.00    +0.000 A 
ATOM      9  N   UNL     1       2.907   5.772  19.227  0.00  0.00    +0.000 N 
ATOM     10  S   UNL     1       3.968   4.798  16.887  0.00  0.00    +0.000 S 
ATOM     11  C   UNL     1       5.527   5.393  16.533  0.00  0.00    +0.000 A 
ENDROOT
BRANCH   9  12
ATOM     12  C   UNL     1       2.127   4.573  19.559  0.00  0.00    +0.000 C 
ATOM     13  C   UNL     1       2.763   3.567  20.527  0.00  0.00    +0.000 C 
ATOM     14  C   UNL     1       1.678   2.608  21.029  0.00  0.00    +0.000 C 
ATOM     15  C   UNL     1       0.874   1.962  19.893  0.00  0.00    +0.000 C 
ATOM     16  C   UNL     1       0.452   2.928  18.780  0.00  0.00    +0.000 C 
ATOM     17  C   UNL     1       1.597   3.835  18.329  0.00  0.00    +0.000 C 
ENDBRANCH   9  12
BRANCH   9  18
ATOM     18  C   UNL     1       2.602   6.961  20.039  0.00  0.00    +0.000 C 
BRANCH  18  19
ATOM     19  C   UNL     1       1.951   8.130  19.366  0.00  0.00    +0.000 A 
ATOM     20  C   UNL     1       1.923   8.428  17.981  0.00  0.00    +0.000 A 
ATOM     21  N   UNL     1       1.059   9.402  17.684  0.00  0.00    +0.000 NA
ATOM     22  N   UNL     1       0.515   9.706  18.877  0.00  0.00    +0.000 N 
ATOM     23  C   UNL     1      -0.792  10.314  18.938  0.00  0.00    +0.000 C 
ATOM     24  C   UNL     1       1.146   9.102  19.925  0.00  0.00    +0.000 A 
ENDBRANCH  18  19
ENDBRANCH   9  18
TORSDOF 3
ENDMDL
MODEL 9
REMARK VINA RESULT:      -6.8      1.247      1.655
REMARK  Name = 
REMARK  6 active torsions:
REMARK  status: ('A' for Active; 'I' for Inactive)
REMARK    1  A    between atoms: C_1  and  C_2
REMARK    2  A    between atoms: N_4  and  C_5
REMARK    3  A    between atoms: N_9  and  C_10
REMARK    4  A    between atoms: N_9  and  C_17
REMARK    5  A    between atoms: C_10  and  C_11
REMARK    6  A    between atoms: N_14  and  C_15
REMARK                            x       y       z     vdW  Elec       q    Type
REMARK                         _______ _______ _______ _____ _____    ______ ____
ROOT
ATOM      1  C   UNL     1      -0.462  10.103  23.157  0.00  0.00    +0.000 C 
ATOM      2  C   UNL     1      -0.019  10.247  21.753  0.00  0.00    +0.000 A 
ATOM      3  N   UNL     1      -0.285  11.347  21.020  0.00  0.00    +0.000 NA
ATOM      4  N   UNL     1       0.339  10.992  19.847  0.00  0.00    +0.000 N 
ATOM      5  C   UNL     1       0.403  11.948  18.773  0.00  0.00    +0.000 C 
ATOM      6  C   UNL     1       0.920   9.740  19.835  0.00  0.00    +0.000 A 
ATOM      7  N   UNL     1       1.573   9.015  18.903  0.00  0.00    +0.000 NA
ATOM      8  C   UNL     1       1.840   7.824  19.429  0.00  0.00    +0.000 A 
ATOM      9  N   UNL     1       2.411   6.783  18.749  0.00  0.00    +0.000 N 
ATOM     10  S   UNL     1       1.454   7.693  21.159  0.00  0.00    +0.000 S 
ATOM     11  C   UNL     1       0.720   9.230  21.077  0.00  0.00    +0.000 A 
ENDROOT
BRANCH   9  12
ATOM     12  C   UNL     1       2.183   5.358  19.016  0.00  0.00    +0.000 C 
ATOM     13  C   UNL     1       3.106   4.676  20.034  0.00  0.00    +0.000 C 
ATOM     14  C   UNL     1       2.488   3.335  20.445  0.00  0.00    +0.000 C 
ATOM     15  C   UNL     1       2.116   2.453  19.246  0.00  0.00    +0.000 C 
ATOM     16  C   UNL     1       1.413   3.192  18.101  0.00  0.00    +0.000 C 
ATOM     17  C   UNL     1       2.104   4.509  17.747  0.00  0.00    +0.000 C 
ENDBRANCH   9  12
BRANCH   9  18
ATOM     18  C   UNL     1       3.229   7.075  17.561  0.00  0.00    +0.000 C 
BRANCH  18  19
ATOM     19  C   UNL     1       4.637   6.564  17.528  0.00  0.00    +0.000 A 
ATOM     20  C   UNL     1       5.483   6.281  18.630  0.00  0.00    +0.000 A 
ATOM     21  N   UNL     1       6.583   5.612  18.273  0.00  0.00    +0.000 NA
ATOM     22  N   UNL     1       6.424   5.446  16.946  0.00  0.00    +0.000 N 
ATOM     23  C   UNL     1       7.095   4.360  16.272  0.00  0.00    +0.000 C 
ATOM     24  C   UNL     1       5.374   6.152  16.437  0.00  0.00    +0.000 A 
ENDBRANCH  18  19
ENDBRANCH   9  18
TORSDOF 3
ENDMDL
