MODEL 1
REMARK VINA RESULT:      -8.2      0.000      0.000
REMARK  Name = 
REMARK  7 active torsions:
REMARK  status: ('A' for Active; 'I' for Inactive)
REMARK    1  A    between atoms: C_1  and  C_2
REMARK    2  A    between atoms: N_7  and  C_8
REMARK    3  A    between atoms: C_8  and  C_9
REMARK    4  A    between atoms: C_9  and  C_10
REMARK    5  A    between atoms: C_10  and  N_11
REMARK    6  A    between atoms: C_12  and  C_14
REMARK    7  A    between atoms: N_16  and  C_17
REMARK                            x       y       z     vdW  Elec       q    Type
REMARK                         _______ _______ _______ _____ _____    ______ ____
ROOT
ATOM      1  C   UNL     1       1.157   9.337  19.611  0.00  0.00    +0.000 A 
ATOM      2  N   UNL     1       0.815   8.625  20.700  0.00  0.00    +0.000 NA
ATOM      3  N   UNL     1       0.105   9.485  21.468  0.00  0.00    +0.000 N 
ATOM      4  C   UNL     1      -0.447   8.971  22.700  0.00  0.00    +0.000 C 
ATOM      5  C   UNL     1      -0.006  10.746  20.927  0.00  0.00    +0.000 A 
ATOM      6  C   UNL     1       0.653  10.658  19.709  0.00  0.00    +0.000 A 
ATOM      7  C   UNL     1       0.779  11.771  18.735  0.00  0.00    +0.000 C 
ATOM      8  S   UNL     1      -0.654  12.832  18.802  0.00  0.00    +0.000 S 
ATOM      9  O   UNL     1      -1.798  12.155  18.221  0.00  0.00    +0.000 OA
ATOM     10  O   UNL     1      -0.256  14.147  18.327  0.00  0.00    +0.000 OA
ATOM     11  C   UNL     1      -1.004  12.999  20.541  0.00  0.00    +0.000 A 
ATOM     12  C   UNL     1      -1.577  14.204  20.969  0.00  0.00    +0.000 A 
ATOM     13  C   UNL     1      -1.862  14.383  22.315  0.00  0.00    +0.000 A 
ATOM     14  C   UNL     1      -1.573  13.365  23.219  0.00  0.00    +0.000 A 
ATOM     15  C   UNL     1      -0.984  12.166  22.784  0.00  0.00    +0.000 A 
ATOM     16  C   UNL     1      -0.684  11.953  21.432  0.00  0.00    +0.000 A 
ENDROOT
BRANCH   1  18
ATOM     17  N   UNL     1       2.461   7.512  18.775  0.00  0.00    +0.000 N 
ATOM     18  C   UNL     1       1.951   8.763  18.509  0.00  0.00    +0.000 C 
ATOM     19  O   UNL     1       2.137   9.362  17.453  0.00  0.00    +0.000 OA
ATOM     20  H   UNL     1       2.264   7.136  19.697  0.00  0.00    +0.000 HD
BRANCH  17  21
ATOM     21  C   UNL     1       3.284   6.792  17.827  0.00  0.00    +0.000 C 
BRANCH  21  22
ATOM     22  C   UNL     1       4.226   5.816  18.526  0.00  0.00    +0.000 C 
BRANCH  22  23
ATOM     23  C   UNL     1       3.578   5.132  19.740  0.00  0.00    +0.000 C 
BRANCH  23  30
ATOM     24  C   UNL     1       3.389   1.681  18.172  0.00  0.00    +0.000 C 
ATOM     25  C   UNL     1       3.032   3.162  18.391  0.00  0.00    +0.000 C 
ATOM     26  C   UNL     1       1.516   3.388  18.244  0.00  0.00    +0.000 C 
ATOM     27  C   UNL     1       0.727   2.825  19.423  0.00  0.00    +0.000 C 
ATOM     28  C   UNL     1       1.315   3.268  20.759  0.00  0.00    +0.000 C 
ATOM     29  C   UNL     1       2.828   3.052  20.819  0.00  0.00    +0.000 C 
ATOM     30  N   UNL     1       3.558   3.655  19.687  0.00  0.00    +0.000 NA
ENDBRANCH  23  30
ENDBRANCH  22  23
ENDBRANCH  21  22
ENDBRANCH  17  21
ENDBRANCH   1  18
TORSDOF 5
ENDMDL
MODEL 2
REMARK VINA RESULT:      -8.0      2.329      2.731
REMARK  Name = 
REMARK  7 active torsions:
REMARK  status: ('A' for Active; 'I' for Inactive)
REMARK    1  A    between atoms: C_1  and  C_2
REMARK    2  A    between atoms: N_7  and  C_8
REMARK    3  A    between atoms: C_8  and  C_9
REMARK    4  A    between atoms: C_9  and  C_10
REMARK    5  A    between atoms: C_10  and  N_11
REMARK    6  A    between atoms: C_12  and  C_14
REMARK    7  A    between atoms: N_16  and  C_17
REMARK                            x       y       z     vdW  Elec       q    Type
REMARK                         _______ _______ _______ _____ _____    ______ ____
ROOT
ATOM      1  C   UNL     1       0.337  10.666  19.086  0.00  0.00    +0.000 A 
ATOM      2  N   UNL     1       0.464  10.994  20.385  0.00  0.00    +0.000 NA
ATOM      3  N   UNL     1      -0.732  11.525  20.727  0.00  0.00    +0.000 N 
ATOM      4  C   UNL     1      -0.909  11.925  22.104  0.00  0.00    +0.000 C 
ATOM      5  C   UNL     1      -1.631  11.581  19.686  0.00  0.00    +0.000 A 
ATOM      6  C   UNL     1      -0.957  11.004  18.618  0.00  0.00    +0.000 A 
ATOM      7  C   UNL     1      -1.532  10.807  17.264  0.00  0.00    +0.000 C 
ATOM      8  S   UNL     1      -3.289  10.515  17.362  0.00  0.00    +0.000 S 
ATOM      9  O   UNL     1      -3.540   9.193  17.905  0.00  0.00    +0.000 OA
ATOM     10  O   UNL     1      -3.878  10.915  16.095  0.00  0.00    +0.000 OA
ATOM     11  C   UNL     1      -3.867  11.673  18.586  0.00  0.00    +0.000 A 
ATOM     12  C   UNL     1      -5.169  12.169  18.437  0.00  0.00    +0.000 A 
ATOM     13  C   UNL     1      -5.662  13.079  19.362  0.00  0.00    +0.000 A 
ATOM     14  C   UNL     1      -4.855  13.486  20.420  0.00  0.00    +0.000 A 
ATOM     15  C   UNL     1      -3.545  12.997  20.553  0.00  0.00    +0.000 A 
ATOM     16  C   UNL     1      -3.018  12.077  19.637  0.00  0.00    +0.000 A 
ENDROOT
BRANCH   1  18
ATOM     17  N   UNL     1       1.703   8.746  18.664  0.00  0.00    +0.000 N 
ATOM     18  C   UNL     1       1.433  10.050  18.315  0.00  0.00    +0.000 C 
ATOM     19  O   UNL     1       2.047  10.662  17.445  0.00  0.00    +0.000 OA
ATOM     20  H   UNL     1       1.146   8.362  19.422  0.00  0.00    +0.000 HD
BRANCH  17  21
ATOM     21  C   UNL     1       2.756   7.976  18.037  0.00  0.00    +0.000 C 
BRANCH  21  22
ATOM     22  C   UNL     1       3.053   6.695  18.810  0.00  0.00    +0.000 C 
BRANCH  22  23
ATOM     23  C   UNL     1       2.626   5.430  18.049  0.00  0.00    +0.000 C 
BRANCH  23  30
ATOM     24  C   UNL     1       3.252   1.693  18.275  0.00  0.00    +0.000 C 
ATOM     25  C   UNL     1       2.455   2.986  18.027  0.00  0.00    +0.000 C 
ATOM     26  C   UNL     1       1.010   2.846  18.537  0.00  0.00    +0.000 C 
ATOM     27  C   UNL     1       0.925   2.858  20.061  0.00  0.00    +0.000 C 
ATOM     28  C   UNL     1       1.706   4.025  20.659  0.00  0.00    +0.000 C 
ATOM     29  C   UNL     1       3.117   4.128  20.078  0.00  0.00    +0.000 C 
ATOM     30  N   UNL     1       3.149   4.163  18.603  0.00  0.00    +0.000 NA
ENDBRANCH  23  30
ENDBRANCH  22  23
ENDBRANCH  21  22
ENDBRANCH  17  21
ENDBRANCH   1  18
TORSDOF 5
ENDMDL
MODEL 3
REMARK VINA RESULT:      -8.0      2.011      3.223
REMARK  Name = 
REMARK  7 active torsions:
REMARK  status: ('A' for Active; 'I' for Inactive)
REMARK    1  A    between atoms: C_1  and  C_2
REMARK    2  A    between atoms: N_7  and  C_8
REMARK    3  A    between atoms: C_8  and  C_9
REMARK    4  A    between atoms: C_9  and  C_10
REMARK    5  A    between atoms: C_10  and  N_11
REMARK    6  A    between atoms: C_12  and  C_14
REMARK    7  A    between atoms: N_16  and  C_17
REMARK                            x       y       z     vdW  Elec       q    Type
REMARK                         _______ _______ _______ _____ _____    ______ ____
ROOT
ATOM      1  C   UNL     1       1.294   8.711  20.203  0.00  0.00    +0.000 A 
ATOM      2  N   UNL     1       1.266   8.490  21.529  0.00  0.00    +0.000 NA
ATOM      3  N   UNL     1       0.425   9.429  22.020  0.00  0.00    +0.000 N 
ATOM      4  C   UNL     1       0.155   9.401  23.439  0.00  0.00    +0.000 C 
ATOM      5  C   UNL     1      -0.079  10.276  21.058  0.00  0.00    +0.000 A 
ATOM      6  C   UNL     1       0.460   9.806  19.868  0.00  0.00    +0.000 A 
ATOM      7  C   UNL     1       0.181  10.383  18.530  0.00  0.00    +0.000 C 
ATOM      8  S   UNL     1      -1.474  11.044  18.460  0.00  0.00    +0.000 S 
ATOM      9  O   UNL     1      -2.438   9.960  18.441  0.00  0.00    +0.000 OA
ATOM     10  O   UNL     1      -1.499  12.072  17.433  0.00  0.00    +0.000 OA
ATOM     11  C   UNL     1      -1.689  11.874  20.022  0.00  0.00    +0.000 A 
ATOM     12  C   UNL     1      -2.527  12.997  20.043  0.00  0.00    +0.000 A 
ATOM     13  C   UNL     1      -2.721  13.680  21.236  0.00  0.00    +0.000 A 
ATOM     14  C   UNL     1      -2.079  13.241  22.390  0.00  0.00    +0.000 A 
ATOM     15  C   UNL     1      -1.228  12.124  22.356  0.00  0.00    +0.000 A 
ATOM     16  C   UNL     1      -1.011  11.412  21.170  0.00  0.00    +0.000 A 
ENDROOT
BRANCH   1  18
ATOM     17  N   UNL     1       2.215   6.571  19.650  0.00  0.00    +0.000 N 
ATOM     18  C   UNL     1       2.107   7.893  19.282  0.00  0.00    +0.000 C 
ATOM     19  O   UNL     1       2.638   8.366  18.281  0.00  0.00    +0.000 OA
ATOM     20  H   UNL     1       1.756   6.310  20.517  0.00  0.00    +0.000 HD
BRANCH  17  21
ATOM     21  C   UNL     1       2.987   5.614  18.887  0.00  0.00    +0.000 C 
BRANCH  21  22
ATOM     22  C   UNL     1       4.353   5.362  19.518  0.00  0.00    +0.000 C 
BRANCH  22  23
ATOM     23  C   UNL     1       5.286   4.546  18.609  0.00  0.00    +0.000 C 
BRANCH  23  30
ATOM     24  C   UNL     1       7.262   7.502  17.283  0.00  0.00    +0.000 C 
ATOM     25  C   UNL     1       6.058   6.557  17.444  0.00  0.00    +0.000 C 
ATOM     26  C   UNL     1       5.351   6.334  16.094  0.00  0.00    +0.000 C 
ATOM     27  C   UNL     1       6.163   5.451  15.150  0.00  0.00    +0.000 C 
ATOM     28  C   UNL     1       6.642   4.178  15.842  0.00  0.00    +0.000 C 
ATOM     29  C   UNL     1       7.296   4.471  17.193  0.00  0.00    +0.000 C 
ATOM     30  N   UNL     1       6.457   5.286  18.093  0.00  0.00    +0.000 NA
ENDBRANCH  23  30
ENDBRANCH  22  23
ENDBRANCH  21  22
ENDBRANCH  17  21
ENDBRANCH   1  18
TORSDOF 5
ENDMDL
MODEL 4
REMARK VINA RESULT:      -7.8      2.354      3.004
REMARK  Name = 
REMARK  7 active torsions:
REMARK  status: ('A' for Active; 'I' for Inactive)
REMARK    1  A    between atoms: C_1  and  C_2
REMARK    2  A    between atoms: N_7  and  C_8
REMARK    3  A    between atoms: C_8  and  C_9
REMARK    4  A    between atoms: C_9  and  C_10
REMARK    5  A    between atoms: C_10  and  N_11
REMARK    6  A    between atoms: C_12  and  C_14
REMARK    7  A    between atoms: N_16  and  C_17
REMARK                            x       y       z     vdW  Elec       q    Type
REMARK                         _______ _______ _______ _____ _____    ______ ____
ROOT
ATOM      1  C   UNL     1       1.867   9.359  18.388  0.00  0.00    +0.000 A 
ATOM      2  N   UNL     1       2.256  10.474  17.744  0.00  0.00    +0.000 NA
ATOM      3  N   UNL     1       1.713  11.491  18.453  0.00  0.00    +0.000 N 
ATOM      4  C   UNL     1       2.013  12.836  18.018  0.00  0.00    +0.000 C 
ATOM      5  C   UNL     1       0.959  11.076  19.527  0.00  0.00    +0.000 A 
ATOM      6  C   UNL     1       1.069   9.692  19.510  0.00  0.00    +0.000 A 
ATOM      7  C   UNL     1       0.444   8.784  20.504  0.00  0.00    +0.000 C 
ATOM      8  S   UNL     1       0.354   9.567  22.105  0.00  0.00    +0.000 S 
ATOM      9  O   UNL     1       1.680   9.656  22.686  0.00  0.00    +0.000 OA
ATOM     10  O   UNL     1      -0.735   8.947  22.842  0.00  0.00    +0.000 OA
ATOM     11  C   UNL     1      -0.149  11.240  21.755  0.00  0.00    +0.000 A 
ATOM     12  C   UNL     1      -0.926  11.893  22.722  0.00  0.00    +0.000 A 
ATOM     13  C   UNL     1      -1.347  13.195  22.492  0.00  0.00    +0.000 A 
ATOM     14  C   UNL     1      -0.994  13.831  21.305  0.00  0.00    +0.000 A 
ATOM     15  C   UNL     1      -0.230  13.163  20.334  0.00  0.00    +0.000 A 
ATOM     16  C   UNL     1       0.213  11.849  20.535  0.00  0.00    +0.000 A 
ENDROOT
BRANCH   1  18
ATOM     17  N   UNL     1       3.603   7.767  17.962  0.00  0.00    +0.000 N 
ATOM     18  C   UNL     1       2.248   8.009  17.932  0.00  0.00    +0.000 C 
ATOM     19  O   UNL     1       1.419   7.185  17.557  0.00  0.00    +0.000 OA
ATOM     20  H   UNL     1       4.189   8.541  18.262  0.00  0.00    +0.000 HD
BRANCH  17  21
ATOM     21  C   UNL     1       4.177   6.509  17.533  0.00  0.00    +0.000 C 
BRANCH  21  22
ATOM     22  C   UNL     1       4.843   5.771  18.690  0.00  0.00    +0.000 C 
BRANCH  22  23
ATOM     23  C   UNL     1       3.827   5.133  19.651  0.00  0.00    +0.000 C 
BRANCH  23  30
ATOM     24  C   UNL     1       1.187   2.864  18.141  0.00  0.00    +0.000 C 
ATOM     25  C   UNL     1       1.752   4.000  19.012  0.00  0.00    +0.000 C 
ATOM     26  C   UNL     1       1.017   4.073  20.362  0.00  0.00    +0.000 C 
ATOM     27  C   UNL     1       1.386   2.919  21.290  0.00  0.00    +0.000 C 
ATOM     28  C   UNL     1       2.898   2.738  21.392  0.00  0.00    +0.000 C 
ATOM     29  C   UNL     1       3.566   2.714  20.016  0.00  0.00    +0.000 C 
ATOM     30  N   UNL     1       3.221   3.873  19.170  0.00  0.00    +0.000 NA
ENDBRANCH  23  30
ENDBRANCH  22  23
ENDBRANCH  21  22
ENDBRANCH  17  21
ENDBRANCH   1  18
TORSDOF 5
ENDMDL
MODEL 5
REMARK VINA RESULT:      -7.8      0.659      1.185
REMARK  Name = 
REMARK  7 active torsions:
REMARK  status: ('A' for Active; 'I' for Inactive)
REMARK    1  A    between atoms: C_1  and  C_2
REMARK    2  A    between atoms: N_7  and  C_8
REMARK    3  A    between atoms: C_8  and  C_9
REMARK    4  A    between atoms: C_9  and  C_10
REMARK    5  A    between atoms: C_10  and  N_11
REMARK    6  A    between atoms: C_12  and  C_14
REMARK    7  A    between atoms: N_16  and  C_17
REMARK                            x       y       z     vdW  Elec       q    Type
REMARK                         _______ _______ _______ _____ _____    ______ ____
ROOT
ATOM      1  C   UNL     1       1.271   9.318  19.360  0.00  0.00    +0.000 A 
ATOM      2  N   UNL     1       0.927   8.493  20.366  0.00  0.00    +0.000 NA
ATOM      3  N   UNL     1       0.144   9.243  21.176  0.00  0.00    +0.000 N 
ATOM      4  C   UNL     1      -0.426   8.592  22.333  0.00  0.00    +0.000 C 
ATOM      5  C   UNL     1      -0.015  10.541  20.745  0.00  0.00    +0.000 A 
ATOM      6  C   UNL     1       0.694  10.597  19.553  0.00  0.00    +0.000 A 
ATOM      7  C   UNL     1       0.796  11.799  18.688  0.00  0.00    +0.000 C 
ATOM      8  S   UNL     1      -0.693  12.776  18.789  0.00  0.00    +0.000 S 
ATOM      9  O   UNL     1      -1.776  12.098  18.101  0.00  0.00    +0.000 OA
ATOM     10  O   UNL     1      -0.349  14.147  18.450  0.00  0.00    +0.000 OA
ATOM     11  C   UNL     1      -1.118  12.766  20.519  0.00  0.00    +0.000 A 
ATOM     12  C   UNL     1      -1.770  13.897  21.027  0.00  0.00    +0.000 A 
ATOM     13  C   UNL     1      -2.116  13.939  22.371  0.00  0.00    +0.000 A 
ATOM     14  C   UNL     1      -1.807  12.858  23.192  0.00  0.00    +0.000 A 
ATOM     15  C   UNL     1      -1.138  11.735  22.678  0.00  0.00    +0.000 A 
ATOM     16  C   UNL     1      -0.776  11.661  21.326  0.00  0.00    +0.000 A 
ENDROOT
BRANCH   1  18
ATOM     17  N   UNL     1       2.849   7.736  18.499  0.00  0.00    +0.000 N 
ATOM     18  C   UNL     1       2.136   8.887  18.246  0.00  0.00    +0.000 C 
ATOM     19  O   UNL     1       2.209   9.514  17.192  0.00  0.00    +0.000 OA
ATOM     20  H   UNL     1       2.727   7.329  19.421  0.00  0.00    +0.000 HD
BRANCH  17  21
ATOM     21  C   UNL     1       3.769   7.166  17.538  0.00  0.00    +0.000 C 
BRANCH  21  22
ATOM     22  C   UNL     1       3.956   5.668  17.759  0.00  0.00    +0.000 C 
BRANCH  22  23
ATOM     23  C   UNL     1       3.134   5.135  18.943  0.00  0.00    +0.000 C 
BRANCH  23  30
ATOM     24  C   UNL     1       0.530   2.379  18.773  0.00  0.00    +0.000 C 
ATOM     25  C   UNL     1       1.228   3.641  19.311  0.00  0.00    +0.000 C 
ATOM     26  C   UNL     1       1.198   3.671  20.850  0.00  0.00    +0.000 C 
ATOM     27  C   UNL     1       2.146   2.648  21.471  0.00  0.00    +0.000 C 
ATOM     28  C   UNL     1       3.540   2.724  20.854  0.00  0.00    +0.000 C 
ATOM     29  C   UNL     1       3.491   2.731  19.326  0.00  0.00    +0.000 C 
ATOM     30  N   UNL     1       2.601   3.767  18.767  0.00  0.00    +0.000 NA
ENDBRANCH  23  30
ENDBRANCH  22  23
ENDBRANCH  21  22
ENDBRANCH  17  21
ENDBRANCH   1  18
TORSDOF 5
ENDMDL
MODEL 6
REMARK VINA RESULT:      -7.7      6.298      9.859
REMARK  Name = 
REMARK  7 active torsions:
REMARK  status: ('A' for Active; 'I' for Inactive)
REMARK    1  A    between atoms: C_1  and  C_2
REMARK    2  A    between atoms: N_7  and  C_8
REMARK    3  A    between atoms: C_8  and  C_9
REMARK    4  A    between atoms: C_9  and  C_10
REMARK    5  A    between atoms: C_10  and  N_11
REMARK    6  A    between atoms: C_12  and  C_14
REMARK    7  A    between atoms: N_16  and  C_17
REMARK                            x       y       z     vdW  Elec       q    Type
REMARK                         _______ _______ _______ _____ _____    ______ ____
ROOT
ATOM      1  C   UNL     1       6.587   5.717  17.630  0.00  0.00    +0.000 A 
ATOM      2  N   UNL     1       6.777   4.894  16.582  0.00  0.00    +0.000 NA
ATOM      3  N   UNL     1       5.679   4.104  16.557  0.00  0.00    +0.000 N 
ATOM      4  C   UNL     1       5.581   3.141  15.485  0.00  0.00    +0.000 C 
ATOM      5  C   UNL     1       4.786   4.366  17.572  0.00  0.00    +0.000 A 
ATOM      6  C   UNL     1       5.353   5.428  18.264  0.00  0.00    +0.000 A 
ATOM      7  C   UNL     1       4.739   6.093  19.440  0.00  0.00    +0.000 C 
ATOM      8  S   UNL     1       2.959   6.064  19.322  0.00  0.00    +0.000 S 
ATOM      9  O   UNL     1       2.518   6.984  18.290  0.00  0.00    +0.000 OA
ATOM     10  O   UNL     1       2.423   6.156  20.670  0.00  0.00    +0.000 OA
ATOM     11  C   UNL     1       2.577   4.429  18.727  0.00  0.00    +0.000 A 
ATOM     12  C   UNL     1       1.363   3.862  19.139  0.00  0.00    +0.000 A 
ATOM     13  C   UNL     1       1.024   2.587  18.707  0.00  0.00    +0.000 A 
ATOM     14  C   UNL     1       1.896   1.892  17.874  0.00  0.00    +0.000 A 
ATOM     15  C   UNL     1       3.119   2.460  17.480  0.00  0.00    +0.000 A 
ATOM     16  C   UNL     1       3.490   3.745  17.897  0.00  0.00    +0.000 A 
ENDROOT
BRANCH   1  18
ATOM     17  N   UNL     1       7.642   7.808  17.136  0.00  0.00    +0.000 N 
ATOM     18  C   UNL     1       7.568   6.749  18.013  0.00  0.00    +0.000 C 
ATOM     19  O   UNL     1       8.256   6.656  19.026  0.00  0.00    +0.000 OA
ATOM     20  H   UNL     1       7.044   7.753  16.317  0.00  0.00    +0.000 HD
BRANCH  17  21
ATOM     21  C   UNL     1       8.559   8.911  17.327  0.00  0.00    +0.000 C 
BRANCH  21  22
ATOM     22  C   UNL     1       8.076   9.863  18.417  0.00  0.00    +0.000 C 
BRANCH  22  23
ATOM     23  C   UNL     1       9.209  10.326  19.347  0.00  0.00    +0.000 C 
BRANCH  23  30
ATOM     24  C   UNL     1       9.401  13.917  18.135  0.00  0.00    +0.000 C 
ATOM     25  C   UNL     1       9.632  12.396  18.107  0.00  0.00    +0.000 C 
ATOM     26  C   UNL     1      11.032  12.064  17.562  0.00  0.00    +0.000 C 
ATOM     27  C   UNL     1      12.141  12.407  18.555  0.00  0.00    +0.000 C 
ATOM     28  C   UNL     1      11.844  11.852  19.945  0.00  0.00    +0.000 C 
ATOM     29  C   UNL     1      10.424  12.185  20.405  0.00  0.00    +0.000 C 
ATOM     30  N   UNL     1       9.381  11.791  19.438  0.00  0.00    +0.000 NA
ENDBRANCH  23  30
ENDBRANCH  22  23
ENDBRANCH  21  22
ENDBRANCH  17  21
ENDBRANCH   1  18
TORSDOF 5
ENDMDL
MODEL 7
REMARK VINA RESULT:      -7.7      2.426      2.930
REMARK  Name = 
REMARK  7 active torsions:
REMARK  status: ('A' for Active; 'I' for Inactive)
REMARK    1  A    between atoms: C_1  and  C_2
REMARK    2  A    between atoms: N_7  and  C_8
REMARK    3  A    between atoms: C_8  and  C_9
REMARK    4  A    between atoms: C_9  and  C_10
REMARK    5  A    between atoms: C_10  and  N_11
REMARK    6  A    between atoms: C_12  and  C_14
REMARK    7  A    between atoms: N_16  and  C_17
REMARK                            x       y       z     vdW  Elec       q    Type
REMARK                         _______ _______ _______ _____ _____    ______ ____
ROOT
ATOM      1  C   UNL     1       0.325  10.520  19.176  0.00  0.00    +0.000 A 
ATOM      2  N   UNL     1       0.442  10.869  20.471  0.00  0.00    +0.000 NA
ATOM      3  N   UNL     1      -0.743  11.442  20.784  0.00  0.00    +0.000 N 
ATOM      4  C   UNL     1      -0.929  11.874  22.150  0.00  0.00    +0.000 C 
ATOM      5  C   UNL     1      -1.624  11.504  19.728  0.00  0.00    +0.000 A 
ATOM      6  C   UNL     1      -0.951  10.887  18.682  0.00  0.00    +0.000 A 
ATOM      7  C   UNL     1      -1.512  10.681  17.323  0.00  0.00    +0.000 C 
ATOM      8  S   UNL     1      -3.278  10.443  17.399  0.00  0.00    +0.000 S 
ATOM      9  O   UNL     1      -3.576   9.139  17.962  0.00  0.00    +0.000 OA
ATOM     10  O   UNL     1      -3.835  10.836  16.115  0.00  0.00    +0.000 OA
ATOM     11  C   UNL     1      -3.839  11.641  18.591  0.00  0.00    +0.000 A 
ATOM     12  C   UNL     1      -5.124  12.173  18.412  0.00  0.00    +0.000 A 
ATOM     13  C   UNL     1      -5.603  13.115  19.312  0.00  0.00    +0.000 A 
ATOM     14  C   UNL     1      -4.800  13.518  20.375  0.00  0.00    +0.000 A 
ATOM     15  C   UNL     1      -3.508  12.993  20.537  0.00  0.00    +0.000 A 
ATOM     16  C   UNL     1      -2.994  12.040  19.648  0.00  0.00    +0.000 A 
ENDROOT
BRANCH   1  18
ATOM     17  N   UNL     1       1.695   8.581  18.870  0.00  0.00    +0.000 N 
ATOM     18  C   UNL     1       1.413   9.857  18.434  0.00  0.00    +0.000 C 
ATOM     19  O   UNL     1       2.011  10.409  17.515  0.00  0.00    +0.000 OA
ATOM     20  H   UNL     1       1.151   8.249  19.661  0.00  0.00    +0.000 HD
BRANCH  17  21
ATOM     21  C   UNL     1       2.744   7.775  18.283  0.00  0.00    +0.000 C 
BRANCH  21  22
ATOM     22  C   UNL     1       2.365   6.297  18.247  0.00  0.00    +0.000 C 
BRANCH  22  23
ATOM     23  C   UNL     1       3.228   5.440  19.185  0.00  0.00    +0.000 C 
BRANCH  23  30
ATOM     24  C   UNL     1       5.124   3.823  16.322  0.00  0.00    +0.000 C 
ATOM     25  C   UNL     1       3.901   4.242  17.157  0.00  0.00    +0.000 C 
ATOM     26  C   UNL     1       2.845   3.122  17.182  0.00  0.00    +0.000 C 
ATOM     27  C   UNL     1       3.271   1.939  18.047  0.00  0.00    +0.000 C 
ATOM     28  C   UNL     1       3.759   2.391  19.420  0.00  0.00    +0.000 C 
ATOM     29  C   UNL     1       4.774   3.531  19.321  0.00  0.00    +0.000 C 
ATOM     30  N   UNL     1       4.303   4.675  18.517  0.00  0.00    +0.000 NA
ENDBRANCH  23  30
ENDBRANCH  22  23
ENDBRANCH  21  22
ENDBRANCH  17  21
ENDBRANCH   1  18
TORSDOF 5
ENDMDL
MODEL 8
REMARK VINA RESULT:      -7.7      2.493      3.139
REMARK  Name = 
REMARK  7 active torsions:
REMARK  status: ('A' for Active; 'I' for Inactive)
REMARK    1  A    between atoms: C_1  and  C_2
REMARK    2  A    between atoms: N_7  and  C_8
REMARK    3  A    between atoms: C_8  and  C_9
REMARK    4  A    between atoms: C_9  and  C_10
REMARK    5  A    between atoms: C_10  and  N_11
REMARK    6  A    between atoms: C_12  and  C_14
REMARK    7  A    between atoms: N_16  and  C_17
REMARK                            x       y       z     vdW  Elec       q    Type
REMARK                         _______ _______ _______ _____ _____    ______ ____
ROOT
ATOM      1  C   UNL     1       0.890  11.711  19.490  0.00  0.00    +0.000 A 
ATOM      2  N   UNL     1       1.964  12.514  19.385  0.00  0.00    +0.000 NA
ATOM      3  N   UNL     1       1.787  13.457  20.340  0.00  0.00    +0.000 N 
ATOM      4  C   UNL     1       2.832  14.442  20.499  0.00  0.00    +0.000 C 
ATOM      5  C   UNL     1       0.617  13.312  21.049  0.00  0.00    +0.000 A 
ATOM      6  C   UNL     1       0.034  12.167  20.523  0.00  0.00    +0.000 A 
ATOM      7  C   UNL     1      -1.246  11.580  20.991  0.00  0.00    +0.000 C 
ATOM      8  S   UNL     1      -1.472  11.871  22.737  0.00  0.00    +0.000 S 
ATOM      9  O   UNL     1      -0.556  11.043  23.498  0.00  0.00    +0.000 OA
ATOM     10  O   UNL     1      -2.899  11.837  23.012  0.00  0.00    +0.000 OA
ATOM     11  C   UNL     1      -0.942  13.554  22.981  0.00  0.00    +0.000 A 
ATOM     12  C   UNL     1      -1.572  14.286  23.997  0.00  0.00    +0.000 A 
ATOM     13  C   UNL     1      -1.197  15.604  24.221  0.00  0.00    +0.000 A 
ATOM     14  C   UNL     1      -0.204  16.178  23.432  0.00  0.00    +0.000 A 
ATOM     15  C   UNL     1       0.410  15.443  22.405  0.00  0.00    +0.000 A 
ATOM     16  C   UNL     1       0.056  14.111  22.153  0.00  0.00    +0.000 A 
ENDROOT
BRANCH   1  18
ATOM     17  N   UNL     1       1.803   9.741  18.482  0.00  0.00    +0.000 N 
ATOM     18  C   UNL     1       0.689  10.540  18.616  0.00  0.00    +0.000 C 
ATOM     19  O   UNL     1      -0.381  10.313  18.059  0.00  0.00    +0.000 OA
ATOM     20  H   UNL     1       2.638  10.053  18.968  0.00  0.00    +0.000 HD
BRANCH  17  21
ATOM     21  C   UNL     1       1.813   8.556  17.650  0.00  0.00    +0.000 C 
BRANCH  21  22
ATOM     22  C   UNL     1       2.928   7.596  18.051  0.00  0.00    +0.000 C 
BRANCH  22  23
ATOM     23  C   UNL     1       2.531   6.678  19.217  0.00  0.00    +0.000 C 
BRANCH  23  30
ATOM     24  C   UNL     1       3.938   3.462  17.775  0.00  0.00    +0.000 C 
ATOM     25  C   UNL     1       2.947   4.627  17.945  0.00  0.00    +0.000 C 
ATOM     26  C   UNL     1       1.495   4.136  17.807  0.00  0.00    +0.000 C 
ATOM     27  C   UNL     1       1.039   3.319  19.013  0.00  0.00    +0.000 C 
ATOM     28  C   UNL     1       1.354   4.030  20.326  0.00  0.00    +0.000 C 
ATOM     29  C   UNL     1       2.800   4.525  20.377  0.00  0.00    +0.000 C 
ATOM     30  N   UNL     1       3.184   5.352  19.217  0.00  0.00    +0.000 NA
ENDBRANCH  23  30
ENDBRANCH  22  23
ENDBRANCH  21  22
ENDBRANCH  17  21
ENDBRANCH   1  18
TORSDOF 5
ENDMDL
MODEL 9
REMARK VINA RESULT:      -7.7      2.975      3.660
REMARK  Name = 
REMARK  7 active torsions:
REMARK  status: ('A' for Active; 'I' for Inactive)
REMARK    1  A    between atoms: C_1  and  C_2
REMARK    2  A    between atoms: N_7  and  C_8
REMARK    3  A    between atoms: C_8  and  C_9
REMARK    4  A    between atoms: C_9  and  C_10
REMARK    5  A    between atoms: C_10  and  N_11
REMARK    6  A    between atoms: C_12  and  C_14
REMARK    7  A    between atoms: N_16  and  C_17
REMARK                            x       y       z     vdW  Elec       q    Type
REMARK                         _______ _______ _______ _____ _____    ______ ____
ROOT
ATOM      1  C   UNL     1      -0.426  11.674  19.462  0.00  0.00    +0.000 A 
ATOM      2  N   UNL     1      -0.632  12.032  20.742  0.00  0.00    +0.000 NA
ATOM      3  N   UNL     1      -1.967  12.234  20.836  0.00  0.00    +0.000 N 
ATOM      4  C   UNL     1      -2.495  12.584  22.134  0.00  0.00    +0.000 C 
ATOM      5  C   UNL     1      -2.639  12.044  19.649  0.00  0.00    +0.000 A 
ATOM      6  C   UNL     1      -1.652  11.657  18.753  0.00  0.00    +0.000 A 
ATOM      7  C   UNL     1      -1.895  11.307  17.331  0.00  0.00    +0.000 C 
ATOM      8  S   UNL     1      -3.504  10.564  17.130  0.00  0.00    +0.000 S 
ATOM      9  O   UNL     1      -3.505   9.227  17.693  0.00  0.00    +0.000 OA
ATOM     10  O   UNL     1      -3.928  10.787  15.758  0.00  0.00    +0.000 OA
ATOM     11  C   UNL     1      -4.578  11.539  18.164  0.00  0.00    +0.000 A 
ATOM     12  C   UNL     1      -5.912  11.675  17.758  0.00  0.00    +0.000 A 
ATOM     13  C   UNL     1      -6.786  12.431  18.528  0.00  0.00    +0.000 A 
ATOM     14  C   UNL     1      -6.322  13.043  19.689  0.00  0.00    +0.000 A 
ATOM     15  C   UNL     1      -4.979  12.916  20.080  0.00  0.00    +0.000 A 
ATOM     16  C   UNL     1      -4.072  12.159  19.326  0.00  0.00    +0.000 A 
ENDROOT
BRANCH   1  18
ATOM     17  N   UNL     1       1.122  10.024  18.680  0.00  0.00    +0.000 N 
ATOM     18  C   UNL     1       0.915  11.361  18.934  0.00  0.00    +0.000 C 
ATOM     19  O   UNL     1       1.765  12.228  18.748  0.00  0.00    +0.000 OA
ATOM     20  H   UNL     1       0.352   9.402  18.907  0.00  0.00    +0.000 HD
BRANCH  17  21
ATOM     21  C   UNL     1       2.381   9.514  18.179  0.00  0.00    +0.000 C 
BRANCH  21  22
ATOM     22  C   UNL     1       2.281   8.040  17.802  0.00  0.00    +0.000 C 
BRANCH  22  23
ATOM     23  C   UNL     1       2.156   7.121  19.028  0.00  0.00    +0.000 C 
BRANCH  23  30
ATOM     24  C   UNL     1       4.291   4.306  17.643  0.00  0.00    +0.000 C 
ATOM     25  C   UNL     1       3.055   5.211  17.785  0.00  0.00    +0.000 C 
ATOM     26  C   UNL     1       1.758   4.396  17.633  0.00  0.00    +0.000 C 
ATOM     27  C   UNL     1       1.484   3.506  18.843  0.00  0.00    +0.000 C 
ATOM     28  C   UNL     1       1.605   4.281  20.152  0.00  0.00    +0.000 C 
ATOM     29  C   UNL     1       2.896   5.098  20.216  0.00  0.00    +0.000 C 
ATOM     30  N   UNL     1       3.097   5.981  19.051  0.00  0.00    +0.000 NA
ENDBRANCH  23  30
ENDBRANCH  22  23
ENDBRANCH  21  22
ENDBRANCH  17  21
ENDBRANCH   1  18
TORSDOF 5
ENDMDL
