MODEL 1
REMARK VINA RESULT:      -8.4      0.000      0.000
REMARK  Name = 
REMARK  7 active torsions:
REMARK  status: ('A' for Active; 'I' for Inactive)
REMARK    1  A    between atoms: C_1  and  O_2
REMARK    2  A    between atoms: O_2  and  C_3
REMARK    3  A    between atoms: C_5  and  C_6
REMARK    4  A    between atoms: C_8  and  C_9
REMARK    5  A    between atoms: C_18  and  C_19
REMARK    6  A    between atoms: C_20  and  C_21
REMARK    7  A    between atoms: C_24  and  O_25
REMARK                            x       y       z     vdW  Elec       q    Type
REMARK                         _______ _______ _______ _____ _____    ______ ____
ROOT
ATOM      1  C   UNL     1       4.145   3.866  17.600  0.00  0.00    +0.000 C 
ATOM      2  O   UNL     1       2.950   4.653  17.461  0.00  0.00    +0.000 OA
ATOM      3  C   UNL     1       2.256   4.698  18.725  0.00  0.00    +0.000 C 
ATOM      4  C   UNL     1       3.103   3.884  19.725  0.00  0.00    +0.000 C 
ATOM      5  C   UNL     1       2.562   2.456  19.874  0.00  0.00    +0.000 C 
ATOM      6  C   UNL     1       4.498   3.894  19.093  0.00  0.00    +0.000 C 
ATOM      7  C   UNL     1       5.286   5.135  19.530  0.00  0.00    +0.000 C 
ENDROOT
BRANCH   3   8
ATOM      8  C   UNL     1       2.021   6.135  19.169  0.00  0.00    +0.000 A 
ATOM      9  C   UNL     1       1.674   6.458  20.503  0.00  0.00    +0.000 A 
ATOM     10  C   UNL     1       1.385   7.772  20.887  0.00  0.00    +0.000 A 
ATOM     11  C   UNL     1       1.459   8.748  19.922  0.00  0.00    +0.000 A 
ATOM     12  C   UNL     1       1.832   8.461  18.632  0.00  0.00    +0.000 A 
ATOM     13  C   UNL     1       2.134   7.177  18.228  0.00  0.00    +0.000 A 
ATOM     14  O   UNL     1       1.840   9.563  17.835  0.00  0.00    +0.000 OA
ATOM     15  C   UNL     1       1.366  10.565  18.759  0.00  0.00    +0.000 C 
ATOM     16  O   UNL     1       1.183  10.069  20.102  0.00  0.00    +0.000 OA
ENDBRANCH   3   8
BRANCH   1  19
ATOM     17  C   UNL     1       7.073   5.714  15.912  0.00  0.00    +0.000 A 
ATOM     18  C   UNL     1       6.121   5.311  16.862  0.00  0.00    +0.000 A 
ATOM     19  C   UNL     1       5.234   4.249  16.621  0.00  0.00    +0.000 A 
ATOM     20  C   UNL     1       5.330   3.572  15.398  0.00  0.00    +0.000 A 
ATOM     21  C   UNL     1       6.261   3.973  14.434  0.00  0.00    +0.000 A 
ATOM     22  C   UNL     1       7.118   5.048  14.684  0.00  0.00    +0.000 A 
BRANCH  17  24
ATOM     23  C   UNL     1       7.438   7.473  17.494  0.00  0.00    +0.000 C 
ATOM     24  O   UNL     1       7.850   6.758  16.339  0.00  0.00    +0.000 OA
ENDBRANCH  17  24
BRANCH  22  25
ATOM     25  O   UNL     1       7.977   5.429  13.689  0.00  0.00    +0.000 OA
ATOM     26  H   UNL     1       8.655   4.745  13.575  0.00  0.00    +0.000 HD
ENDBRANCH  22  25
ENDBRANCH   1  19
TORSDOF 4
ENDMDL
MODEL 2
REMARK VINA RESULT:      -8.4      1.473      6.873
REMARK  Name = 
REMARK  7 active torsions:
REMARK  status: ('A' for Active; 'I' for Inactive)
REMARK    1  A    between atoms: C_1  and  O_2
REMARK    2  A    between atoms: O_2  and  C_3
REMARK    3  A    between atoms: C_5  and  C_6
REMARK    4  A    between atoms: C_8  and  C_9
REMARK    5  A    between atoms: C_18  and  C_19
REMARK    6  A    between atoms: C_20  and  C_21
REMARK    7  A    between atoms: C_24  and  O_25
REMARK                            x       y       z     vdW  Elec       q    Type
REMARK                         _______ _______ _______ _____ _____    ______ ____
ROOT
ATOM      1  C   UNL     1       2.662   5.571  20.046  0.00  0.00    +0.000 C 
ATOM      2  O   UNL     1       4.095   5.612  19.938  0.00  0.00    +0.000 OA
ATOM      3  C   UNL     1       4.564   4.392  19.326  0.00  0.00    +0.000 C 
ATOM      4  C   UNL     1       3.315   3.542  19.020  0.00  0.00    +0.000 C 
ATOM      5  C   UNL     1       3.079   2.492  20.114  0.00  0.00    +0.000 C 
ATOM      6  C   UNL     1       2.186   4.576  18.980  0.00  0.00    +0.000 C 
ATOM      7  C   UNL     1       2.046   5.176  17.576  0.00  0.00    +0.000 C 
ENDROOT
BRANCH   3   8
ATOM      8  C   UNL     1       5.405   4.689  18.092  0.00  0.00    +0.000 A 
ATOM      9  C   UNL     1       6.299   5.786  18.043  0.00  0.00    +0.000 A 
ATOM     10  C   UNL     1       7.013   6.098  16.882  0.00  0.00    +0.000 A 
ATOM     11  C   UNL     1       6.824   5.293  15.783  0.00  0.00    +0.000 A 
ATOM     12  C   UNL     1       5.993   4.201  15.822  0.00  0.00    +0.000 A 
ATOM     13  C   UNL     1       5.286   3.863  16.958  0.00  0.00    +0.000 A 
ATOM     14  O   UNL     1       5.943   3.541  14.634  0.00  0.00    +0.000 OA
ATOM     15  C   UNL     1       6.792   4.383  13.826  0.00  0.00    +0.000 C 
ATOM     16  O   UNL     1       7.405   5.461  14.563  0.00  0.00    +0.000 OA
ENDBRANCH   3   8
BRANCH   1  19
ATOM     17  C   UNL     1       0.447   8.579  20.990  0.00  0.00    +0.000 A 
ATOM     18  C   UNL     1       1.102   7.337  21.038  0.00  0.00    +0.000 A 
ATOM     19  C   UNL     1       2.021   6.943  20.052  0.00  0.00    +0.000 A 
ATOM     20  C   UNL     1       2.294   7.836  19.007  0.00  0.00    +0.000 A 
ATOM     21  C   UNL     1       1.637   9.069  18.936  0.00  0.00    +0.000 A 
ATOM     22  C   UNL     1       0.707   9.432  19.913  0.00  0.00    +0.000 A 
BRANCH  17  24
ATOM     23  C   UNL     1       0.065   9.551  23.144  0.00  0.00    +0.000 C 
ATOM     24  O   UNL     1      -0.401   8.780  22.047  0.00  0.00    +0.000 OA
ENDBRANCH  17  24
BRANCH  22  25
ATOM     25  O   UNL     1       0.058  10.628  19.770  0.00  0.00    +0.000 OA
ATOM     26  H   UNL     1       0.699  11.350  19.857  0.00  0.00    +0.000 HD
ENDBRANCH  22  25
ENDBRANCH   1  19
TORSDOF 4
ENDMDL
MODEL 3
REMARK VINA RESULT:      -8.0      0.854      2.012
REMARK  Name = 
REMARK  7 active torsions:
REMARK  status: ('A' for Active; 'I' for Inactive)
REMARK    1  A    between atoms: C_1  and  O_2
REMARK    2  A    between atoms: O_2  and  C_3
REMARK    3  A    between atoms: C_5  and  C_6
REMARK    4  A    between atoms: C_8  and  C_9
REMARK    5  A    between atoms: C_18  and  C_19
REMARK    6  A    between atoms: C_20  and  C_21
REMARK    7  A    between atoms: C_24  and  O_25
REMARK                            x       y       z     vdW  Elec       q    Type
REMARK                         _______ _______ _______ _____ _____    ______ ____
ROOT
ATOM      1  C   UNL     1       4.379   3.939  17.430  0.00  0.00    +0.000 C 
ATOM      2  O   UNL     1       3.105   4.604  17.402  0.00  0.00    +0.000 OA
ATOM      3  C   UNL     1       2.545   4.622  18.732  0.00  0.00    +0.000 C 
ATOM      4  C   UNL     1       3.568   3.926  19.653  0.00  0.00    +0.000 C 
ATOM      5  C   UNL     1       3.187   2.458  19.890  0.00  0.00    +0.000 C 
ATOM      6  C   UNL     1       4.881   4.048  18.876  0.00  0.00    +0.000 C 
ATOM      7  C   UNL     1       5.585   5.372  19.198  0.00  0.00    +0.000 C 
ENDROOT
BRANCH   3   8
ATOM      8  C   UNL     1       2.218   6.044  19.166  0.00  0.00    +0.000 A 
ATOM      9  C   UNL     1       1.782   6.343  20.480  0.00  0.00    +0.000 A 
ATOM     10  C   UNL     1       1.410   7.639  20.852  0.00  0.00    +0.000 A 
ATOM     11  C   UNL     1       1.491   8.623  19.895  0.00  0.00    +0.000 A 
ATOM     12  C   UNL     1       1.949   8.363  18.628  0.00  0.00    +0.000 A 
ATOM     13  C   UNL     1       2.334   7.096  18.237  0.00  0.00    +0.000 A 
ATOM     14  O   UNL     1       1.949   9.468  17.835  0.00  0.00    +0.000 OA
ATOM     15  C   UNL     1       1.377  10.441  18.735  0.00  0.00    +0.000 C 
ATOM     16  O   UNL     1       1.143   9.929  20.063  0.00  0.00    +0.000 OA
ENDBRANCH   3   8
BRANCH   1  19
ATOM     17  C   UNL     1       6.360   4.085  14.129  0.00  0.00    +0.000 A 
ATOM     18  C   UNL     1       5.426   3.709  15.109  0.00  0.00    +0.000 A 
ATOM     19  C   UNL     1       5.317   4.392  16.332  0.00  0.00    +0.000 A 
ATOM     20  C   UNL     1       6.161   5.488  16.555  0.00  0.00    +0.000 A 
ATOM     21  C   UNL     1       7.107   5.864  15.595  0.00  0.00    +0.000 A 
ATOM     22  C   UNL     1       7.216   5.156  14.396  0.00  0.00    +0.000 A 
BRANCH  17  24
ATOM     23  C   UNL     1       5.150   3.398  12.180  0.00  0.00    +0.000 C 
ATOM     24  O   UNL     1       6.302   3.303  13.005  0.00  0.00    +0.000 OA
ENDBRANCH  17  24
BRANCH  22  25
ATOM     25  O   UNL     1       8.191   5.536  13.513  0.00  0.00    +0.000 OA
ATOM     26  H   UNL     1       7.836   5.498  12.612  0.00  0.00    +0.000 HD
ENDBRANCH  22  25
ENDBRANCH   1  19
TORSDOF 4
ENDMDL
MODEL 4
REMARK VINA RESULT:      -8.0      1.234      6.567
REMARK  Name = 
REMARK  7 active torsions:
REMARK  status: ('A' for Active; 'I' for Inactive)
REMARK    1  A    between atoms: C_1  and  O_2
REMARK    2  A    between atoms: O_2  and  C_3
REMARK    3  A    between atoms: C_5  and  C_6
REMARK    4  A    between atoms: C_8  and  C_9
REMARK    5  A    between atoms: C_18  and  C_19
REMARK    6  A    between atoms: C_20  and  C_21
REMARK    7  A    between atoms: C_24  and  O_25
REMARK                            x       y       z     vdW  Elec       q    Type
REMARK                         _______ _______ _______ _____ _____    ______ ____
ROOT
ATOM      1  C   UNL     1       2.772   5.623  20.003  0.00  0.00    +0.000 C 
ATOM      2  O   UNL     1       4.200   5.730  19.874  0.00  0.00    +0.000 OA
ATOM      3  C   UNL     1       4.725   4.498  19.337  0.00  0.00    +0.000 C 
ATOM      4  C   UNL     1       3.519   3.567  19.102  0.00  0.00    +0.000 C 
ATOM      5  C   UNL     1       3.348   2.580  20.265  0.00  0.00    +0.000 C 
ATOM      6  C   UNL     1       2.338   4.537  19.010  0.00  0.00    +0.000 C 
ATOM      7  C   UNL     1       2.154   5.037  17.572  0.00  0.00    +0.000 C 
ENDROOT
BRANCH   3   8
ATOM      8  C   UNL     1       5.539   4.756  18.076  0.00  0.00    +0.000 A 
ATOM      9  C   UNL     1       6.460   5.827  17.987  0.00  0.00    +0.000 A 
ATOM     10  C   UNL     1       7.149   6.106  16.802  0.00  0.00    +0.000 A 
ATOM     11  C   UNL     1       6.907   5.292  15.720  0.00  0.00    +0.000 A 
ATOM     12  C   UNL     1       6.048   4.224  15.797  0.00  0.00    +0.000 A 
ATOM     13  C   UNL     1       5.365   3.920  16.957  0.00  0.00    +0.000 A 
ATOM     14  O   UNL     1       5.947   3.551  14.620  0.00  0.00    +0.000 OA
ATOM     15  C   UNL     1       6.794   4.359  13.777  0.00  0.00    +0.000 C 
ATOM     16  O   UNL     1       7.457   5.429  14.482  0.00  0.00    +0.000 OA
ENDBRANCH   3   8
BRANCH   1  19
ATOM     17  C   UNL     1       1.634   9.111  18.826  0.00  0.00    +0.000 A 
ATOM     18  C   UNL     1       2.230   7.839  18.847  0.00  0.00    +0.000 A 
ATOM     19  C   UNL     1       2.061   6.958  19.928  0.00  0.00    +0.000 A 
ATOM     20  C   UNL     1       1.255   7.370  20.998  0.00  0.00    +0.000 A 
ATOM     21  C   UNL     1       0.669   8.640  20.998  0.00  0.00    +0.000 A 
ATOM     22  C   UNL     1       0.870   9.511  19.925  0.00  0.00    +0.000 A 
BRANCH  17  24
ATOM     23  C   UNL     1       2.459  11.115  17.809  0.00  0.00    +0.000 C 
ATOM     24  O   UNL     1       1.909   9.813  17.682  0.00  0.00    +0.000 OA
ENDBRANCH  17  24
BRANCH  22  25
ATOM     25  O   UNL     1       0.314  10.760  19.998  0.00  0.00    +0.000 OA
ATOM     26  H   UNL     1       0.746  11.259  20.709  0.00  0.00    +0.000 HD
ENDBRANCH  22  25
ENDBRANCH   1  19
TORSDOF 4
ENDMDL
MODEL 5
REMARK VINA RESULT:      -8.0      1.318      6.742
REMARK  Name = 
REMARK  7 active torsions:
REMARK  status: ('A' for Active; 'I' for Inactive)
REMARK    1  A    between atoms: C_1  and  O_2
REMARK    2  A    between atoms: O_2  and  C_3
REMARK    3  A    between atoms: C_5  and  C_6
REMARK    4  A    between atoms: C_8  and  C_9
REMARK    5  A    between atoms: C_18  and  C_19
REMARK    6  A    between atoms: C_20  and  C_21
REMARK    7  A    between atoms: C_24  and  O_25
REMARK                            x       y       z     vdW  Elec       q    Type
REMARK                         _______ _______ _______ _____ _____    ______ ____
ROOT
ATOM      1  C   UNL     1       2.721   6.005  19.956  0.00  0.00    +0.000 C 
ATOM      2  O   UNL     1       4.087   5.870  19.530  0.00  0.00    +0.000 OA
ATOM      3  C   UNL     1       4.357   4.489  19.215  0.00  0.00    +0.000 C 
ATOM      4  C   UNL     1       3.044   3.716  19.452  0.00  0.00    +0.000 C 
ATOM      5  C   UNL     1       3.043   3.039  20.829  0.00  0.00    +0.000 C 
ATOM      6  C   UNL     1       1.973   4.806  19.360  0.00  0.00    +0.000 C 
ATOM      7  C   UNL     1       1.521   5.005  17.908  0.00  0.00    +0.000 C 
ENDROOT
BRANCH   3   8
ATOM      8  C   UNL     1       4.889   4.347  17.795  0.00  0.00    +0.000 A 
ATOM      9  C   UNL     1       4.466   3.301  16.940  0.00  0.00    +0.000 A 
ATOM     10  C   UNL     1       5.013   3.130  15.664  0.00  0.00    +0.000 A 
ATOM     11  C   UNL     1       5.976   4.025  15.260  0.00  0.00    +0.000 A 
ATOM     12  C   UNL     1       6.371   5.070  16.058  0.00  0.00    +0.000 A 
ATOM     13  C   UNL     1       5.840   5.268  17.316  0.00  0.00    +0.000 A 
ATOM     14  O   UNL     1       7.334   5.835  15.477  0.00  0.00    +0.000 OA
ATOM     15  C   UNL     1       7.542   5.111  14.247  0.00  0.00    +0.000 C 
ATOM     16  O   UNL     1       6.641   3.998  14.073  0.00  0.00    +0.000 OA
ENDBRANCH   3   8
BRANCH   1  19
ATOM     17  C   UNL     1       0.765   9.296  20.381  0.00  0.00    +0.000 A 
ATOM     18  C   UNL     1       1.366   8.057  20.656  0.00  0.00    +0.000 A 
ATOM     19  C   UNL     1       2.145   7.381  19.702  0.00  0.00    +0.000 A 
ATOM     20  C   UNL     1       2.330   7.985  18.451  0.00  0.00    +0.000 A 
ATOM     21  C   UNL     1       1.722   9.210  18.156  0.00  0.00    +0.000 A 
ATOM     22  C   UNL     1       0.932   9.855  19.111  0.00  0.00    +0.000 A 
BRANCH  17  24
ATOM     23  C   UNL     1       0.406   9.360  22.747  0.00  0.00    +0.000 C 
ATOM     24  O   UNL     1       0.058   9.797  21.442  0.00  0.00    +0.000 OA
ENDBRANCH  17  24
BRANCH  22  25
ATOM     25  O   UNL     1       0.322  11.027  18.754  0.00  0.00    +0.000 OA
ATOM     26  H   UNL     1      -0.611  10.992  19.015  0.00  0.00    +0.000 HD
ENDBRANCH  22  25
ENDBRANCH   1  19
TORSDOF 4
ENDMDL
MODEL 6
REMARK VINA RESULT:      -8.0      0.682      1.457
REMARK  Name = 
REMARK  7 active torsions:
REMARK  status: ('A' for Active; 'I' for Inactive)
REMARK    1  A    between atoms: C_1  and  O_2
REMARK    2  A    between atoms: O_2  and  C_3
REMARK    3  A    between atoms: C_5  and  C_6
REMARK    4  A    between atoms: C_8  and  C_9
REMARK    5  A    between atoms: C_18  and  C_19
REMARK    6  A    between atoms: C_20  and  C_21
REMARK    7  A    between atoms: C_24  and  O_25
REMARK                            x       y       z     vdW  Elec       q    Type
REMARK                         _______ _______ _______ _____ _____    ______ ____
ROOT
ATOM      1  C   UNL     1       4.210   3.866  17.683  0.00  0.00    +0.000 C 
ATOM      2  O   UNL     1       2.981   4.588  17.495  0.00  0.00    +0.000 OA
ATOM      3  C   UNL     1       2.278   4.671  18.752  0.00  0.00    +0.000 C 
ATOM      4  C   UNL     1       3.155   3.955  19.799  0.00  0.00    +0.000 C 
ATOM      5  C   UNL     1       2.679   2.514  20.026  0.00  0.00    +0.000 C 
ATOM      6  C   UNL     1       4.552   3.994  19.173  0.00  0.00    +0.000 C 
ATOM      7  C   UNL     1       5.279   5.293  19.542  0.00  0.00    +0.000 C 
ENDROOT
BRANCH   3   8
ATOM      8  C   UNL     1       1.974   6.119  19.113  0.00  0.00    +0.000 A 
ATOM      9  C   UNL     1       2.115   7.168  18.174  0.00  0.00    +0.000 A 
ATOM     10  C   UNL     1       1.908   8.505  18.531  0.00  0.00    +0.000 A 
ATOM     11  C   UNL     1       1.550   8.767  19.833  0.00  0.00    +0.000 A 
ATOM     12  C   UNL     1       1.368   7.760  20.748  0.00  0.00    +0.000 A 
ATOM     13  C   UNL     1       1.555   6.433  20.420  0.00  0.00    +0.000 A 
ATOM     14  O   UNL     1       1.020   8.230  21.977  0.00  0.00    +0.000 OA
ATOM     15  C   UNL     1       1.066   9.652  21.741  0.00  0.00    +0.000 C 
ATOM     16  O   UNL     1       1.339  10.001  20.368  0.00  0.00    +0.000 OA
ENDBRANCH   3   8
BRANCH   1  19
ATOM     17  C   UNL     1       7.102   5.717  15.936  0.00  0.00    +0.000 A 
ATOM     18  C   UNL     1       6.163   5.321  16.902  0.00  0.00    +0.000 A 
ATOM     19  C   UNL     1       5.286   4.244  16.687  0.00  0.00    +0.000 A 
ATOM     20  C   UNL     1       5.380   3.546  15.476  0.00  0.00    +0.000 A 
ATOM     21  C   UNL     1       6.299   3.939  14.498  0.00  0.00    +0.000 A 
ATOM     22  C   UNL     1       7.145   5.029  14.721  0.00  0.00    +0.000 A 
BRANCH  17  24
ATOM     23  C   UNL     1       7.450   7.519  17.474  0.00  0.00    +0.000 C 
ATOM     24  O   UNL     1       7.870   6.778  16.338  0.00  0.00    +0.000 OA
ENDBRANCH  17  24
BRANCH  22  25
ATOM     25  O   UNL     1       7.991   5.401  13.711  0.00  0.00    +0.000 OA
ATOM     26  H   UNL     1       8.754   4.803  13.699  0.00  0.00    +0.000 HD
ENDBRANCH  22  25
ENDBRANCH   1  19
TORSDOF 4
ENDMDL
MODEL 7
REMARK VINA RESULT:      -7.8      1.315      6.799
REMARK  Name = 
REMARK  7 active torsions:
REMARK  status: ('A' for Active; 'I' for Inactive)
REMARK    1  A    between atoms: C_1  and  O_2
REMARK    2  A    between atoms: O_2  and  C_3
REMARK    3  A    between atoms: C_5  and  C_6
REMARK    4  A    between atoms: C_8  and  C_9
REMARK    5  A    between atoms: C_18  and  C_19
REMARK    6  A    between atoms: C_20  and  C_21
REMARK    7  A    between atoms: C_24  and  O_25
REMARK                            x       y       z     vdW  Elec       q    Type
REMARK                         _______ _______ _______ _____ _____    ______ ____
ROOT
ATOM      1  C   UNL     1       3.505   5.799  19.359  0.00  0.00    +0.000 C 
ATOM      2  O   UNL     1       4.804   5.838  18.745  0.00  0.00    +0.000 OA
ATOM      3  C   UNL     1       5.196   4.502  18.369  0.00  0.00    +0.000 C 
ATOM      4  C   UNL     1       4.036   3.569  18.771  0.00  0.00    +0.000 C 
ATOM      5  C   UNL     1       4.312   2.896  20.122  0.00  0.00    +0.000 C 
ATOM      6  C   UNL     1       2.835   4.516  18.850  0.00  0.00    +0.000 C 
ATOM      7  C   UNL     1       2.163   4.660  17.479  0.00  0.00    +0.000 C 
ENDROOT
BRANCH   3   8
ATOM      8  C   UNL     1       5.537   4.430  16.887  0.00  0.00    +0.000 A 
ATOM      9  C   UNL     1       4.811   3.608  15.992  0.00  0.00    +0.000 A 
ATOM     10  C   UNL     1       5.176   3.488  14.647  0.00  0.00    +0.000 A 
ATOM     11  C   UNL     1       6.265   4.208  14.216  0.00  0.00    +0.000 A 
ATOM     12  C   UNL     1       6.958   5.042  15.058  0.00  0.00    +0.000 A 
ATOM     13  C   UNL     1       6.613   5.189  16.387  0.00  0.00    +0.000 A 
ATOM     14  O   UNL     1       8.001   5.658  14.440  0.00  0.00    +0.000 OA
ATOM     15  C   UNL     1       7.920   5.065  13.127  0.00  0.00    +0.000 C 
ATOM     16  O   UNL     1       6.785   4.192  12.958  0.00  0.00    +0.000 OA
ENDBRANCH   3   8
BRANCH   1  19
ATOM     17  C   UNL     1       1.091   8.724  20.039  0.00  0.00    +0.000 A 
ATOM     18  C   UNL     1       1.870   7.568  20.216  0.00  0.00    +0.000 A 
ATOM     19  C   UNL     1       2.731   7.092  19.214  0.00  0.00    +0.000 A 
ATOM     20  C   UNL     1       2.817   7.815  18.016  0.00  0.00    +0.000 A 
ATOM     21  C   UNL     1       2.035   8.958  17.819  0.00  0.00    +0.000 A 
ATOM     22  C   UNL     1       1.166   9.401  18.818  0.00  0.00    +0.000 A 
BRANCH  17  24
ATOM     23  C   UNL     1       0.596  10.240  21.824  0.00  0.00    +0.000 C 
ATOM     24  O   UNL     1       0.327   9.029  21.134  0.00  0.00    +0.000 OA
ENDBRANCH  17  24
BRANCH  22  25
ATOM     25  O   UNL     1       0.388  10.497  18.554  0.00  0.00    +0.000 OA
ATOM     26  H   UNL     1       0.596  11.195  19.195  0.00  0.00    +0.000 HD
ENDBRANCH  22  25
ENDBRANCH   1  19
TORSDOF 4
ENDMDL
MODEL 8
REMARK VINA RESULT:      -7.7      3.152      4.833
REMARK  Name = 
REMARK  7 active torsions:
REMARK  status: ('A' for Active; 'I' for Inactive)
REMARK    1  A    between atoms: C_1  and  O_2
REMARK    2  A    between atoms: O_2  and  C_3
REMARK    3  A    between atoms: C_5  and  C_6
REMARK    4  A    between atoms: C_8  and  C_9
REMARK    5  A    between atoms: C_18  and  C_19
REMARK    6  A    between atoms: C_20  and  C_21
REMARK    7  A    between atoms: C_24  and  O_25
REMARK                            x       y       z     vdW  Elec       q    Type
REMARK                         _______ _______ _______ _____ _____    ______ ____
ROOT
ATOM      1  C   UNL     1       7.182   5.032  16.182  0.00  0.00    +0.000 C 
ATOM      2  O   UNL     1       6.659   3.901  16.899  0.00  0.00    +0.000 OA
ATOM      3  C   UNL     1       6.185   4.331  18.192  0.00  0.00    +0.000 C 
ATOM      4  C   UNL     1       6.423   5.853  18.267  0.00  0.00    +0.000 C 
ATOM      5  C   UNL     1       7.720   6.173  19.022  0.00  0.00    +0.000 C 
ATOM      6  C   UNL     1       6.513   6.268  16.796  0.00  0.00    +0.000 C 
ATOM      7  C   UNL     1       5.122   6.576  16.230  0.00  0.00    +0.000 C 
ENDROOT
BRANCH   3   8
ATOM      8  C   UNL     1       4.728   3.941  18.396  0.00  0.00    +0.000 A 
ATOM      9  C   UNL     1       3.970   3.321  17.374  0.00  0.00    +0.000 A 
ATOM     10  C   UNL     1       2.611   3.034  17.541  0.00  0.00    +0.000 A 
ATOM     11  C   UNL     1       2.034   3.367  18.744  0.00  0.00    +0.000 A 
ATOM     12  C   UNL     1       2.760   3.931  19.762  0.00  0.00    +0.000 A 
ATOM     13  C   UNL     1       4.104   4.215  19.629  0.00  0.00    +0.000 A 
ATOM     14  O   UNL     1       2.004   4.186  20.863  0.00  0.00    +0.000 OA
ATOM     15  C   UNL     1       0.704   3.773  20.395  0.00  0.00    +0.000 C 
ATOM     16  O   UNL     1       0.724   3.193  19.074  0.00  0.00    +0.000 OA
ENDBRANCH   3   8
BRANCH   1  19
ATOM     17  C   UNL     1       6.281   3.728  12.670  0.00  0.00    +0.000 A 
ATOM     18  C   UNL     1       6.280   3.924  14.061  0.00  0.00    +0.000 A 
ATOM     19  C   UNL     1       7.109   4.876  14.678  0.00  0.00    +0.000 A 
ATOM     20  C   UNL     1       7.940   5.656  13.863  0.00  0.00    +0.000 A 
ATOM     21  C   UNL     1       7.964   5.461  12.478  0.00  0.00    +0.000 A 
ATOM     22  C   UNL     1       7.151   4.491  11.887  0.00  0.00    +0.000 A 
BRANCH  17  24
ATOM     23  C   UNL     1       4.282   3.162  11.482  0.00  0.00    +0.000 C 
ATOM     24  O   UNL     1       5.397   2.763  12.264  0.00  0.00    +0.000 OA
ENDBRANCH  17  24
BRANCH  22  25
ATOM     25  O   UNL     1       7.250   4.308  10.534  0.00  0.00    +0.000 OA
ATOM     26  H   UNL     1       6.776   5.023  10.081  0.00  0.00    +0.000 HD
ENDBRANCH  22  25
ENDBRANCH   1  19
TORSDOF 4
ENDMDL
MODEL 9
REMARK VINA RESULT:      -7.7      2.942      4.788
REMARK  Name = 
REMARK  7 active torsions:
REMARK  status: ('A' for Active; 'I' for Inactive)
REMARK    1  A    between atoms: C_1  and  O_2
REMARK    2  A    between atoms: O_2  and  C_3
REMARK    3  A    between atoms: C_5  and  C_6
REMARK    4  A    between atoms: C_8  and  C_9
REMARK    5  A    between atoms: C_18  and  C_19
REMARK    6  A    between atoms: C_20  and  C_21
REMARK    7  A    between atoms: C_24  and  O_25
REMARK                            x       y       z     vdW  Elec       q    Type
REMARK                         _______ _______ _______ _____ _____    ______ ____
ROOT
ATOM      1  C   UNL     1       7.256   5.039  16.397  0.00  0.00    +0.000 C 
ATOM      2  O   UNL     1       6.604   4.007  17.156  0.00  0.00    +0.000 OA
ATOM      3  C   UNL     1       6.224   4.529  18.446  0.00  0.00    +0.000 C 
ATOM      4  C   UNL     1       6.665   6.007  18.473  0.00  0.00    +0.000 C 
ATOM      5  C   UNL     1       8.011   6.168  19.193  0.00  0.00    +0.000 C 
ATOM      6  C   UNL     1       6.773   6.369  16.990  0.00  0.00    +0.000 C 
ATOM      7  C   UNL     1       5.422   6.846  16.445  0.00  0.00    +0.000 C 
ENDROOT
BRANCH   3   8
ATOM      8  C   UNL     1       4.733   4.343  18.692  0.00  0.00    +0.000 A 
ATOM      9  C   UNL     1       3.990   5.243  19.494  0.00  0.00    +0.000 A 
ATOM     10  C   UNL     1       2.638   5.027  19.779  0.00  0.00    +0.000 A 
ATOM     11  C   UNL     1       2.046   3.908  19.242  0.00  0.00    +0.000 A 
ATOM     12  C   UNL     1       2.738   3.044  18.429  0.00  0.00    +0.000 A 
ATOM     13  C   UNL     1       4.069   3.240  18.122  0.00  0.00    +0.000 A 
ATOM     14  O   UNL     1       1.974   2.002  18.006  0.00  0.00    +0.000 OA
ATOM     15  C   UNL     1       0.739   2.277  18.700  0.00  0.00    +0.000 C 
ATOM     16  O   UNL     1       0.756   3.518  19.435  0.00  0.00    +0.000 OA
ENDBRANCH   3   8
BRANCH   1  19
ATOM     17  C   UNL     1       6.161   3.725  12.945  0.00  0.00    +0.000 A 
ATOM     18  C   UNL     1       6.216   3.949  14.330  0.00  0.00    +0.000 A 
ATOM     19  C   UNL     1       7.126   4.857  14.900  0.00  0.00    +0.000 A 
ATOM     20  C   UNL     1       7.981   5.562  14.043  0.00  0.00    +0.000 A 
ATOM     21  C   UNL     1       7.949   5.336  12.663  0.00  0.00    +0.000 A 
ATOM     22  C   UNL     1       7.055   4.411  12.118  0.00  0.00    +0.000 A 
BRANCH  17  24
ATOM     23  C   UNL     1       4.284   3.172  11.565  0.00  0.00    +0.000 C 
ATOM     24  O   UNL     1       5.202   2.814  12.587  0.00  0.00    +0.000 OA
ENDBRANCH  17  24
BRANCH  22  25
ATOM     25  O   UNL     1       7.099   4.193  10.768  0.00  0.00    +0.000 OA
ATOM     26  H   UNL     1       7.912   3.711  10.550  0.00  0.00    +0.000 HD
ENDBRANCH  22  25
ENDBRANCH   1  19
TORSDOF 4
ENDMDL
