MODEL 1
REMARK VINA RESULT:      -9.1      0.000      0.000
REMARK  Name = 
REMARK  10 active torsions:
REMARK  status: ('A' for Active; 'I' for Inactive)
REMARK    1  A    between atoms: C_1  and  C_2
REMARK    2  A    between atoms: C_2  and  C_3
REMARK    3  A    between atoms: C_4  and  C_5
REMARK    4  A    between atoms: C_5  and  C_6
REMARK    5  A    between atoms: C_12  and  C_13
REMARK    6  A    between atoms: C_12  and  C_14
REMARK    7  A    between atoms: C_17  and  C_18
REMARK    8  A    between atoms: C_17  and  C_19
REMARK    9  A    between atoms: C_24  and  C_25
REMARK   10  A    between atoms: C_25  and  O_27
REMARK                            x       y       z     vdW  Elec       q    Type
REMARK                         _______ _______ _______ _____ _____    ______ ____
ROOT
ATOM      1  C   UNL     1       2.913   5.504  18.843  0.00  0.00    +0.000 C 
ATOM      2  C   UNL     1       1.788   4.474  18.560  0.00  0.00    +0.000 C 
ATOM      3  C   UNL     1       1.043   4.333  19.887  0.00  0.00    +0.000 C 
ATOM      4  C   UNL     1       2.097   4.559  20.967  0.00  0.00    +0.000 C 
ATOM      5  C   UNL     1       3.374   4.976  20.228  0.00  0.00    +0.000 C 
ENDROOT
BRANCH   1   6
ATOM      6  C   UNL     1       2.337   6.939  18.865  0.00  0.00    +0.000 A 
ATOM      7  C   UNL     1       2.348   7.785  17.757  0.00  0.00    +0.000 A 
ATOM      8  C   UNL     1       1.865   9.093  17.843  0.00  0.00    +0.000 A 
ATOM      9  C   UNL     1       1.328   9.618  19.034  0.00  0.00    +0.000 A 
ATOM     10  C   UNL     1       1.219   8.760  20.144  0.00  0.00    +0.000 A 
ATOM     11  C   UNL     1       1.754   7.448  20.042  0.00  0.00    +0.000 A 
ATOM     12  C   UNL     1       0.593   9.212  21.467  0.00  0.00    +0.000 C 
ATOM     13  C   UNL     1       1.718   9.356  22.515  0.00  0.00    +0.000 C 
ATOM     14  C   UNL     1      -0.435   8.176  21.986  0.00  0.00    +0.000 C 
ATOM     15  C   UNL     1      -0.188  10.540  21.326  0.00  0.00    +0.000 C 
ATOM     16  C   UNL     1       0.524  11.579  20.479  0.00  0.00    +0.000 C 
ATOM     17  C   UNL     1       0.885  11.085  19.059  0.00  0.00    +0.000 C 
ATOM     18  C   UNL     1      -0.323  11.262  18.111  0.00  0.00    +0.000 C 
ATOM     19  C   UNL     1       2.029  12.006  18.567  0.00  0.00    +0.000 C 
ENDBRANCH   1   6
BRANCH   1  21
ATOM     20  C   UNL     1       4.588   4.406  17.212  0.00  0.00    +0.000 C 
ATOM     21  C   UNL     1       4.100   5.467  17.880  0.00  0.00    +0.000 C 
BRANCH  20  23
ATOM     22  C   UNL     1       7.070   4.612  16.902  0.00  0.00    +0.000 C 
ATOM     23  C   UNL     1       5.706   4.482  16.278  0.00  0.00    +0.000 C 
ATOM     24  C   UNL     1       5.488   4.403  14.950  0.00  0.00    +0.000 C 
BRANCH  24  25
ATOM     25  C   UNL     1       6.565   4.435  13.933  0.00  0.00    +0.000 C 
ATOM     26  O   UNL     1       7.390   5.313  13.797  0.00  0.00    +0.000 OA
BRANCH  25  27
ATOM     27  O   UNL     1       6.528   3.334  13.146  0.00  0.00    +0.000 OA
ATOM     28  H   UNL     1       5.766   3.276  12.539  0.00  0.00    +0.000 HD
ENDBRANCH  25  27
ENDBRANCH  24  25
ENDBRANCH  20  23
ENDBRANCH   1  21
TORSDOF 5
ENDMDL
MODEL 2
REMARK VINA RESULT:      -8.6      2.769      5.582
REMARK  Name = 
REMARK  10 active torsions:
REMARK  status: ('A' for Active; 'I' for Inactive)
REMARK    1  A    between atoms: C_1  and  C_2
REMARK    2  A    between atoms: C_2  and  C_3
REMARK    3  A    between atoms: C_4  and  C_5
REMARK    4  A    between atoms: C_5  and  C_6
REMARK    5  A    between atoms: C_12  and  C_13
REMARK    6  A    between atoms: C_12  and  C_14
REMARK    7  A    between atoms: C_17  and  C_18
REMARK    8  A    between atoms: C_17  and  C_19
REMARK    9  A    between atoms: C_24  and  C_25
REMARK   10  A    between atoms: C_25  and  O_27
REMARK                            x       y       z     vdW  Elec       q    Type
REMARK                         _______ _______ _______ _____ _____    ______ ____
ROOT
ATOM      1  C   UNL     1       6.588   4.878  17.080  0.00  0.00    +0.000 C 
ATOM      2  C   UNL     1       7.934   4.493  17.748  0.00  0.00    +0.000 C 
ATOM      3  C   UNL     1       8.149   5.549  18.831  0.00  0.00    +0.000 C 
ATOM      4  C   UNL     1       7.500   6.820  18.290  0.00  0.00    +0.000 C 
ATOM      5  C   UNL     1       6.799   6.413  16.989  0.00  0.00    +0.000 C 
ENDROOT
BRANCH   1   6
ATOM      6  C   UNL     1       5.401   4.447  17.972  0.00  0.00    +0.000 A 
ATOM      7  C   UNL     1       5.302   3.186  18.559  0.00  0.00    +0.000 A 
ATOM      8  C   UNL     1       4.182   2.826  19.311  0.00  0.00    +0.000 A 
ATOM      9  C   UNL     1       3.110   3.712  19.534  0.00  0.00    +0.000 A 
ATOM     10  C   UNL     1       3.221   5.022  19.031  0.00  0.00    +0.000 A 
ATOM     11  C   UNL     1       4.352   5.349  18.236  0.00  0.00    +0.000 A 
ATOM     12  C   UNL     1       2.142   6.082  19.270  0.00  0.00    +0.000 C 
ATOM     13  C   UNL     1       1.402   6.333  17.939  0.00  0.00    +0.000 C 
ATOM     14  C   UNL     1       2.762   7.418  19.751  0.00  0.00    +0.000 C 
ATOM     15  C   UNL     1       1.141   5.665  20.375  0.00  0.00    +0.000 C 
ATOM     16  C   UNL     1       0.711   4.212  20.291  0.00  0.00    +0.000 C 
ATOM     17  C   UNL     1       1.890   3.211  20.313  0.00  0.00    +0.000 C 
ATOM     18  C   UNL     1       2.310   2.915  21.771  0.00  0.00    +0.000 C 
ATOM     19  C   UNL     1       1.347   1.902  19.688  0.00  0.00    +0.000 C 
ENDBRANCH   1   6
BRANCH   1  21
ATOM     20  C   UNL     1       6.651   4.919  14.498  0.00  0.00    +0.000 C 
ATOM     21  C   UNL     1       6.369   4.325  15.672  0.00  0.00    +0.000 C 
BRANCH  20  23
ATOM     22  C   UNL     1       7.452   4.630  12.137  0.00  0.00    +0.000 C 
ATOM     23  C   UNL     1       6.442   4.287  13.200  0.00  0.00    +0.000 C 
ATOM     24  C   UNL     1       5.416   3.432  13.018  0.00  0.00    +0.000 C 
BRANCH  24  25
ATOM     25  C   UNL     1       5.150   2.720  11.747  0.00  0.00    +0.000 C 
ATOM     26  O   UNL     1       4.298   3.008  10.933  0.00  0.00    +0.000 OA
BRANCH  25  27
ATOM     27  O   UNL     1       5.996   1.676  11.584  0.00  0.00    +0.000 OA
ATOM     28  H   UNL     1       6.489   1.660  10.741  0.00  0.00    +0.000 HD
ENDBRANCH  25  27
ENDBRANCH  24  25
ENDBRANCH  20  23
ENDBRANCH   1  21
TORSDOF 5
ENDMDL
MODEL 3
REMARK VINA RESULT:      -8.6      3.730      5.974
REMARK  Name = 
REMARK  10 active torsions:
REMARK  status: ('A' for Active; 'I' for Inactive)
REMARK    1  A    between atoms: C_1  and  C_2
REMARK    2  A    between atoms: C_2  and  C_3
REMARK    3  A    between atoms: C_4  and  C_5
REMARK    4  A    between atoms: C_5  and  C_6
REMARK    5  A    between atoms: C_12  and  C_13
REMARK    6  A    between atoms: C_12  and  C_14
REMARK    7  A    between atoms: C_17  and  C_18
REMARK    8  A    between atoms: C_17  and  C_19
REMARK    9  A    between atoms: C_24  and  C_25
REMARK   10  A    between atoms: C_25  and  O_27
REMARK                            x       y       z     vdW  Elec       q    Type
REMARK                         _______ _______ _______ _____ _____    ______ ____
ROOT
ATOM      1  C   UNL     1       6.505   5.359  17.039  0.00  0.00    +0.000 C 
ATOM      2  C   UNL     1       7.765   4.656  17.612  0.00  0.00    +0.000 C 
ATOM      3  C   UNL     1       8.194   5.525  18.793  0.00  0.00    +0.000 C 
ATOM      4  C   UNL     1       7.789   6.948  18.416  0.00  0.00    +0.000 C 
ATOM      5  C   UNL     1       7.003   6.828  17.105  0.00  0.00    +0.000 C 
ENDROOT
BRANCH   1   6
ATOM      6  C   UNL     1       5.272   5.060  17.923  0.00  0.00    +0.000 A 
ATOM      7  C   UNL     1       4.810   5.927  18.910  0.00  0.00    +0.000 A 
ATOM      8  C   UNL     1       3.724   5.586  19.720  0.00  0.00    +0.000 A 
ATOM      9  C   UNL     1       3.032   4.369  19.574  0.00  0.00    +0.000 A 
ATOM     10  C   UNL     1       3.417   3.512  18.526  0.00  0.00    +0.000 A 
ATOM     11  C   UNL     1       4.549   3.865  17.744  0.00  0.00    +0.000 A 
ATOM     12  C   UNL     1       2.690   2.194  18.240  0.00  0.00    +0.000 C 
ATOM     13  C   UNL     1       3.612   1.028  18.658  0.00  0.00    +0.000 C 
ATOM     14  C   UNL     1       2.362   2.048  16.734  0.00  0.00    +0.000 C 
ATOM     15  C   UNL     1       1.331   2.099  18.975  0.00  0.00    +0.000 C 
ATOM     16  C   UNL     1       1.378   2.595  20.409  0.00  0.00    +0.000 C 
ATOM     17  C   UNL     1       1.896   4.045  20.550  0.00  0.00    +0.000 C 
ATOM     18  C   UNL     1       0.741   5.048  20.329  0.00  0.00    +0.000 C 
ATOM     19  C   UNL     1       2.385   4.180  22.014  0.00  0.00    +0.000 C 
ENDBRANCH   1   6
BRANCH   1  21
ATOM     20  C   UNL     1       6.986   4.548  14.633  0.00  0.00    +0.000 C 
ATOM     21  C   UNL     1       6.163   5.018  15.588  0.00  0.00    +0.000 C 
BRANCH  20  23
ATOM     22  C   UNL     1       7.435   4.711  12.170  0.00  0.00    +0.000 C 
ATOM     23  C   UNL     1       6.551   4.213  13.282  0.00  0.00    +0.000 C 
ATOM     24  C   UNL     1       5.441   3.474  13.090  0.00  0.00    +0.000 C 
BRANCH  24  25
ATOM     25  C   UNL     1       4.946   3.057  11.757  0.00  0.00    +0.000 C 
ATOM     26  O   UNL     1       4.130   3.649  11.083  0.00  0.00    +0.000 OA
BRANCH  25  27
ATOM     27  O   UNL     1       5.529   1.903  11.358  0.00  0.00    +0.000 OA
ATOM     28  H   UNL     1       6.490   1.840  11.514  0.00  0.00    +0.000 HD
ENDBRANCH  25  27
ENDBRANCH  24  25
ENDBRANCH  20  23
ENDBRANCH   1  21
TORSDOF 5
ENDMDL
MODEL 4
REMARK VINA RESULT:      -8.5      3.434      5.803
REMARK  Name = 
REMARK  10 active torsions:
REMARK  status: ('A' for Active; 'I' for Inactive)
REMARK    1  A    between atoms: C_1  and  C_2
REMARK    2  A    between atoms: C_2  and  C_3
REMARK    3  A    between atoms: C_4  and  C_5
REMARK    4  A    between atoms: C_5  and  C_6
REMARK    5  A    between atoms: C_12  and  C_13
REMARK    6  A    between atoms: C_12  and  C_14
REMARK    7  A    between atoms: C_17  and  C_18
REMARK    8  A    between atoms: C_17  and  C_19
REMARK    9  A    between atoms: C_24  and  C_25
REMARK   10  A    between atoms: C_25  and  O_27
REMARK                            x       y       z     vdW  Elec       q    Type
REMARK                         _______ _______ _______ _____ _____    ______ ____
ROOT
ATOM      1  C   UNL     1       6.735   5.443  16.973  0.00  0.00    +0.000 C 
ATOM      2  C   UNL     1       7.878   4.657  17.667  0.00  0.00    +0.000 C 
ATOM      3  C   UNL     1       8.199   5.463  18.925  0.00  0.00    +0.000 C 
ATOM      4  C   UNL     1       7.914   6.916  18.556  0.00  0.00    +0.000 C 
ATOM      5  C   UNL     1       7.291   6.881  17.156  0.00  0.00    +0.000 C 
ENDROOT
BRANCH   1   6
ATOM      6  C   UNL     1       5.389   5.181  17.688  0.00  0.00    +0.000 A 
ATOM      7  C   UNL     1       4.393   6.147  17.823  0.00  0.00    +0.000 A 
ATOM      8  C   UNL     1       3.217   5.878  18.526  0.00  0.00    +0.000 A 
ATOM      9  C   UNL     1       2.965   4.624  19.115  0.00  0.00    +0.000 A 
ATOM     10  C   UNL     1       3.910   3.600  18.918  0.00  0.00    +0.000 A 
ATOM     11  C   UNL     1       5.115   3.912  18.233  0.00  0.00    +0.000 A 
ATOM     12  C   UNL     1       3.704   2.182  19.461  0.00  0.00    +0.000 C 
ATOM     13  C   UNL     1       4.681   1.964  20.636  0.00  0.00    +0.000 C 
ATOM     14  C   UNL     1       3.991   1.116  18.376  0.00  0.00    +0.000 C 
ATOM     15  C   UNL     1       2.246   1.933  19.917  0.00  0.00    +0.000 C 
ATOM     16  C   UNL     1       1.642   3.091  20.690  0.00  0.00    +0.000 C 
ATOM     17  C   UNL     1       1.679   4.435  19.927  0.00  0.00    +0.000 C 
ATOM     18  C   UNL     1       0.464   4.544  18.978  0.00  0.00    +0.000 C 
ATOM     19  C   UNL     1       1.554   5.539  21.007  0.00  0.00    +0.000 C 
ENDBRANCH   1   6
BRANCH   1  21
ATOM     20  C   UNL     1       6.194   4.016  14.888  0.00  0.00    +0.000 C 
ATOM     21  C   UNL     1       6.559   5.169  15.479  0.00  0.00    +0.000 C 
BRANCH  20  23
ATOM     22  C   UNL     1       7.160   4.335  12.594  0.00  0.00    +0.000 C 
ATOM     23  C   UNL     1       6.012   3.866  13.448  0.00  0.00    +0.000 C 
ATOM     24  C   UNL     1       4.887   3.308  12.961  0.00  0.00    +0.000 C 
BRANCH  24  25
ATOM     25  C   UNL     1       4.634   3.084  11.518  0.00  0.00    +0.000 C 
ATOM     26  O   UNL     1       3.978   3.799  10.791  0.00  0.00    +0.000 OA
BRANCH  25  27
ATOM     27  O   UNL     1       5.241   1.955  11.084  0.00  0.00    +0.000 OA
ATOM     28  H   UNL     1       5.431   1.288  11.771  0.00  0.00    +0.000 HD
ENDBRANCH  25  27
ENDBRANCH  24  25
ENDBRANCH  20  23
ENDBRANCH   1  21
TORSDOF 5
ENDMDL
MODEL 5
REMARK VINA RESULT:      -8.2      1.126      2.779
REMARK  Name = 
REMARK  10 active torsions:
REMARK  status: ('A' for Active; 'I' for Inactive)
REMARK    1  A    between atoms: C_1  and  C_2
REMARK    2  A    between atoms: C_2  and  C_3
REMARK    3  A    between atoms: C_4  and  C_5
REMARK    4  A    between atoms: C_5  and  C_6
REMARK    5  A    between atoms: C_12  and  C_13
REMARK    6  A    between atoms: C_12  and  C_14
REMARK    7  A    between atoms: C_17  and  C_18
REMARK    8  A    between atoms: C_17  and  C_19
REMARK    9  A    between atoms: C_24  and  C_25
REMARK   10  A    between atoms: C_25  and  O_27
REMARK                            x       y       z     vdW  Elec       q    Type
REMARK                         _______ _______ _______ _____ _____    ______ ____
ROOT
ATOM      1  C   UNL     1       2.761   4.592  18.382  0.00  0.00    +0.000 C 
ATOM      2  C   UNL     1       1.564   3.802  17.791  0.00  0.00    +0.000 C 
ATOM      3  C   UNL     1       1.039   2.961  18.954  0.00  0.00    +0.000 C 
ATOM      4  C   UNL     1       2.262   2.649  19.811  0.00  0.00    +0.000 C 
ATOM      5  C   UNL     1       3.419   3.449  19.201  0.00  0.00    +0.000 C 
ENDROOT
BRANCH   1   6
ATOM      6  C   UNL     1       2.256   5.781  19.233  0.00  0.00    +0.000 A 
ATOM      7  C   UNL     1       2.020   5.695  20.604  0.00  0.00    +0.000 A 
ATOM      8  C   UNL     1       1.510   6.782  21.317  0.00  0.00    +0.000 A 
ATOM      9  C   UNL     1       1.227   8.017  20.704  0.00  0.00    +0.000 A 
ATOM     10  C   UNL     1       1.541   8.164  19.340  0.00  0.00    +0.000 A 
ATOM     11  C   UNL     1       2.021   7.031  18.629  0.00  0.00    +0.000 A 
ATOM     12  C   UNL     1       1.333   9.484  18.591  0.00  0.00    +0.000 C 
ATOM     13  C   UNL     1       0.139   9.315  17.627  0.00  0.00    +0.000 C 
ATOM     14  C   UNL     1       2.585   9.866  17.764  0.00  0.00    +0.000 C 
ATOM     15  C   UNL     1       1.088  10.673  19.551  0.00  0.00    +0.000 C 
ATOM     16  C   UNL     1       0.152  10.346  20.701  0.00  0.00    +0.000 C 
ATOM     17  C   UNL     1       0.606   9.135  21.548  0.00  0.00    +0.000 C 
ATOM     18  C   UNL     1       1.627   9.585  22.618  0.00  0.00    +0.000 C 
ATOM     19  C   UNL     1      -0.665   8.624  22.272  0.00  0.00    +0.000 C 
ENDBRANCH   1   6
BRANCH   1  21
ATOM     20  C   UNL     1       4.460   4.411  16.443  0.00  0.00    +0.000 C 
ATOM     21  C   UNL     1       3.774   5.115  17.363  0.00  0.00    +0.000 C 
BRANCH  20  23
ATOM     22  C   UNL     1       5.357   6.516  15.413  0.00  0.00    +0.000 C 
ATOM     23  C   UNL     1       5.378   5.012  15.482  0.00  0.00    +0.000 C 
ATOM     24  C   UNL     1       6.198   4.234  14.750  0.00  0.00    +0.000 C 
BRANCH  24  25
ATOM     25  C   UNL     1       7.185   4.760  13.778  0.00  0.00    +0.000 C 
ATOM     26  O   UNL     1       8.069   5.555  14.019  0.00  0.00    +0.000 OA
BRANCH  25  27
ATOM     27  O   UNL     1       6.989   4.233  12.547  0.00  0.00    +0.000 OA
ATOM     28  H   UNL     1       7.787   4.156  11.990  0.00  0.00    +0.000 HD
ENDBRANCH  25  27
ENDBRANCH  24  25
ENDBRANCH  20  23
ENDBRANCH   1  21
TORSDOF 5
ENDMDL
MODEL 6
REMARK VINA RESULT:      -7.9      6.786      8.706
REMARK  Name = 
REMARK  10 active torsions:
REMARK  status: ('A' for Active; 'I' for Inactive)
REMARK    1  A    between atoms: C_1  and  C_2
REMARK    2  A    between atoms: C_2  and  C_3
REMARK    3  A    between atoms: C_4  and  C_5
REMARK    4  A    between atoms: C_5  and  C_6
REMARK    5  A    between atoms: C_12  and  C_13
REMARK    6  A    between atoms: C_12  and  C_14
REMARK    7  A    between atoms: C_17  and  C_18
REMARK    8  A    between atoms: C_17  and  C_19
REMARK    9  A    between atoms: C_24  and  C_25
REMARK   10  A    between atoms: C_25  and  O_27
REMARK                            x       y       z     vdW  Elec       q    Type
REMARK                         _______ _______ _______ _____ _____    ______ ____
ROOT
ATOM      1  C   UNL     1       9.657  11.224  18.954  0.00  0.00    +0.000 C 
ATOM      2  C   UNL     1      11.207  11.169  18.916  0.00  0.00    +0.000 C 
ATOM      3  C   UNL     1      11.635  12.536  18.385  0.00  0.00    +0.000 C 
ATOM      4  C   UNL     1      10.515  12.971  17.444  0.00  0.00    +0.000 C 
ATOM      5  C   UNL     1       9.412  11.916  17.586  0.00  0.00    +0.000 C 
ENDROOT
BRANCH   1   6
ATOM      6  C   UNL     1       9.176  12.037  20.178  0.00  0.00    +0.000 A 
ATOM      7  C   UNL     1       9.362  11.621  21.495  0.00  0.00    +0.000 A 
ATOM      8  C   UNL     1       8.860  12.364  22.565  0.00  0.00    +0.000 A 
ATOM      9  C   UNL     1       8.162  13.573  22.377  0.00  0.00    +0.000 A 
ATOM     10  C   UNL     1       8.037  14.066  21.065  0.00  0.00    +0.000 A 
ATOM     11  C   UNL     1       8.522  13.271  19.993  0.00  0.00    +0.000 A 
ATOM     12  C   UNL     1       7.352  15.401  20.757  0.00  0.00    +0.000 C 
ATOM     13  C   UNL     1       5.997  15.109  20.078  0.00  0.00    +0.000 C 
ATOM     14  C   UNL     1       8.209  16.265  19.798  0.00  0.00    +0.000 C 
ATOM     15  C   UNL     1       7.146  16.264  22.025  0.00  0.00    +0.000 C 
ATOM     16  C   UNL     1       6.665  15.474  23.229  0.00  0.00    +0.000 C 
ATOM     17  C   UNL     1       7.585  14.289  23.603  0.00  0.00    +0.000 C 
ATOM     18  C   UNL     1       8.749  14.778  24.494  0.00  0.00    +0.000 C 
ATOM     19  C   UNL     1       6.709  13.319  24.435  0.00  0.00    +0.000 C 
ENDBRANCH   1   6
BRANCH   1  21
ATOM     20  C   UNL     1       8.404   9.220  17.911  0.00  0.00    +0.000 C 
ATOM     21  C   UNL     1       8.948   9.869  18.956  0.00  0.00    +0.000 C 
BRANCH  20  23
ATOM     22  C   UNL     1       6.557   7.696  17.160  0.00  0.00    +0.000 C 
ATOM     23  C   UNL     1       7.783   7.904  18.009  0.00  0.00    +0.000 C 
ATOM     24  C   UNL     1       8.326   6.955  18.796  0.00  0.00    +0.000 C 
BRANCH  24  25
ATOM     25  C   UNL     1       7.784   5.582  18.929  0.00  0.00    +0.000 C 
ATOM     26  O   UNL     1       7.919   4.682  18.127  0.00  0.00    +0.000 OA
BRANCH  25  27
ATOM     27  O   UNL     1       7.099   5.436  20.087  0.00  0.00    +0.000 OA
ATOM     28  H   UNL     1       7.599   5.636  20.900  0.00  0.00    +0.000 HD
ENDBRANCH  25  27
ENDBRANCH  24  25
ENDBRANCH  20  23
ENDBRANCH   1  21
TORSDOF 5
ENDMDL
MODEL 7
REMARK VINA RESULT:      -7.8      3.019      5.816
REMARK  Name = 
REMARK  10 active torsions:
REMARK  status: ('A' for Active; 'I' for Inactive)
REMARK    1  A    between atoms: C_1  and  C_2
REMARK    2  A    between atoms: C_2  and  C_3
REMARK    3  A    between atoms: C_4  and  C_5
REMARK    4  A    between atoms: C_5  and  C_6
REMARK    5  A    between atoms: C_12  and  C_13
REMARK    6  A    between atoms: C_12  and  C_14
REMARK    7  A    between atoms: C_17  and  C_18
REMARK    8  A    between atoms: C_17  and  C_19
REMARK    9  A    between atoms: C_24  and  C_25
REMARK   10  A    between atoms: C_25  and  O_27
REMARK                            x       y       z     vdW  Elec       q    Type
REMARK                         _______ _______ _______ _____ _____    ______ ____
ROOT
ATOM      1  C   UNL     1       5.956   4.606  16.048  0.00  0.00    +0.000 C 
ATOM      2  C   UNL     1       7.370   4.611  16.687  0.00  0.00    +0.000 C 
ATOM      3  C   UNL     1       7.425   5.901  17.505  0.00  0.00    +0.000 C 
ATOM      4  C   UNL     1       6.541   6.892  16.754  0.00  0.00    +0.000 C 
ATOM      5  C   UNL     1       5.884   6.096  15.620  0.00  0.00    +0.000 C 
ENDROOT
BRANCH   1   6
ATOM      6  C   UNL     1       4.894   4.188  17.092  0.00  0.00    +0.000 A 
ATOM      7  C   UNL     1       4.702   2.870  17.503  0.00  0.00    +0.000 A 
ATOM      8  C   UNL     1       3.691   2.536  18.407  0.00  0.00    +0.000 A 
ATOM      9  C   UNL     1       2.832   3.503  18.964  0.00  0.00    +0.000 A 
ATOM     10  C   UNL     1       3.061   4.853  18.640  0.00  0.00    +0.000 A 
ATOM     11  C   UNL     1       4.068   5.161  17.687  0.00  0.00    +0.000 A 
ATOM     12  C   UNL     1       2.226   5.989  19.239  0.00  0.00    +0.000 C 
ATOM     13  C   UNL     1       1.310   6.557  18.134  0.00  0.00    +0.000 C 
ATOM     14  C   UNL     1       3.127   7.132  19.768  0.00  0.00    +0.000 C 
ATOM     15  C   UNL     1       1.385   5.525  20.453  0.00  0.00    +0.000 C 
ATOM     16  C   UNL     1       0.719   4.175  20.253  0.00  0.00    +0.000 C 
ATOM     17  C   UNL     1       1.707   3.041  19.895  0.00  0.00    +0.000 C 
ATOM     18  C   UNL     1       2.329   2.450  21.182  0.00  0.00    +0.000 C 
ATOM     19  C   UNL     1       0.858   1.938  19.214  0.00  0.00    +0.000 C 
ENDBRANCH   1   6
BRANCH   1  21
ATOM     20  C   UNL     1       5.842   4.103  13.517  0.00  0.00    +0.000 C 
ATOM     21  C   UNL     1       5.796   3.727  14.807  0.00  0.00    +0.000 C 
BRANCH  20  23
ATOM     22  C   UNL     1       4.466   3.311  11.573  0.00  0.00    +0.000 C 
ATOM     23  C   UNL     1       5.719   3.176  12.397  0.00  0.00    +0.000 C 
ATOM     24  C   UNL     1       6.704   2.295  12.135  0.00  0.00    +0.000 C 
BRANCH  24  25
ATOM     25  C   UNL     1       6.680   1.343  11.000  0.00  0.00    +0.000 C 
ATOM     26  O   UNL     1       7.116   1.549   9.887  0.00  0.00    +0.000 OA
BRANCH  25  27
ATOM     27  O   UNL     1       6.099   0.173  11.355  0.00  0.00    +0.000 OA
ATOM     28  H   UNL     1       5.781   0.123  12.276  0.00  0.00    +0.000 HD
ENDBRANCH  25  27
ENDBRANCH  24  25
ENDBRANCH  20  23
ENDBRANCH   1  21
TORSDOF 5
ENDMDL
MODEL 8
REMARK VINA RESULT:      -7.8      6.561      8.345
REMARK  Name = 
REMARK  10 active torsions:
REMARK  status: ('A' for Active; 'I' for Inactive)
REMARK    1  A    between atoms: C_1  and  C_2
REMARK    2  A    between atoms: C_2  and  C_3
REMARK    3  A    between atoms: C_4  and  C_5
REMARK    4  A    between atoms: C_5  and  C_6
REMARK    5  A    between atoms: C_12  and  C_13
REMARK    6  A    between atoms: C_12  and  C_14
REMARK    7  A    between atoms: C_17  and  C_18
REMARK    8  A    between atoms: C_17  and  C_19
REMARK    9  A    between atoms: C_24  and  C_25
REMARK   10  A    between atoms: C_25  and  O_27
REMARK                            x       y       z     vdW  Elec       q    Type
REMARK                         _______ _______ _______ _____ _____    ______ ____
ROOT
ATOM      1  C   UNL     1       9.916  11.228  18.947  0.00  0.00    +0.000 C 
ATOM      2  C   UNL     1      11.085  11.267  19.966  0.00  0.00    +0.000 C 
ATOM      3  C   UNL     1      12.065  12.292  19.397  0.00  0.00    +0.000 C 
ATOM      4  C   UNL     1      11.913  12.198  17.882  0.00  0.00    +0.000 C 
ATOM      5  C   UNL     1      10.745  11.237  17.634  0.00  0.00    +0.000 C 
ENDROOT
BRANCH   1   6
ATOM      6  C   UNL     1       8.997  12.457  19.134  0.00  0.00    +0.000 A 
ATOM      7  C   UNL     1       8.365  13.108  18.076  0.00  0.00    +0.000 A 
ATOM      8  C   UNL     1       7.589  14.249  18.291  0.00  0.00    +0.000 A 
ATOM      9  C   UNL     1       7.388  14.789  19.576  0.00  0.00    +0.000 A 
ATOM     10  C   UNL     1       7.937  14.102  20.674  0.00  0.00    +0.000 A 
ATOM     11  C   UNL     1       8.755  12.968  20.423  0.00  0.00    +0.000 A 
ATOM     12  C   UNL     1       7.726  14.568  22.118  0.00  0.00    +0.000 C 
ATOM     13  C   UNL     1       9.058  15.144  22.645  0.00  0.00    +0.000 C 
ATOM     14  C   UNL     1       7.299  13.393  23.032  0.00  0.00    +0.000 C 
ATOM     15  C   UNL     1       6.597  15.621  22.237  0.00  0.00    +0.000 C 
ATOM     16  C   UNL     1       6.625  16.672  21.142  0.00  0.00    +0.000 C 
ATOM     17  C   UNL     1       6.579  16.083  19.713  0.00  0.00    +0.000 C 
ATOM     18  C   UNL     1       5.115  15.809  19.297  0.00  0.00    +0.000 C 
ATOM     19  C   UNL     1       7.151  17.182  18.783  0.00  0.00    +0.000 C 
ENDBRANCH   1   6
BRANCH   1  21
ATOM     20  C   UNL     1       8.684   9.191  17.942  0.00  0.00    +0.000 C 
ATOM     21  C   UNL     1       9.056   9.964  18.979  0.00  0.00    +0.000 C 
BRANCH  20  23
ATOM     22  C   UNL     1       6.632   7.918  17.259  0.00  0.00    +0.000 C 
ATOM     23  C   UNL     1       7.892   7.974  18.081  0.00  0.00    +0.000 C 
ATOM     24  C   UNL     1       8.316   6.976  18.881  0.00  0.00    +0.000 C 
BRANCH  24  25
ATOM     25  C   UNL     1       7.595   5.694  19.054  0.00  0.00    +0.000 C 
ATOM     26  O   UNL     1       6.749   5.460  19.891  0.00  0.00    +0.000 OA
BRANCH  25  27
ATOM     27  O   UNL     1       7.997   4.779  18.141  0.00  0.00    +0.000 OA
ATOM     28  H   UNL     1       8.198   5.130  17.253  0.00  0.00    +0.000 HD
ENDBRANCH  25  27
ENDBRANCH  24  25
ENDBRANCH  20  23
ENDBRANCH   1  21
TORSDOF 5
ENDMDL
MODEL 9
REMARK VINA RESULT:      -7.7      3.714      7.392
REMARK  Name = 
REMARK  10 active torsions:
REMARK  status: ('A' for Active; 'I' for Inactive)
REMARK    1  A    between atoms: C_1  and  C_2
REMARK    2  A    between atoms: C_2  and  C_3
REMARK    3  A    between atoms: C_4  and  C_5
REMARK    4  A    between atoms: C_5  and  C_6
REMARK    5  A    between atoms: C_12  and  C_13
REMARK    6  A    between atoms: C_12  and  C_14
REMARK    7  A    between atoms: C_17  and  C_18
REMARK    8  A    between atoms: C_17  and  C_19
REMARK    9  A    between atoms: C_24  and  C_25
REMARK   10  A    between atoms: C_25  and  O_27
REMARK                            x       y       z     vdW  Elec       q    Type
REMARK                         _______ _______ _______ _____ _____    ______ ____
ROOT
ATOM      1  C   UNL     1       0.415   9.751  18.934  0.00  0.00    +0.000 C 
ATOM      2  C   UNL     1       0.942  11.112  19.460  0.00  0.00    +0.000 C 
ATOM      3  C   UNL     1       1.454  10.815  20.869  0.00  0.00    +0.000 C 
ATOM      4  C   UNL     1       0.566   9.689  21.391  0.00  0.00    +0.000 C 
ATOM      5  C   UNL     1      -0.321   9.271  20.213  0.00  0.00    +0.000 C 
ENDROOT
BRANCH   1   6
ATOM      6  C   UNL     1       1.593   8.849  18.497  0.00  0.00    +0.000 A 
ATOM      7  C   UNL     1       2.700   9.323  17.795  0.00  0.00    +0.000 A 
ATOM      8  C   UNL     1       3.712   8.457  17.374  0.00  0.00    +0.000 A 
ATOM      9  C   UNL     1       3.682   7.077  17.649  0.00  0.00    +0.000 A 
ATOM     10  C   UNL     1       2.624   6.583  18.435  0.00  0.00    +0.000 A 
ATOM     11  C   UNL     1       1.588   7.477  18.815  0.00  0.00    +0.000 A 
ATOM     12  C   UNL     1       2.529   5.110  18.844  0.00  0.00    +0.000 C 
ATOM     13  C   UNL     1       1.379   4.456  18.049  0.00  0.00    +0.000 C 
ATOM     14  C   UNL     1       2.229   4.965  20.357  0.00  0.00    +0.000 C 
ATOM     15  C   UNL     1       3.854   4.346  18.606  0.00  0.00    +0.000 C 
ATOM     16  C   UNL     1       4.521   4.680  17.284  0.00  0.00    +0.000 C 
ATOM     17  C   UNL     1       4.799   6.189  17.091  0.00  0.00    +0.000 C 
ATOM     18  C   UNL     1       6.135   6.575  17.768  0.00  0.00    +0.000 C 
ATOM     19  C   UNL     1       4.948   6.401  15.564  0.00  0.00    +0.000 C 
ENDBRANCH   1   6
BRANCH   1  21
ATOM     20  C   UNL     1      -1.897  10.151  17.852  0.00  0.00    +0.000 C 
ATOM     21  C   UNL     1      -0.592   9.833  17.786  0.00  0.00    +0.000 C 
BRANCH  20  23
ATOM     22  C   UNL     1      -4.093  10.923  16.915  0.00  0.00    +0.000 C 
ATOM     23  C   UNL     1      -2.769  10.243  16.687  0.00  0.00    +0.000 C 
ATOM     24  C   UNL     1      -2.361   9.766  15.495  0.00  0.00    +0.000 C 
BRANCH  24  25
ATOM     25  C   UNL     1      -3.165   9.848  14.253  0.00  0.00    +0.000 C 
ATOM     26  O   UNL     1      -4.372   9.941  14.191  0.00  0.00    +0.000 OA
BRANCH  25  27
ATOM     27  O   UNL     1      -2.375   9.811  13.154  0.00  0.00    +0.000 OA
ATOM     28  H   UNL     1      -1.437   9.594  13.317  0.00  0.00    +0.000 HD
ENDBRANCH  25  27
ENDBRANCH  24  25
ENDBRANCH  20  23
ENDBRANCH   1  21
TORSDOF 5
ENDMDL
