MODEL 1
REMARK VINA RESULT:      -8.1      0.000      0.000
REMARK  Name = 
REMARK  10 active torsions:
REMARK  status: ('A' for Active; 'I' for Inactive)
REMARK    1  A    between atoms: C_1  and  C_2
REMARK    2  A    between atoms: C_2  and  O_3
REMARK    3  A    between atoms: O_3  and  C_4
REMARK    4  A    between atoms: C_7  and  C_8
REMARK    5  A    between atoms: C_9  and  C_10
REMARK    6  A    between atoms: C_10  and  C_12
REMARK    7  A    between atoms: C_21  and  O_22
REMARK    8  A    between atoms: C_24  and  O_25
REMARK    9  A    between atoms: O_25  and  C_26
REMARK   10  A    between atoms: C_26  and  C_27
REMARK                            x       y       z     vdW  Elec       q    Type
REMARK                         _______ _______ _______ _____ _____    ______ ____
ROOT
ATOM      1  C   UNL     1       7.936   8.958  17.438  0.00  0.00    +0.000 C 
ATOM      2  C   UNL     1       7.774   7.695  17.891  0.00  0.00    +0.000 C 
ENDROOT
BRANCH   1   6
ATOM      3  C   UNL     1       9.667  12.038  19.937  0.00  0.00    +0.000 A 
ATOM      4  C   UNL     1       9.656  10.694  20.327  0.00  0.00    +0.000 A 
ATOM      5  C   UNL     1       9.203   9.685  19.460  0.00  0.00    +0.000 A 
ATOM      6  C   UNL     1       8.564  10.013  18.271  0.00  0.00    +0.000 A 
ATOM      7  C   UNL     1       8.519  11.356  17.896  0.00  0.00    +0.000 A 
ATOM      8  C   UNL     1       9.051  12.387  18.692  0.00  0.00    +0.000 A 
BRANCH   3   9
ATOM      9  O   UNL     1      10.336  12.939  20.727  0.00  0.00    +0.000 OA
BRANCH   9  11
ATOM     10  C   UNL     1       8.106  13.619  21.663  0.00  0.00    +0.000 C 
ATOM     11  C   UNL     1       9.600  13.567  21.814  0.00  0.00    +0.000 C 
ENDBRANCH   9  11
ENDBRANCH   3   9
BRANCH   8  12
ATOM     12  O   UNL     1       8.917  13.608  18.061  0.00  0.00    +0.000 OA
BRANCH  12  13
ATOM     13  C   UNL     1       7.638  13.728  17.461  0.00  0.00    +0.000 C 
ATOM     14  C   UNL     1       6.736  14.907  17.855  0.00  0.00    +0.000 C 
ENDBRANCH  12  13
ENDBRANCH   8  12
ENDBRANCH   1   6
BRANCH   2  15
ATOM     15  C   UNL     1       7.146   6.558  17.069  0.00  0.00    +0.000 C 
ATOM     16  O   UNL     1       7.740   6.106  16.157  0.00  0.00    +0.000 OA
BRANCH  15  17
ATOM     17  C   UNL     1       5.837   6.037  17.496  0.00  0.00    +0.000 A 
ATOM     18  C   UNL     1       4.757   6.923  17.319  0.00  0.00    +0.000 A 
ATOM     19  C   UNL     1       3.503   6.582  17.808  0.00  0.00    +0.000 A 
ATOM     20  C   UNL     1       3.242   5.324  18.402  0.00  0.00    +0.000 A 
ATOM     21  C   UNL     1       1.906   4.903  18.563  0.00  0.00    +0.000 A 
ATOM     22  C   UNL     1       1.525   3.648  18.960  0.00  0.00    +0.000 A 
ATOM     23  C   UNL     1       2.252   3.208  19.954  0.00  0.00    +0.000 A 
ATOM     24  C   UNL     1       3.683   3.381  19.748  0.00  0.00    +0.000 A 
ATOM     25  C   UNL     1       4.236   4.435  18.803  0.00  0.00    +0.000 A 
ATOM     26  C   UNL     1       5.568   4.852  18.255  0.00  0.00    +0.000 A 
BRANCH  26  27
ATOM     27  O   UNL     1       6.697   4.067  18.433  0.00  0.00    +0.000 OA
ATOM     28  H   UNL     1       7.137   4.298  19.260  0.00  0.00    +0.000 HD
ENDBRANCH  26  27
ENDBRANCH  15  17
ENDBRANCH   2  15
TORSDOF 8
ENDMDL
MODEL 2
REMARK VINA RESULT:      -8.0      0.926      1.104
REMARK  Name = 
REMARK  10 active torsions:
REMARK  status: ('A' for Active; 'I' for Inactive)
REMARK    1  A    between atoms: C_1  and  C_2
REMARK    2  A    between atoms: C_2  and  O_3
REMARK    3  A    between atoms: O_3  and  C_4
REMARK    4  A    between atoms: C_7  and  C_8
REMARK    5  A    between atoms: C_9  and  C_10
REMARK    6  A    between atoms: C_10  and  C_12
REMARK    7  A    between atoms: C_21  and  O_22
REMARK    8  A    between atoms: C_24  and  O_25
REMARK    9  A    between atoms: O_25  and  C_26
REMARK   10  A    between atoms: C_26  and  C_27
REMARK                            x       y       z     vdW  Elec       q    Type
REMARK                         _______ _______ _______ _____ _____    ______ ____
ROOT
ATOM      1  C   UNL     1       8.125   9.052  17.458  0.00  0.00    +0.000 C 
ATOM      2  C   UNL     1       7.764   7.842  17.938  0.00  0.00    +0.000 C 
ENDROOT
BRANCH   1   6
ATOM      3  C   UNL     1       9.687  12.131  20.068  0.00  0.00    +0.000 A 
ATOM      4  C   UNL     1       9.478  10.822  20.517  0.00  0.00    +0.000 A 
ATOM      5  C   UNL     1       9.086   9.801  19.635  0.00  0.00    +0.000 A 
ATOM      6  C   UNL     1       8.698  10.103  18.336  0.00  0.00    +0.000 A 
ATOM      7  C   UNL     1       8.851  11.416  17.891  0.00  0.00    +0.000 A 
ATOM      8  C   UNL     1       9.334  12.448  18.716  0.00  0.00    +0.000 A 
BRANCH   3   9
ATOM      9  O   UNL     1      10.293  13.021  20.917  0.00  0.00    +0.000 OA
BRANCH   9  11
ATOM     10  C   UNL     1       8.361  14.502  21.539  0.00  0.00    +0.000 C 
ATOM     11  C   UNL     1       9.486  13.607  21.977  0.00  0.00    +0.000 C 
ENDBRANCH   9  11
ENDBRANCH   3   9
BRANCH   8  12
ATOM     12  O   UNL     1       9.432  13.631  18.009  0.00  0.00    +0.000 OA
BRANCH  12  13
ATOM     13  C   UNL     1      10.776  14.082  17.966  0.00  0.00    +0.000 C 
ATOM     14  C   UNL     1      11.180  15.125  16.914  0.00  0.00    +0.000 C 
ENDBRANCH  12  13
ENDBRANCH   8  12
ENDBRANCH   1   6
BRANCH   2  15
ATOM     15  C   UNL     1       7.181   6.711  17.077  0.00  0.00    +0.000 C 
ATOM     16  O   UNL     1       7.803   6.298  16.165  0.00  0.00    +0.000 OA
BRANCH  15  17
ATOM     17  C   UNL     1       5.878   6.146  17.465  0.00  0.00    +0.000 A 
ATOM     18  C   UNL     1       4.781   7.013  17.299  0.00  0.00    +0.000 A 
ATOM     19  C   UNL     1       3.527   6.627  17.756  0.00  0.00    +0.000 A 
ATOM     20  C   UNL     1       3.287   5.344  18.306  0.00  0.00    +0.000 A 
ATOM     21  C   UNL     1       1.958   4.888  18.432  0.00  0.00    +0.000 A 
ATOM     22  C   UNL     1       1.601   3.613  18.782  0.00  0.00    +0.000 A 
ATOM     23  C   UNL     1       2.322   3.158  19.772  0.00  0.00    +0.000 A 
ATOM     24  C   UNL     1       3.752   3.370  19.595  0.00  0.00    +0.000 A 
ATOM     25  C   UNL     1       4.295   4.467  18.694  0.00  0.00    +0.000 A 
ATOM     26  C   UNL     1       5.625   4.932  18.181  0.00  0.00    +0.000 A 
BRANCH  26  27
ATOM     27  O   UNL     1       6.770   4.167  18.353  0.00  0.00    +0.000 OA
ATOM     28  H   UNL     1       7.337   4.563  19.024  0.00  0.00    +0.000 HD
ENDBRANCH  26  27
ENDBRANCH  15  17
ENDBRANCH   2  15
TORSDOF 8
ENDMDL
MODEL 3
REMARK VINA RESULT:      -8.0      1.109      2.281
REMARK  Name = 
REMARK  10 active torsions:
REMARK  status: ('A' for Active; 'I' for Inactive)
REMARK    1  A    between atoms: C_1  and  C_2
REMARK    2  A    between atoms: C_2  and  O_3
REMARK    3  A    between atoms: O_3  and  C_4
REMARK    4  A    between atoms: C_7  and  C_8
REMARK    5  A    between atoms: C_9  and  C_10
REMARK    6  A    between atoms: C_10  and  C_12
REMARK    7  A    between atoms: C_21  and  O_22
REMARK    8  A    between atoms: C_24  and  O_25
REMARK    9  A    between atoms: O_25  and  C_26
REMARK   10  A    between atoms: C_26  and  C_27
REMARK                            x       y       z     vdW  Elec       q    Type
REMARK                         _______ _______ _______ _____ _____    ______ ____
ROOT
ATOM      1  C   UNL     1       8.362   8.404  18.276  0.00  0.00    +0.000 C 
ATOM      2  C   UNL     1       7.382   7.989  17.443  0.00  0.00    +0.000 C 
ENDROOT
BRANCH   1   6
ATOM      3  C   UNL     1       9.262  12.595  18.867  0.00  0.00    +0.000 A 
ATOM      4  C   UNL     1       8.604  12.138  17.720  0.00  0.00    +0.000 A 
ATOM      5  C   UNL     1       8.208  10.797  17.589  0.00  0.00    +0.000 A 
ATOM      6  C   UNL     1       8.638   9.844  18.504  0.00  0.00    +0.000 A 
ATOM      7  C   UNL     1       9.342  10.278  19.627  0.00  0.00    +0.000 A 
ATOM      8  C   UNL     1       9.672  11.629  19.842  0.00  0.00    +0.000 A 
BRANCH   3   9
ATOM      9  O   UNL     1       9.408  13.949  19.039  0.00  0.00    +0.000 OA
BRANCH   9  11
ATOM     10  C   UNL     1      10.787  15.728  17.924  0.00  0.00    +0.000 C 
ATOM     11  C   UNL     1      10.727  14.523  18.820  0.00  0.00    +0.000 C 
ENDBRANCH   9  11
ENDBRANCH   3   9
BRANCH   8  12
ATOM     12  O   UNL     1      10.322  11.785  21.051  0.00  0.00    +0.000 OA
BRANCH  12  13
ATOM     13  C   UNL     1       9.521  12.517  21.963  0.00  0.00    +0.000 C 
ATOM     14  C   UNL     1       8.204  11.903  22.460  0.00  0.00    +0.000 C 
ENDBRANCH  12  13
ENDBRANCH   8  12
ENDBRANCH   1   6
BRANCH   2  15
ATOM     15  C   UNL     1       7.041   6.514  17.179  0.00  0.00    +0.000 C 
ATOM     16  O   UNL     1       7.848   5.813  16.683  0.00  0.00    +0.000 OA
BRANCH  15  17
ATOM     17  C   UNL     1       5.724   6.020  17.612  0.00  0.00    +0.000 A 
ATOM     18  C   UNL     1       4.655   6.913  17.405  0.00  0.00    +0.000 A 
ATOM     19  C   UNL     1       3.395   6.600  17.896  0.00  0.00    +0.000 A 
ATOM     20  C   UNL     1       3.116   5.362  18.524  0.00  0.00    +0.000 A 
ATOM     21  C   UNL     1       1.774   4.961  18.689  0.00  0.00    +0.000 A 
ATOM     22  C   UNL     1       1.377   3.722  19.119  0.00  0.00    +0.000 A 
ATOM     23  C   UNL     1       2.093   3.302  20.128  0.00  0.00    +0.000 A 
ATOM     24  C   UNL     1       3.528   3.453  19.925  0.00  0.00    +0.000 A 
ATOM     25  C   UNL     1       4.098   4.474  18.955  0.00  0.00    +0.000 A 
ATOM     26  C   UNL     1       5.437   4.860  18.402  0.00  0.00    +0.000 A 
BRANCH  26  27
ATOM     27  O   UNL     1       6.556   4.067  18.609  0.00  0.00    +0.000 OA
ATOM     28  H   UNL     1       7.165   4.502  19.218  0.00  0.00    +0.000 HD
ENDBRANCH  26  27
ENDBRANCH  15  17
ENDBRANCH   2  15
TORSDOF 8
ENDMDL
MODEL 4
REMARK VINA RESULT:      -8.0      0.808      1.156
REMARK  Name = 
REMARK  10 active torsions:
REMARK  status: ('A' for Active; 'I' for Inactive)
REMARK    1  A    between atoms: C_1  and  C_2
REMARK    2  A    between atoms: C_2  and  O_3
REMARK    3  A    between atoms: O_3  and  C_4
REMARK    4  A    between atoms: C_7  and  C_8
REMARK    5  A    between atoms: C_9  and  C_10
REMARK    6  A    between atoms: C_10  and  C_12
REMARK    7  A    between atoms: C_21  and  O_22
REMARK    8  A    between atoms: C_24  and  O_25
REMARK    9  A    between atoms: O_25  and  C_26
REMARK   10  A    between atoms: C_26  and  C_27
REMARK                            x       y       z     vdW  Elec       q    Type
REMARK                         _______ _______ _______ _____ _____    ______ ____
ROOT
ATOM      1  C   UNL     1       7.787   8.895  17.364  0.00  0.00    +0.000 C 
ATOM      2  C   UNL     1       7.746   7.627  17.827  0.00  0.00    +0.000 C 
ENDROOT
BRANCH   1   6
ATOM      3  C   UNL     1       9.671  12.062  19.633  0.00  0.00    +0.000 A 
ATOM      4  C   UNL     1       9.747  10.723  20.034  0.00  0.00    +0.000 A 
ATOM      5  C   UNL     1       9.238   9.690  19.230  0.00  0.00    +0.000 A 
ATOM      6  C   UNL     1       8.464   9.981  18.114  0.00  0.00    +0.000 A 
ATOM      7  C   UNL     1       8.334  11.317  17.733  0.00  0.00    +0.000 A 
ATOM      8  C   UNL     1       8.913  12.374  18.458  0.00  0.00    +0.000 A 
BRANCH   3   9
ATOM      9  O   UNL     1      10.390  12.994  20.337  0.00  0.00    +0.000 OA
BRANCH   9  11
ATOM     10  C   UNL     1      12.159  13.201  18.564  0.00  0.00    +0.000 C 
ATOM     11  C   UNL     1      11.804  13.140  20.024  0.00  0.00    +0.000 C 
ENDBRANCH   9  11
ENDBRANCH   3   9
BRANCH   8  12
ATOM     12  O   UNL     1       8.672  13.583  17.833  0.00  0.00    +0.000 OA
BRANCH  12  13
ATOM     13  C   UNL     1       7.333  13.652  17.370  0.00  0.00    +0.000 C 
ATOM     14  C   UNL     1       6.380  14.682  17.994  0.00  0.00    +0.000 C 
ENDBRANCH  12  13
ENDBRANCH   8  12
ENDBRANCH   1   6
BRANCH   2  15
ATOM     15  C   UNL     1       7.074   6.459  17.088  0.00  0.00    +0.000 C 
ATOM     16  O   UNL     1       7.639   5.936  16.196  0.00  0.00    +0.000 OA
BRANCH  15  17
ATOM     17  C   UNL     1       5.759   6.000  17.567  0.00  0.00    +0.000 A 
ATOM     18  C   UNL     1       4.712   6.927  17.407  0.00  0.00    +0.000 A 
ATOM     19  C   UNL     1       3.461   6.647  17.944  0.00  0.00    +0.000 A 
ATOM     20  C   UNL     1       3.170   5.413  18.572  0.00  0.00    +0.000 A 
ATOM     21  C   UNL     1       1.823   5.050  18.786  0.00  0.00    +0.000 A 
ATOM     22  C   UNL     1       1.406   3.820  19.221  0.00  0.00    +0.000 A 
ATOM     23  C   UNL     1       2.146   3.370  20.199  0.00  0.00    +0.000 A 
ATOM     24  C   UNL     1       3.576   3.480  19.943  0.00  0.00    +0.000 A 
ATOM     25  C   UNL     1       4.139   4.492  18.959  0.00  0.00    +0.000 A 
ATOM     26  C   UNL     1       5.468   4.843  18.359  0.00  0.00    +0.000 A 
BRANCH  26  27
ATOM     27  O   UNL     1       6.570   4.015  18.517  0.00  0.00    +0.000 OA
ATOM     28  H   UNL     1       7.378   4.488  18.285  0.00  0.00    +0.000 HD
ENDBRANCH  26  27
ENDBRANCH  15  17
ENDBRANCH   2  15
TORSDOF 8
ENDMDL
MODEL 5
REMARK VINA RESULT:      -7.8      0.997      1.616
REMARK  Name = 
REMARK  10 active torsions:
REMARK  status: ('A' for Active; 'I' for Inactive)
REMARK    1  A    between atoms: C_1  and  C_2
REMARK    2  A    between atoms: C_2  and  O_3
REMARK    3  A    between atoms: O_3  and  C_4
REMARK    4  A    between atoms: C_7  and  C_8
REMARK    5  A    between atoms: C_9  and  C_10
REMARK    6  A    between atoms: C_10  and  C_12
REMARK    7  A    between atoms: C_21  and  O_22
REMARK    8  A    between atoms: C_24  and  O_25
REMARK    9  A    between atoms: O_25  and  C_26
REMARK   10  A    between atoms: C_26  and  C_27
REMARK                            x       y       z     vdW  Elec       q    Type
REMARK                         _______ _______ _______ _____ _____    ______ ____
ROOT
ATOM      1  C   UNL     1       7.957   9.249  17.594  0.00  0.00    +0.000 C 
ATOM      2  C   UNL     1       7.966   7.962  18.006  0.00  0.00    +0.000 C 
ENDROOT
BRANCH   1   6
ATOM      3  C   UNL     1       9.886  12.373  19.885  0.00  0.00    +0.000 A 
ATOM      4  C   UNL     1       9.895  11.038  20.306  0.00  0.00    +0.000 A 
ATOM      5  C   UNL     1       9.373  10.013  19.500  0.00  0.00    +0.000 A 
ATOM      6  C   UNL     1       8.651  10.318  18.353  0.00  0.00    +0.000 A 
ATOM      7  C   UNL     1       8.588  11.652  17.949  0.00  0.00    +0.000 A 
ATOM      8  C   UNL     1       9.183  12.697  18.679  0.00  0.00    +0.000 A 
BRANCH   3   9
ATOM      9  O   UNL     1      10.617  13.286  20.601  0.00  0.00    +0.000 OA
BRANCH   9  11
ATOM     10  C   UNL     1      10.443  15.491  21.792  0.00  0.00    +0.000 C 
ATOM     11  C   UNL     1       9.915  14.100  21.582  0.00  0.00    +0.000 C 
ENDBRANCH   9  11
ENDBRANCH   3   9
BRANCH   8  12
ATOM     12  O   UNL     1       9.012  13.904  18.030  0.00  0.00    +0.000 OA
BRANCH  12  13
ATOM     13  C   UNL     1       7.644  14.123  17.726  0.00  0.00    +0.000 C 
ATOM     14  C   UNL     1       6.991  15.450  18.139  0.00  0.00    +0.000 C 
ENDBRANCH  12  13
ENDBRANCH   8  12
ENDBRANCH   1   6
BRANCH   2  15
ATOM     15  C   UNL     1       7.279   6.810  17.255  0.00  0.00    +0.000 C 
ATOM     16  O   UNL     1       7.715   6.453  16.220  0.00  0.00    +0.000 OA
BRANCH  15  17
ATOM     17  C   UNL     1       6.125   6.157  17.894  0.00  0.00    +0.000 A 
ATOM     18  C   UNL     1       6.430   5.398  19.040  0.00  0.00    +0.000 A 
ATOM     19  C   UNL     1       5.437   4.636  19.642  0.00  0.00    +0.000 A 
ATOM     20  C   UNL     1       4.093   4.663  19.199  0.00  0.00    +0.000 A 
ATOM     21  C   UNL     1       3.082   4.153  20.039  0.00  0.00    +0.000 A 
ATOM     22  C   UNL     1       1.737   4.277  19.806  0.00  0.00    +0.000 A 
ATOM     23  C   UNL     1       1.435   4.045  18.556  0.00  0.00    +0.000 A 
ATOM     24  C   UNL     1       2.291   4.749  17.611  0.00  0.00    +0.000 A 
ATOM     25  C   UNL     1       3.688   5.214  17.987  0.00  0.00    +0.000 A 
ATOM     26  C   UNL     1       4.796   6.020  17.377  0.00  0.00    +0.000 A 
BRANCH  26  27
ATOM     27  O   UNL     1       4.599   6.752  16.215  0.00  0.00    +0.000 OA
ATOM     28  H   UNL     1       4.237   6.186  15.523  0.00  0.00    +0.000 HD
ENDBRANCH  26  27
ENDBRANCH  15  17
ENDBRANCH   2  15
TORSDOF 8
ENDMDL
MODEL 6
REMARK VINA RESULT:      -7.6      5.612      9.723
REMARK  Name = 
REMARK  10 active torsions:
REMARK  status: ('A' for Active; 'I' for Inactive)
REMARK    1  A    between atoms: C_1  and  C_2
REMARK    2  A    between atoms: C_2  and  O_3
REMARK    3  A    between atoms: O_3  and  C_4
REMARK    4  A    between atoms: C_7  and  C_8
REMARK    5  A    between atoms: C_9  and  C_10
REMARK    6  A    between atoms: C_10  and  C_12
REMARK    7  A    between atoms: C_21  and  O_22
REMARK    8  A    between atoms: C_24  and  O_25
REMARK    9  A    between atoms: O_25  and  C_26
REMARK   10  A    between atoms: C_26  and  C_27
REMARK                            x       y       z     vdW  Elec       q    Type
REMARK                         _______ _______ _______ _____ _____    ______ ____
ROOT
ATOM      1  C   UNL     1       2.985   7.537  18.028  0.00  0.00    +0.000 C 
ATOM      2  C   UNL     1       1.793   8.172  18.062  0.00  0.00    +0.000 C 
ENDROOT
BRANCH   1   6
ATOM      3  C   UNL     1       3.263   3.257  17.455  0.00  0.00    +0.000 A 
ATOM      4  C   UNL     1       4.361   4.100  17.249  0.00  0.00    +0.000 A 
ATOM      5  C   UNL     1       4.298   5.470  17.553  0.00  0.00    +0.000 A 
ATOM      6  C   UNL     1       3.084   6.065  17.872  0.00  0.00    +0.000 A 
ATOM      7  C   UNL     1       1.967   5.243  18.027  0.00  0.00    +0.000 A 
ATOM      8  C   UNL     1       2.014   3.851  17.828  0.00  0.00    +0.000 A 
BRANCH   3   9
ATOM      9  O   UNL     1       3.457   1.902  17.367  0.00  0.00    +0.000 OA
BRANCH   9  11
ATOM     10  C   UNL     1       4.279   2.064  19.736  0.00  0.00    +0.000 C 
ATOM     11  C   UNL     1       4.063   1.227  18.506  0.00  0.00    +0.000 C 
ENDBRANCH   9  11
ENDBRANCH   3   9
BRANCH   8  12
ATOM     12  O   UNL     1       0.786   3.279  18.097  0.00  0.00    +0.000 OA
BRANCH  12  13
ATOM     13  C   UNL     1       0.795   2.639  19.363  0.00  0.00    +0.000 C 
ATOM     14  C   UNL     1       0.976   3.489  20.628  0.00  0.00    +0.000 C 
ENDBRANCH  12  13
ENDBRANCH   8  12
ENDBRANCH   1   6
BRANCH   2  15
ATOM     15  C   UNL     1       1.629   9.693  18.206  0.00  0.00    +0.000 C 
ATOM     16  O   UNL     1       2.091  10.405  17.389  0.00  0.00    +0.000 OA
BRANCH  15  17
ATOM     17  C   UNL     1       0.844  10.201  19.344  0.00  0.00    +0.000 A 
ATOM     18  C   UNL     1       0.917   9.419  20.513  0.00  0.00    +0.000 A 
ATOM     19  C   UNL     1       0.113   9.736  21.600  0.00  0.00    +0.000 A 
ATOM     20  C   UNL     1      -0.719  10.882  21.615  0.00  0.00    +0.000 A 
ATOM     21  C   UNL     1      -1.238  11.339  22.844  0.00  0.00    +0.000 A 
ATOM     22  C   UNL     1      -1.906  12.523  23.016  0.00  0.00    +0.000 A 
ATOM     23  C   UNL     1      -2.770  12.740  22.061  0.00  0.00    +0.000 A 
ATOM     24  C   UNL     1      -2.226  12.529  20.726  0.00  0.00    +0.000 A 
ATOM     25  C   UNL     1      -1.026  11.630  20.482  0.00  0.00    +0.000 A 
ATOM     26  C   UNL     1      -0.136  11.246  19.338  0.00  0.00    +0.000 A 
BRANCH  26  27
ATOM     27  O   UNL     1      -0.183  11.925  18.130  0.00  0.00    +0.000 OA
ATOM     28  H   UNL     1       0.493  11.586  17.531  0.00  0.00    +0.000 HD
ENDBRANCH  26  27
ENDBRANCH  15  17
ENDBRANCH   2  15
TORSDOF 8
ENDMDL
MODEL 7
REMARK VINA RESULT:      -7.6      5.913      9.416
REMARK  Name = 
REMARK  10 active torsions:
REMARK  status: ('A' for Active; 'I' for Inactive)
REMARK    1  A    between atoms: C_1  and  C_2
REMARK    2  A    between atoms: C_2  and  O_3
REMARK    3  A    between atoms: O_3  and  C_4
REMARK    4  A    between atoms: C_7  and  C_8
REMARK    5  A    between atoms: C_9  and  C_10
REMARK    6  A    between atoms: C_10  and  C_12
REMARK    7  A    between atoms: C_21  and  O_22
REMARK    8  A    between atoms: C_24  and  O_25
REMARK    9  A    between atoms: O_25  and  C_26
REMARK   10  A    between atoms: C_26  and  C_27
REMARK                            x       y       z     vdW  Elec       q    Type
REMARK                         _______ _______ _______ _____ _____    ______ ____
ROOT
ATOM      1  C   UNL     1       2.241   8.624  18.097  0.00  0.00    +0.000 C 
ATOM      2  C   UNL     1       1.364   9.218  18.936  0.00  0.00    +0.000 C 
ENDROOT
BRANCH   1   6
ATOM      3  C   UNL     1       4.027   4.798  19.048  0.00  0.00    +0.000 A 
ATOM      4  C   UNL     1       2.999   5.344  19.825  0.00  0.00    +0.000 A 
ATOM      5  C   UNL     1       2.342   6.526  19.442  0.00  0.00    +0.000 A 
ATOM      6  C   UNL     1       2.830   7.295  18.393  0.00  0.00    +0.000 A 
ATOM      7  C   UNL     1       3.891   6.788  17.642  0.00  0.00    +0.000 A 
ATOM      8  C   UNL     1       4.511   5.559  17.935  0.00  0.00    +0.000 A 
BRANCH   3   9
ATOM      9  O   UNL     1       4.461   3.531  19.342  0.00  0.00    +0.000 OA
BRANCH   9  11
ATOM     10  C   UNL     1       2.944   2.106  17.935  0.00  0.00    +0.000 C 
ATOM     11  C   UNL     1       3.488   2.450  19.293  0.00  0.00    +0.000 C 
ENDBRANCH   9  11
ENDBRANCH   3   9
BRANCH   8  12
ATOM     12  O   UNL     1       5.494   5.277  17.006  0.00  0.00    +0.000 OA
BRANCH  12  13
ATOM     13  C   UNL     1       4.972   4.498  15.942  0.00  0.00    +0.000 C 
ATOM     14  C   UNL     1       5.870   4.187  14.735  0.00  0.00    +0.000 C 
ENDBRANCH  12  13
ENDBRANCH   8  12
ENDBRANCH   1   6
BRANCH   2  15
ATOM     15  C   UNL     1       0.711  10.584  18.676  0.00  0.00    +0.000 C 
ATOM     16  O   UNL     1       1.392  11.539  18.558  0.00  0.00    +0.000 OA
BRANCH  15  17
ATOM     17  C   UNL     1      -0.753  10.635  18.527  0.00  0.00    +0.000 A 
ATOM     18  C   UNL     1      -1.261   9.951  17.406  0.00  0.00    +0.000 A 
ATOM     19  C   UNL     1      -2.613  10.045  17.100  0.00  0.00    +0.000 A 
ATOM     20  C   UNL     1      -3.528  10.734  17.931  0.00  0.00    +0.000 A 
ATOM     21  C   UNL     1      -4.911  10.512  17.765  0.00  0.00    +0.000 A 
ATOM     22  C   UNL     1      -5.883  10.979  18.609  0.00  0.00    +0.000 A 
ATOM     23  C   UNL     1      -5.672  12.220  18.960  0.00  0.00    +0.000 A 
ATOM     24  C   UNL     1      -4.306  12.476  19.393  0.00  0.00    +0.000 A 
ATOM     25  C   UNL     1      -3.146  11.598  18.954  0.00  0.00    +0.000 A 
ATOM     26  C   UNL     1      -1.681  11.461  19.241  0.00  0.00    +0.000 A 
BRANCH  26  27
ATOM     27  O   UNL     1      -1.086  12.145  20.290  0.00  0.00    +0.000 OA
ATOM     28  H   UNL     1      -0.553  11.542  20.822  0.00  0.00    +0.000 HD
ENDBRANCH  26  27
ENDBRANCH  15  17
ENDBRANCH   2  15
TORSDOF 8
ENDMDL
MODEL 8
REMARK VINA RESULT:      -7.5      5.622      7.492
REMARK  Name = 
REMARK  10 active torsions:
REMARK  status: ('A' for Active; 'I' for Inactive)
REMARK    1  A    between atoms: C_1  and  C_2
REMARK    2  A    between atoms: C_2  and  O_3
REMARK    3  A    between atoms: O_3  and  C_4
REMARK    4  A    between atoms: C_7  and  C_8
REMARK    5  A    between atoms: C_9  and  C_10
REMARK    6  A    between atoms: C_10  and  C_12
REMARK    7  A    between atoms: C_21  and  O_22
REMARK    8  A    between atoms: C_24  and  O_25
REMARK    9  A    between atoms: O_25  and  C_26
REMARK   10  A    between atoms: C_26  and  C_27
REMARK                            x       y       z     vdW  Elec       q    Type
REMARK                         _______ _______ _______ _____ _____    ______ ____
ROOT
ATOM      1  C   UNL     1       2.086   7.297  20.284  0.00  0.00    +0.000 C 
ATOM      2  C   UNL     1       1.657   6.041  20.540  0.00  0.00    +0.000 C 
ENDROOT
BRANCH   1   6
ATOM      3  C   UNL     1      -0.496  10.688  21.036  0.00  0.00    +0.000 A 
ATOM      4  C   UNL     1      -0.232   9.730  22.023  0.00  0.00    +0.000 A 
ATOM      5  C   UNL     1       0.700   8.701  21.811  0.00  0.00    +0.000 A 
ATOM      6  C   UNL     1       1.234   8.483  20.547  0.00  0.00    +0.000 A 
ATOM      7  C   UNL     1       0.936   9.400  19.539  0.00  0.00    +0.000 A 
ATOM      8  C   UNL     1       0.084  10.501  19.740  0.00  0.00    +0.000 A 
BRANCH   3   9
ATOM      9  O   UNL     1      -1.228  11.794  21.383  0.00  0.00    +0.000 OA
BRANCH   9  11
ATOM     10  C   UNL     1      -2.864  12.149  23.257  0.00  0.00    +0.000 C 
ATOM     11  C   UNL     1      -1.435  12.055  22.800  0.00  0.00    +0.000 C 
ENDBRANCH   9  11
ENDBRANCH   3   9
BRANCH   8  12
ATOM     12  O   UNL     1       0.004  11.270  18.595  0.00  0.00    +0.000 OA
BRANCH  12  13
ATOM     13  C   UNL     1      -1.339  11.371  18.149  0.00  0.00    +0.000 C 
ATOM     14  C   UNL     1      -2.064  10.105  17.670  0.00  0.00    +0.000 C 
ENDBRANCH  12  13
ENDBRANCH   8  12
ENDBRANCH   1   6
BRANCH   2  15
ATOM     15  C   UNL     1       2.499   4.777  20.303  0.00  0.00    +0.000 C 
ATOM     16  O   UNL     1       2.480   3.911  21.101  0.00  0.00    +0.000 OA
BRANCH  15  17
ATOM     17  C   UNL     1       3.258   4.676  19.045  0.00  0.00    +0.000 A 
ATOM     18  C   UNL     1       2.593   4.006  18.001  0.00  0.00    +0.000 A 
ATOM     19  C   UNL     1       3.269   3.740  16.817  0.00  0.00    +0.000 A 
ATOM     20  C   UNL     1       4.585   4.204  16.579  0.00  0.00    +0.000 A 
ATOM     21  C   UNL     1       5.086   4.208  15.261  0.00  0.00    +0.000 A 
ATOM     22  C   UNL     1       6.266   4.787  14.877  0.00  0.00    +0.000 A 
ATOM     23  C   UNL     1       7.233   4.531  15.718  0.00  0.00    +0.000 A 
ATOM     24  C   UNL     1       6.865   4.750  17.110  0.00  0.00    +0.000 A 
ATOM     25  C   UNL     1       5.418   4.712  17.572  0.00  0.00    +0.000 A 
ATOM     26  C   UNL     1       4.642   4.974  18.828  0.00  0.00    +0.000 A 
BRANCH  26  27
ATOM     27  O   UNL     1       5.235   5.579  19.927  0.00  0.00    +0.000 OA
ATOM     28  H   UNL     1       4.568   6.026  20.461  0.00  0.00    +0.000 HD
ENDBRANCH  26  27
ENDBRANCH  15  17
ENDBRANCH   2  15
TORSDOF 8
ENDMDL
MODEL 9
REMARK VINA RESULT:      -7.5      5.999      9.294
REMARK  Name = 
REMARK  10 active torsions:
REMARK  status: ('A' for Active; 'I' for Inactive)
REMARK    1  A    between atoms: C_1  and  C_2
REMARK    2  A    between atoms: C_2  and  O_3
REMARK    3  A    between atoms: O_3  and  C_4
REMARK    4  A    between atoms: C_7  and  C_8
REMARK    5  A    between atoms: C_9  and  C_10
REMARK    6  A    between atoms: C_10  and  C_12
REMARK    7  A    between atoms: C_21  and  O_22
REMARK    8  A    between atoms: C_24  and  O_25
REMARK    9  A    between atoms: O_25  and  C_26
REMARK   10  A    between atoms: C_26  and  C_27
REMARK                            x       y       z     vdW  Elec       q    Type
REMARK                         _______ _______ _______ _____ _____    ______ ____
ROOT
ATOM      1  C   UNL     1       2.372   8.936  17.955  0.00  0.00    +0.000 C 
ATOM      2  C   UNL     1       1.123   9.170  18.413  0.00  0.00    +0.000 C 
ENDROOT
BRANCH   1   6
ATOM      3  C   UNL     1       4.031   4.941  17.807  0.00  0.00    +0.000 A 
ATOM      4  C   UNL     1       2.794   5.203  18.408  0.00  0.00    +0.000 A 
ATOM      5  C   UNL     1       2.207   6.478  18.346  0.00  0.00    +0.000 A 
ATOM      6  C   UNL     1       2.928   7.563  17.865  0.00  0.00    +0.000 A 
ATOM      7  C   UNL     1       4.186   7.325  17.311  0.00  0.00    +0.000 A 
ATOM      8  C   UNL     1       4.767   6.044  17.265  0.00  0.00    +0.000 A 
BRANCH   3   9
ATOM      9  O   UNL     1       4.436   3.636  17.695  0.00  0.00    +0.000 OA
BRANCH   9  11
ATOM     10  C   UNL     1       3.440   1.453  18.443  0.00  0.00    +0.000 C 
ATOM     11  C   UNL     1       4.140   2.735  18.800  0.00  0.00    +0.000 C 
ENDBRANCH   9  11
ENDBRANCH   3   9
BRANCH   8  12
ATOM     12  O   UNL     1       5.988   6.086  16.620  0.00  0.00    +0.000 OA
BRANCH  12  13
ATOM     13  C   UNL     1       6.913   6.880  17.345  0.00  0.00    +0.000 C 
ATOM     14  C   UNL     1       7.659   6.258  18.535  0.00  0.00    +0.000 C 
ENDBRANCH  12  13
ENDBRANCH   8  12
ENDBRANCH   1   6
BRANCH   2  15
ATOM     15  C   UNL     1       0.489  10.566  18.515  0.00  0.00    +0.000 C 
ATOM     16  O   UNL     1       1.185  11.513  18.605  0.00  0.00    +0.000 OA
BRANCH  15  17
ATOM     17  C   UNL     1      -0.978  10.668  18.438  0.00  0.00    +0.000 A 
ATOM     18  C   UNL     1      -1.562  10.021  17.333  0.00  0.00    +0.000 A 
ATOM     19  C   UNL     1      -2.923  10.166  17.094  0.00  0.00    +0.000 A 
ATOM     20  C   UNL     1      -3.773  10.870  17.980  0.00  0.00    +0.000 A 
ATOM     21  C   UNL     1      -5.169  10.697  17.877  0.00  0.00    +0.000 A 
ATOM     22  C   UNL     1      -6.083  11.181  18.775  0.00  0.00    +0.000 A 
ATOM     23  C   UNL     1      -5.814  12.408  19.135  0.00  0.00    +0.000 A 
ATOM     24  C   UNL     1      -4.420  12.611  19.506  0.00  0.00    +0.000 A 
ATOM     25  C   UNL     1      -3.314  11.702  18.997  0.00  0.00    +0.000 A 
ATOM     26  C   UNL     1      -1.842  11.512  19.209  0.00  0.00    +0.000 A 
BRANCH  26  27
ATOM     27  O   UNL     1      -1.174  12.157  20.240  0.00  0.00    +0.000 OA
ATOM     28  H   UNL     1      -1.209  11.626  21.044  0.00  0.00    +0.000 HD
ENDBRANCH  26  27
ENDBRANCH  15  17
ENDBRANCH   2  15
TORSDOF 8
ENDMDL
