MODEL 1
REMARK VINA RESULT:      -7.3      0.000      0.000
REMARK  Name = 
REMARK  2 active torsions:
REMARK  status: ('A' for Active; 'I' for Inactive)
REMARK    1  A    between atoms: N_2  and  C_4
REMARK    2  A    between atoms: N_11  and  C_12
REMARK                            x       y       z     vdW  Elec       q    Type
REMARK                         _______ _______ _______ _____ _____    ______ ____
ROOT
ATOM      1  C   UNL     1       4.053   3.237  19.370  0.00  0.00    +0.000 A 
ATOM      2  C   UNL     1       4.649   4.116  18.506  0.00  0.00    +0.000 A 
ATOM      3  N   UNL     1       3.997   5.326  18.380  0.00  0.00    +0.000 NA
ATOM      4  C   UNL     1       2.953   5.384  19.183  0.00  0.00    +0.000 A 
ATOM      5  N   UNL     1       2.158   6.475  19.278  0.00  0.00    +0.000 N 
ATOM      6  C   UNL     1       1.314   6.774  20.443  0.00  0.00    +0.000 C 
ATOM      7  C   UNL     1       1.531   8.234  20.905  0.00  0.00    +0.000 C 
ATOM      8  N   UNL     1       1.322   9.142  19.760  0.00  0.00    +0.000 N 
ATOM      9  C   UNL     1       2.262   8.884  18.650  0.00  0.00    +0.000 C 
ATOM     10  C   UNL     1       2.078   7.427  18.156  0.00  0.00    +0.000 C 
ATOM     11  S   UNL     1       2.682   3.924  20.084  0.00  0.00    +0.000 S 
ENDROOT
BRANCH   8  12
ATOM     12  C   UNL     1       0.549  10.287  19.869  0.00  0.00    +0.000 A 
ATOM     13  C   UNL     1       0.846  11.224  20.866  0.00  0.00    +0.000 A 
ATOM     14  C   UNL     1       0.047  12.340  21.025  0.00  0.00    +0.000 A 
ATOM     15  N   UNL     1      -1.022  12.607  20.260  0.00  0.00    +0.000 NA
ATOM     16  C   UNL     1      -1.335  11.733  19.294  0.00  0.00    +0.000 A 
ATOM     17  C   UNL     1      -2.455  12.022  18.530  0.00  0.00    +0.000 A 
ATOM     18  C   UNL     1      -2.880  11.173  17.512  0.00  0.00    +0.000 A 
ATOM     19 CL   UNL     1      -4.271  11.572  16.581  0.00  0.00    +0.000 Cl
ATOM     20  C   UNL     1      -2.202   9.996  17.262  0.00  0.00    +0.000 A 
ATOM     21  C   UNL     1      -1.087   9.680  18.039  0.00  0.00    +0.000 A 
ATOM     22  C   UNL     1      -0.599  10.546  19.050  0.00  0.00    +0.000 A 
ENDBRANCH   8  12
BRANCH   1  24
ATOM     23  O   UNL     1       4.075   1.014  18.940  0.00  0.00    +0.000 OA
ATOM     24  N   UNL     1       4.485   1.913  19.681  0.00  0.00    +0.000 N 
ATOM     25  O   UNL     1       5.224   1.757  20.660  0.00  0.00    +0.000 OA
ENDBRANCH   1  24
TORSDOF 2
ENDMDL
MODEL 2
REMARK VINA RESULT:      -7.2      1.593      1.799
REMARK  Name = 
REMARK  2 active torsions:
REMARK  status: ('A' for Active; 'I' for Inactive)
REMARK    1  A    between atoms: N_2  and  C_4
REMARK    2  A    between atoms: N_11  and  C_12
REMARK                            x       y       z     vdW  Elec       q    Type
REMARK                         _______ _______ _______ _____ _____    ______ ____
ROOT
ATOM      1  C   UNL     1       4.736   5.318  18.656  0.00  0.00    +0.000 A 
ATOM      2  C   UNL     1       4.936   6.291  17.715  0.00  0.00    +0.000 A 
ATOM      3  N   UNL     1       3.989   7.296  17.720  0.00  0.00    +0.000 NA
ATOM      4  C   UNL     1       3.117   7.115  18.691  0.00  0.00    +0.000 A 
ATOM      5  N   UNL     1       2.101   7.974  18.936  0.00  0.00    +0.000 N 
ATOM      6  C   UNL     1       1.419   8.088  20.233  0.00  0.00    +0.000 C 
ATOM      7  C   UNL     1       1.337   9.570  20.670  0.00  0.00    +0.000 C 
ATOM      8  N   UNL     1       0.715  10.361  19.591  0.00  0.00    +0.000 N 
ATOM      9  C   UNL     1       1.488  10.313  18.332  0.00  0.00    +0.000 C 
ATOM     10  C   UNL     1       1.595   8.842  17.858  0.00  0.00    +0.000 C 
ATOM     11  S   UNL     1       3.378   5.661  19.605  0.00  0.00    +0.000 S 
ENDROOT
BRANCH   8  12
ATOM     12  C   UNL     1      -0.291  11.280  19.847  0.00  0.00    +0.000 A 
ATOM     13  C   UNL     1      -0.078  12.284  20.799  0.00  0.00    +0.000 A 
ATOM     14  C   UNL     1      -1.093  13.168  21.108  0.00  0.00    +0.000 A 
ATOM     15  N   UNL     1      -2.306  13.143  20.534  0.00  0.00    +0.000 NA
ATOM     16  C   UNL     1      -2.544  12.197  19.616  0.00  0.00    +0.000 A 
ATOM     17  C   UNL     1      -3.809  12.179  19.051  0.00  0.00    +0.000 A 
ATOM     18  C   UNL     1      -4.170  11.228  18.102  0.00  0.00    +0.000 A 
ATOM     19 CL   UNL     1      -5.749  11.246  17.419  0.00  0.00    +0.000 Cl
ATOM     20  C   UNL     1      -3.269  10.251  17.721  0.00  0.00    +0.000 A 
ATOM     21  C   UNL     1      -2.000  10.242  18.299  0.00  0.00    +0.000 A 
ATOM     22  C   UNL     1      -1.585  11.225  19.232  0.00  0.00    +0.000 A 
ENDBRANCH   8  12
BRANCH   1  24
ATOM     23  O   UNL     1       4.966   3.189  19.392  0.00  0.00    +0.000 OA
ATOM     24  N   UNL     1       5.534   4.154  18.870  0.00  0.00    +0.000 N 
ATOM     25  O   UNL     1       6.722   4.192  18.530  0.00  0.00    +0.000 OA
ENDBRANCH   1  24
TORSDOF 2
ENDMDL
MODEL 3
REMARK VINA RESULT:      -7.1      5.560      8.910
REMARK  Name = 
REMARK  2 active torsions:
REMARK  status: ('A' for Active; 'I' for Inactive)
REMARK    1  A    between atoms: N_2  and  C_4
REMARK    2  A    between atoms: N_11  and  C_12
REMARK                            x       y       z     vdW  Elec       q    Type
REMARK                         _______ _______ _______ _____ _____    ______ ____
ROOT
ATOM      1  C   UNL     1       0.086  13.273  20.137  0.00  0.00    +0.000 A 
ATOM      2  C   UNL     1       0.570  12.670  21.266  0.00  0.00    +0.000 A 
ATOM      3  N   UNL     1       0.861  11.328  21.119  0.00  0.00    +0.000 NA
ATOM      4  C   UNL     1       0.653  10.936  19.878  0.00  0.00    +0.000 A 
ATOM      5  N   UNL     1       0.891   9.671  19.457  0.00  0.00    +0.000 N 
ATOM      6  C   UNL     1       1.133   9.307  18.054  0.00  0.00    +0.000 C 
ATOM      7  C   UNL     1       2.399   8.425  17.938  0.00  0.00    +0.000 C 
ATOM      8  N   UNL     1       2.271   7.270  18.847  0.00  0.00    +0.000 N 
ATOM      9  C   UNL     1       2.140   7.672  20.264  0.00  0.00    +0.000 C 
ATOM     10  C   UNL     1       0.881   8.560  20.424  0.00  0.00    +0.000 C 
ATOM     11  S   UNL     1       0.025  12.182  18.845  0.00  0.00    +0.000 S 
ENDROOT
BRANCH   8  12
ATOM     12  C   UNL     1       2.563   5.980  18.433  0.00  0.00    +0.000 A 
ATOM     13  C   UNL     1       1.835   4.907  18.963  0.00  0.00    +0.000 A 
ATOM     14  C   UNL     1       2.155   3.612  18.606  0.00  0.00    +0.000 A 
ATOM     15  N   UNL     1       3.139   3.296  17.749  0.00  0.00    +0.000 NA
ATOM     16  C   UNL     1       3.855   4.297  17.221  0.00  0.00    +0.000 A 
ATOM     17  C   UNL     1       4.878   3.944  16.355  0.00  0.00    +0.000 A 
ATOM     18  C   UNL     1       5.696   4.903  15.765  0.00  0.00    +0.000 A 
ATOM     19 CL   UNL     1       6.949   4.423  14.688  0.00  0.00    +0.000 Cl
ATOM     20  C   UNL     1       5.519   6.241  16.059  0.00  0.00    +0.000 A 
ATOM     21  C   UNL     1       4.510   6.610  16.948  0.00  0.00    +0.000 A 
ATOM     22  C   UNL     1       3.629   5.663  17.528  0.00  0.00    +0.000 A 
ENDBRANCH   8  12
BRANCH   1  24
ATOM     23  O   UNL     1      -0.347  15.083  18.847  0.00  0.00    +0.000 OA
ATOM     24  N   UNL     1      -0.318  14.634  19.998  0.00  0.00    +0.000 N 
ATOM     25  O   UNL     1      -0.601  15.265  21.023  0.00  0.00    +0.000 OA
ENDBRANCH   1  24
TORSDOF 2
ENDMDL
MODEL 4
REMARK VINA RESULT:      -7.1      2.701      3.473
REMARK  Name = 
REMARK  2 active torsions:
REMARK  status: ('A' for Active; 'I' for Inactive)
REMARK    1  A    between atoms: N_2  and  C_4
REMARK    2  A    between atoms: N_11  and  C_12
REMARK                            x       y       z     vdW  Elec       q    Type
REMARK                         _______ _______ _______ _____ _____    ______ ____
ROOT
ATOM      1  C   UNL     1       3.252   4.252  19.366  0.00  0.00    +0.000 A 
ATOM      2  C   UNL     1       2.333   4.311  20.379  0.00  0.00    +0.000 A 
ATOM      3  N   UNL     1       1.840   5.576  20.630  0.00  0.00    +0.000 NA
ATOM      4  C   UNL     1       2.336   6.452  19.780  0.00  0.00    +0.000 A 
ATOM      5  N   UNL     1       1.992   7.761  19.788  0.00  0.00    +0.000 N 
ATOM      6  C   UNL     1       2.125   8.650  18.626  0.00  0.00    +0.000 C 
ATOM      7  C   UNL     1       0.807   9.424  18.386  0.00  0.00    +0.000 C 
ATOM      8  N   UNL     1       0.415  10.113  19.630  0.00  0.00    +0.000 N 
ATOM      9  C   UNL     1       0.181   9.177  20.750  0.00  0.00    +0.000 C 
ATOM     10  C   UNL     1       1.481   8.379  21.024  0.00  0.00    +0.000 C 
ATOM     11  S   UNL     1       3.488   5.776  18.670  0.00  0.00    +0.000 S 
ENDROOT
BRANCH   8  12
ATOM     12  C   UNL     1       0.012  11.439  19.634  0.00  0.00    +0.000 A 
ATOM     13  C   UNL     1      -1.295  11.760  20.020  0.00  0.00    +0.000 A 
ATOM     14  C   UNL     1      -1.728  13.070  19.970  0.00  0.00    +0.000 A 
ATOM     15  N   UNL     1      -0.957  14.096  19.576  0.00  0.00    +0.000 NA
ATOM     16  C   UNL     1       0.300  13.827  19.202  0.00  0.00    +0.000 A 
ATOM     17  C   UNL     1       1.069  14.900  18.782  0.00  0.00    +0.000 A 
ATOM     18  C   UNL     1       2.383  14.731  18.353  0.00  0.00    +0.000 A 
ATOM     19 CL   UNL     1       3.307  16.091  17.847  0.00  0.00    +0.000 Cl
ATOM     20  C   UNL     1       2.941  13.468  18.311  0.00  0.00    +0.000 A 
ATOM     21  C   UNL     1       2.171  12.375  18.708  0.00  0.00    +0.000 A 
ATOM     22  C   UNL     1       0.847  12.519  19.195  0.00  0.00    +0.000 A 
ENDBRANCH   8  12
BRANCH   1  24
ATOM     23  O   UNL     1       3.534   2.595  17.848  0.00  0.00    +0.000 OA
ATOM     24  N   UNL     1       3.943   3.093  18.902  0.00  0.00    +0.000 N 
ATOM     25  O   UNL     1       4.886   2.668  19.579  0.00  0.00    +0.000 OA
ENDBRANCH   1  24
TORSDOF 2
ENDMDL
MODEL 5
REMARK VINA RESULT:      -6.7      2.138      2.490
REMARK  Name = 
REMARK  2 active torsions:
REMARK  status: ('A' for Active; 'I' for Inactive)
REMARK    1  A    between atoms: N_2  and  C_4
REMARK    2  A    between atoms: N_11  and  C_12
REMARK                            x       y       z     vdW  Elec       q    Type
REMARK                         _______ _______ _______ _____ _____    ______ ____
ROOT
ATOM      1  C   UNL     1       5.480   4.794  16.863  0.00  0.00    +0.000 A 
ATOM      2  C   UNL     1       4.597   4.195  17.720  0.00  0.00    +0.000 A 
ATOM      3  N   UNL     1       3.756   5.070  18.378  0.00  0.00    +0.000 NA
ATOM      4  C   UNL     1       3.962   6.309  17.980  0.00  0.00    +0.000 A 
ATOM      5  N   UNL     1       3.247   7.360  18.446  0.00  0.00    +0.000 N 
ATOM      6  C   UNL     1       3.098   8.633  17.727  0.00  0.00    +0.000 C 
ATOM      7  C   UNL     1       1.607   9.043  17.661  0.00  0.00    +0.000 C 
ATOM      8  N   UNL     1       1.044   9.051  19.025  0.00  0.00    +0.000 N 
ATOM      9  C   UNL     1       1.111   7.726  19.677  0.00  0.00    +0.000 C 
ATOM     10  C   UNL     1       2.591   7.277  19.763  0.00  0.00    +0.000 C 
ATOM     11  S   UNL     1       5.248   6.469  16.824  0.00  0.00    +0.000 S 
ENDROOT
BRANCH   8  12
ATOM     12  C   UNL     1       0.269  10.103  19.488  0.00  0.00    +0.000 A 
ATOM     13  C   UNL     1       0.671  10.800  20.634  0.00  0.00    +0.000 A 
ATOM     14  C   UNL     1      -0.123  11.810  21.141  0.00  0.00    +0.000 A 
ATOM     15  N   UNL     1      -1.285  12.194  20.590  0.00  0.00    +0.000 NA
ATOM     16  C   UNL     1      -1.700  11.550  19.491  0.00  0.00    +0.000 A 
ATOM     17  C   UNL     1      -2.912  11.952  18.953  0.00  0.00    +0.000 A 
ATOM     18  C   UNL     1      -3.445  11.338  17.823  0.00  0.00    +0.000 A 
ATOM     19 CL   UNL     1      -4.950  11.872  17.181  0.00  0.00    +0.000 Cl
ATOM     20  C   UNL     1      -2.781  10.283  17.227  0.00  0.00    +0.000 A 
ATOM     21  C   UNL     1      -1.572   9.852  17.773  0.00  0.00    +0.000 A 
ATOM     22  C   UNL     1      -0.977  10.487  18.893  0.00  0.00    +0.000 A 
ENDBRANCH   8  12
BRANCH   1  24
ATOM     23  O   UNL     1       6.068   3.383  15.191  0.00  0.00    +0.000 OA
ATOM     24  N   UNL     1       6.476   4.150  16.070  0.00  0.00    +0.000 N 
ATOM     25  O   UNL     1       7.663   4.393  16.317  0.00  0.00    +0.000 OA
ENDBRANCH   1  24
TORSDOF 2
ENDMDL
MODEL 6
REMARK VINA RESULT:      -6.6      5.328      8.583
REMARK  Name = 
REMARK  2 active torsions:
REMARK  status: ('A' for Active; 'I' for Inactive)
REMARK    1  A    between atoms: N_2  and  C_4
REMARK    2  A    between atoms: N_11  and  C_12
REMARK                            x       y       z     vdW  Elec       q    Type
REMARK                         _______ _______ _______ _____ _____    ______ ____
ROOT
ATOM      1  C   UNL     1      -1.793  11.943  22.223  0.00  0.00    +0.000 A 
ATOM      2  C   UNL     1      -2.031  12.083  20.882  0.00  0.00    +0.000 A 
ATOM      3  N   UNL     1      -1.124  11.432  20.069  0.00  0.00    +0.000 NA
ATOM      4  C   UNL     1      -0.247  10.761  20.787  0.00  0.00    +0.000 A 
ATOM      5  N   UNL     1       0.734  10.009  20.235  0.00  0.00    +0.000 N 
ATOM      6  C   UNL     1       1.409   8.904  20.931  0.00  0.00    +0.000 C 
ATOM      7  C   UNL     1       1.432   7.640  20.039  0.00  0.00    +0.000 C 
ATOM      8  N   UNL     1       2.023   7.979  18.730  0.00  0.00    +0.000 N 
ATOM      9  C   UNL     1       1.254   9.016  18.009  0.00  0.00    +0.000 C 
ATOM     10  C   UNL     1       1.207  10.303  18.871  0.00  0.00    +0.000 C 
ATOM     11  S   UNL     1      -0.451  10.952  22.501  0.00  0.00    +0.000 S 
ENDROOT
BRANCH   8  12
ATOM     12  C   UNL     1       2.991   7.183  18.138  0.00  0.00    +0.000 A 
ATOM     13  C   UNL     1       3.954   7.774  17.311  0.00  0.00    +0.000 A 
ATOM     14  C   UNL     1       4.887   6.985  16.666  0.00  0.00    +0.000 A 
ATOM     15  N   UNL     1       4.948   5.650  16.789  0.00  0.00    +0.000 NA
ATOM     16  C   UNL     1       4.044   5.052  17.575  0.00  0.00    +0.000 A 
ATOM     17  C   UNL     1       4.116   3.671  17.669  0.00  0.00    +0.000 A 
ATOM     18  C   UNL     1       3.214   2.946  18.443  0.00  0.00    +0.000 A 
ATOM     19 CL   UNL     1       3.343   1.233  18.541  0.00  0.00    +0.000 Cl
ATOM     20  C   UNL     1       2.198   3.597  19.116  0.00  0.00    +0.000 A 
ATOM     21  C   UNL     1       2.098   4.984  19.010  0.00  0.00    +0.000 A 
ATOM     22  C   UNL     1       3.029   5.756  18.271  0.00  0.00    +0.000 A 
ENDBRANCH   8  12
BRANCH   1  24
ATOM     23  O   UNL     1      -2.150  13.610  23.713  0.00  0.00    +0.000 OA
ATOM     24  N   UNL     1      -2.544  12.518  23.291  0.00  0.00    +0.000 N 
ATOM     25  O   UNL     1      -3.519  11.890  23.721  0.00  0.00    +0.000 OA
ENDBRANCH   1  24
TORSDOF 2
ENDMDL
MODEL 7
REMARK VINA RESULT:      -6.6      3.340      3.987
REMARK  Name = 
REMARK  2 active torsions:
REMARK  status: ('A' for Active; 'I' for Inactive)
REMARK    1  A    between atoms: N_2  and  C_4
REMARK    2  A    between atoms: N_11  and  C_12
REMARK                            x       y       z     vdW  Elec       q    Type
REMARK                         _______ _______ _______ _____ _____    ______ ____
ROOT
ATOM      1  C   UNL     1       5.697   4.859  15.297  0.00  0.00    +0.000 A 
ATOM      2  C   UNL     1       5.144   3.993  16.201  0.00  0.00    +0.000 A 
ATOM      3  N   UNL     1       4.465   4.604  17.237  0.00  0.00    +0.000 NA
ATOM      4  C   UNL     1       4.456   5.913  17.086  0.00  0.00    +0.000 A 
ATOM      5  N   UNL     1       3.830   6.748  17.948  0.00  0.00    +0.000 N 
ATOM      6  C   UNL     1       3.388   8.105  17.598  0.00  0.00    +0.000 C 
ATOM      7  C   UNL     1       1.915   8.318  18.022  0.00  0.00    +0.000 C 
ATOM      8  N   UNL     1       1.768   7.986  19.452  0.00  0.00    +0.000 N 
ATOM      9  C   UNL     1       2.116   6.581  19.749  0.00  0.00    +0.000 C 
ATOM     10  C   UNL     1       3.588   6.324  19.338  0.00  0.00    +0.000 C 
ATOM     11  S   UNL     1       5.341   6.464  15.697  0.00  0.00    +0.000 S 
ENDROOT
BRANCH   8  12
ATOM     12  C   UNL     1       1.084   8.815  20.327  0.00  0.00    +0.000 A 
ATOM     13  C   UNL     1       0.501   8.268  21.477  0.00  0.00    +0.000 A 
ATOM     14  C   UNL     1      -0.236   9.071  22.325  0.00  0.00    +0.000 A 
ATOM     15  N   UNL     1      -0.432  10.385  22.128  0.00  0.00    +0.000 NA
ATOM     16  C   UNL     1       0.114  10.942  21.039  0.00  0.00    +0.000 A 
ATOM     17  C   UNL     1      -0.118  12.295  20.847  0.00  0.00    +0.000 A 
ATOM     18  C   UNL     1       0.386  12.970  19.739  0.00  0.00    +0.000 A 
ATOM     19 CL   UNL     1       0.082  14.652  19.543  0.00  0.00    +0.000 Cl
ATOM     20  C   UNL     1       1.111  12.287  18.782  0.00  0.00    +0.000 A 
ATOM     21  C   UNL     1       1.331  10.920  18.948  0.00  0.00    +0.000 A 
ATOM     22  C   UNL     1       0.874  10.213  20.089  0.00  0.00    +0.000 A 
ENDBRANCH   8  12
BRANCH   1  24
ATOM     23  O   UNL     1       7.525   5.142  13.990  0.00  0.00    +0.000 OA
ATOM     24  N   UNL     1       6.469   4.520  14.146  0.00  0.00    +0.000 N 
ATOM     25  O   UNL     1       6.031   3.645  13.389  0.00  0.00    +0.000 OA
ENDBRANCH   1  24
TORSDOF 2
ENDMDL
MODEL 8
REMARK VINA RESULT:      -6.6      2.963      3.644
REMARK  Name = 
REMARK  2 active torsions:
REMARK  status: ('A' for Active; 'I' for Inactive)
REMARK    1  A    between atoms: N_2  and  C_4
REMARK    2  A    between atoms: N_11  and  C_12
REMARK                            x       y       z     vdW  Elec       q    Type
REMARK                         _______ _______ _______ _____ _____    ______ ____
ROOT
ATOM      1  C   UNL     1       5.584   4.798  15.273  0.00  0.00    +0.000 A 
ATOM      2  C   UNL     1       4.952   3.920  16.111  0.00  0.00    +0.000 A 
ATOM      3  N   UNL     1       4.311   4.512  17.182  0.00  0.00    +0.000 NA
ATOM      4  C   UNL     1       4.409   5.824  17.121  0.00  0.00    +0.000 A 
ATOM      5  N   UNL     1       3.841   6.647  18.034  0.00  0.00    +0.000 N 
ATOM      6  C   UNL     1       3.513   8.056  17.775  0.00  0.00    +0.000 C 
ATOM      7  C   UNL     1       2.057   8.358  18.202  0.00  0.00    +0.000 C 
ATOM      8  N   UNL     1       1.866   7.942  19.605  0.00  0.00    +0.000 N 
ATOM      9  C   UNL     1       2.097   6.496  19.808  0.00  0.00    +0.000 C 
ATOM     10  C   UNL     1       3.548   6.151  19.390  0.00  0.00    +0.000 C 
ATOM     11  S   UNL     1       5.352   6.395  15.780  0.00  0.00    +0.000 S 
ENDROOT
BRANCH   8  12
ATOM     12  C   UNL     1       1.239   8.762  20.530  0.00  0.00    +0.000 A 
ATOM     13  C   UNL     1       1.546   8.625  21.889  0.00  0.00    +0.000 A 
ATOM     14  C   UNL     1       0.884   9.393  22.827  0.00  0.00    +0.000 A 
ATOM     15  N   UNL     1      -0.055  10.301  22.520  0.00  0.00    +0.000 NA
ATOM     16  C   UNL     1      -0.372  10.461  21.228  0.00  0.00    +0.000 A 
ATOM     17  C   UNL     1      -1.359  11.391  20.938  0.00  0.00    +0.000 A 
ATOM     18  C   UNL     1      -1.779  11.623  19.632  0.00  0.00    +0.000 A 
ATOM     19 CL   UNL     1      -3.000  12.792  19.313  0.00  0.00    +0.000 Cl
ATOM     20  C   UNL     1      -1.234  10.899  18.589  0.00  0.00    +0.000 A 
ATOM     21  C   UNL     1      -0.258   9.942  18.868  0.00  0.00    +0.000 A 
ATOM     22  C   UNL     1       0.227   9.716  20.181  0.00  0.00    +0.000 A 
ENDBRANCH   8  12
BRANCH   1  24
ATOM     23  O   UNL     1       7.355   5.153  13.907  0.00  0.00    +0.000 OA
ATOM     24  N   UNL     1       6.340   4.476  14.106  0.00  0.00    +0.000 N 
ATOM     25  O   UNL     1       5.931   3.562  13.381  0.00  0.00    +0.000 OA
ENDBRANCH   1  24
TORSDOF 2
ENDMDL
MODEL 9
REMARK VINA RESULT:      -6.5      4.976      8.621
REMARK  Name = 
REMARK  2 active torsions:
REMARK  status: ('A' for Active; 'I' for Inactive)
REMARK    1  A    between atoms: N_2  and  C_4
REMARK    2  A    between atoms: N_11  and  C_12
REMARK                            x       y       z     vdW  Elec       q    Type
REMARK                         _______ _______ _______ _____ _____    ______ ____
ROOT
ATOM      1  C   UNL     1      -0.445  11.040  21.761  0.00  0.00    +0.000 A 
ATOM      2  C   UNL     1      -0.518  11.172  20.401  0.00  0.00    +0.000 A 
ATOM      3  N   UNL     1       0.212  10.236  19.695  0.00  0.00    +0.000 NA
ATOM      4  C   UNL     1       0.782   9.372  20.511  0.00  0.00    +0.000 A 
ATOM      5  N   UNL     1       1.530   8.332  20.074  0.00  0.00    +0.000 N 
ATOM      6  C   UNL     1       1.778   7.115  20.859  0.00  0.00    +0.000 C 
ATOM      7  C   UNL     1       1.489   5.856  20.007  0.00  0.00    +0.000 C 
ATOM      8  N   UNL     1       2.260   5.932  18.751  0.00  0.00    +0.000 N 
ATOM      9  C   UNL     1       1.905   7.111  17.934  0.00  0.00    +0.000 C 
ATOM     10  C   UNL     1       2.180   8.397  18.753  0.00  0.00    +0.000 C 
ATOM     11  S   UNL     1       0.505   9.708  22.192  0.00  0.00    +0.000 S 
ENDROOT
BRANCH   8  12
ATOM     12  C   UNL     1       2.986   4.851  18.275  0.00  0.00    +0.000 A 
ATOM     13  C   UNL     1       2.758   3.579  18.815  0.00  0.00    +0.000 A 
ATOM     14  C   UNL     1       3.517   2.505  18.394  0.00  0.00    +0.000 A 
ATOM     15  N   UNL     1       4.481   2.591  17.464  0.00  0.00    +0.000 NA
ATOM     16  C   UNL     1       4.724   3.792  16.923  0.00  0.00    +0.000 A 
ATOM     17  C   UNL     1       5.737   3.858  15.980  0.00  0.00    +0.000 A 
ATOM     18  C   UNL     1       6.086   5.060  15.370  0.00  0.00    +0.000 A 
ATOM     19 CL   UNL     1       7.344   5.098  14.196  0.00  0.00    +0.000 Cl
ATOM     20  C   UNL     1       5.439   6.229  15.720  0.00  0.00    +0.000 A 
ATOM     21  C   UNL     1       4.434   6.182  16.686  0.00  0.00    +0.000 A 
ATOM     22  C   UNL     1       4.022   4.967  17.291  0.00  0.00    +0.000 A 
ENDBRANCH   8  12
BRANCH   1  24
ATOM     23  O   UNL     1      -0.684  13.042  22.792  0.00  0.00    +0.000 OA
ATOM     24  N   UNL     1      -1.071  11.870  22.739  0.00  0.00    +0.000 N 
ATOM     25  O   UNL     1      -1.939  11.366  23.460  0.00  0.00    +0.000 OA
ENDBRANCH   1  24
TORSDOF 2
ENDMDL
