MODEL 1
REMARK VINA RESULT:      -7.8      0.000      0.000
REMARK  Name = 
REMARK  4 active torsions:
REMARK  status: ('A' for Active; 'I' for Inactive)
REMARK    1  A    between atoms: C_2  and  C_3
REMARK    2  A    between atoms: C_3  and  N_4
REMARK    3  A    between atoms: C_8  and  N_9
REMARK    4  A    between atoms: N_10  and  C_11
REMARK                            x       y       z     vdW  Elec       q    Type
REMARK                         _______ _______ _______ _____ _____    ______ ____
ROOT
ATOM      1  N   UNL     1       5.054   4.351  16.794  0.00  0.00    +0.000 N 
ATOM      2  C   UNL     1       5.808   4.083  15.682  0.00  0.00    +0.000 A 
ATOM      3  C   UNL     1       6.059   5.310  15.121  0.00  0.00    +0.000 A 
ATOM      4  N   UNL     1       5.503   6.307  15.877  0.00  0.00    +0.000 NA
ATOM      5  C   UNL     1       4.885   5.724  16.895  0.00  0.00    +0.000 A 
ENDROOT
BRANCH   5   6
ATOM      6  N   UNL     1       4.130   6.336  17.847  0.00  0.00    +0.000 NA
ATOM      7  N   UNL     1       3.164   7.016  17.442  0.00  0.00    +0.000 NA
BRANCH   7   8
ATOM      8  C   UNL     1       2.436   7.632  18.483  0.00  0.00    +0.000 A 
ATOM      9  C   UNL     1       2.312   7.138  19.789  0.00  0.00    +0.000 A 
ATOM     10  C   UNL     1       1.582   7.834  20.761  0.00  0.00    +0.000 A 
ATOM     11  C   UNL     1       0.972   9.052  20.442  0.00  0.00    +0.000 A 
ATOM     12 CL   UNL     1       0.105   9.870  21.686  0.00  0.00    +0.000 Cl
ATOM     13  C   UNL     1       1.099   9.563  19.149  0.00  0.00    +0.000 A 
ATOM     14 CL   UNL     1       0.398  11.070  18.674  0.00  0.00    +0.000 Cl
ATOM     15  C   UNL     1       1.820   8.854  18.181  0.00  0.00    +0.000 A 
ENDBRANCH   7   8
ENDBRANCH   5   6
BRANCH   1  16
ATOM     16  C   UNL     1       4.570   3.326  17.711  0.00  0.00    +0.000 C 
BRANCH  16  18
ATOM     17  O   UNL     1       2.363   3.178  16.769  0.00  0.00    +0.000 OA
ATOM     18  C   UNL     1       3.054   3.250  17.787  0.00  0.00    +0.000 C 
ATOM     19  N   UNL     1       2.496   3.161  19.048  0.00  0.00    +0.000 N 
ATOM     20  C   UNL     1       1.082   2.907  19.228  0.00  0.00    +0.000 C 
ATOM     21  C   UNL     1       0.711   3.770  20.415  0.00  0.00    +0.000 C 
ATOM     22  C   UNL     1       1.958   3.696  21.293  0.00  0.00    +0.000 C 
ATOM     23  C   UNL     1       3.112   3.557  20.306  0.00  0.00    +0.000 C 
ENDBRANCH  16  18
ENDBRANCH   1  16
TORSDOF 4
ENDMDL
MODEL 2
REMARK VINA RESULT:      -7.7      0.970      1.262
REMARK  Name = 
REMARK  4 active torsions:
REMARK  status: ('A' for Active; 'I' for Inactive)
REMARK    1  A    between atoms: C_2  and  C_3
REMARK    2  A    between atoms: C_3  and  N_4
REMARK    3  A    between atoms: C_8  and  N_9
REMARK    4  A    between atoms: N_10  and  C_11
REMARK                            x       y       z     vdW  Elec       q    Type
REMARK                         _______ _______ _______ _____ _____    ______ ____
ROOT
ATOM      1  N   UNL     1       5.053   4.423  16.751  0.00  0.00    +0.000 N 
ATOM      2  C   UNL     1       5.990   4.111  15.801  0.00  0.00    +0.000 A 
ATOM      3  C   UNL     1       6.696   5.271  15.606  0.00  0.00    +0.000 A 
ATOM      4  N   UNL     1       6.231   6.261  16.428  0.00  0.00    +0.000 NA
ATOM      5  C   UNL     1       5.225   5.748  17.124  0.00  0.00    +0.000 A 
ENDROOT
BRANCH   5   6
ATOM      6  N   UNL     1       4.420   6.409  17.999  0.00  0.00    +0.000 NA
ATOM      7  N   UNL     1       3.304   6.767  17.572  0.00  0.00    +0.000 NA
BRANCH   7   8
ATOM      8  C   UNL     1       2.531   7.459  18.530  0.00  0.00    +0.000 A 
ATOM      9  C   UNL     1       2.272   7.018  19.835  0.00  0.00    +0.000 A 
ATOM     10  C   UNL     1       1.508   7.787  20.721  0.00  0.00    +0.000 A 
ATOM     11  C   UNL     1       0.999   9.026  20.317  0.00  0.00    +0.000 A 
ATOM     12 CL   UNL     1       0.083   9.934  21.459  0.00  0.00    +0.000 Cl
ATOM     13  C   UNL     1       1.260   9.484  19.024  0.00  0.00    +0.000 A 
ATOM     14 CL   UNL     1       0.690  11.010  18.448  0.00  0.00    +0.000 Cl
ATOM     15  C   UNL     1       2.015   8.702  18.142  0.00  0.00    +0.000 A 
ENDBRANCH   7   8
ENDBRANCH   5   6
BRANCH   1  16
ATOM     16  C   UNL     1       4.085   3.470  17.278  0.00  0.00    +0.000 C 
BRANCH  16  18
ATOM     17  O   UNL     1       5.184   3.170  19.395  0.00  0.00    +0.000 OA
ATOM     18  C   UNL     1       4.123   3.344  18.792  0.00  0.00    +0.000 C 
ATOM     19  N   UNL     1       2.932   3.536  19.464  0.00  0.00    +0.000 N 
ATOM     20  C   UNL     1       2.888   3.613  20.910  0.00  0.00    +0.000 C 
ATOM     21  C   UNL     1       1.609   2.888  21.269  0.00  0.00    +0.000 C 
ATOM     22  C   UNL     1       0.672   3.262  20.123  0.00  0.00    +0.000 C 
ATOM     23  C   UNL     1       1.589   3.416  18.915  0.00  0.00    +0.000 C 
ENDBRANCH  16  18
ENDBRANCH   1  16
TORSDOF 4
ENDMDL
MODEL 3
REMARK VINA RESULT:      -7.6      1.247      1.968
REMARK  Name = 
REMARK  4 active torsions:
REMARK  status: ('A' for Active; 'I' for Inactive)
REMARK    1  A    between atoms: C_2  and  C_3
REMARK    2  A    between atoms: C_3  and  N_4
REMARK    3  A    between atoms: C_8  and  N_9
REMARK    4  A    between atoms: N_10  and  C_11
REMARK                            x       y       z     vdW  Elec       q    Type
REMARK                         _______ _______ _______ _____ _____    ______ ____
ROOT
ATOM      1  N   UNL     1       5.202   4.497  16.784  0.00  0.00    +0.000 N 
ATOM      2  C   UNL     1       6.216   4.075  15.964  0.00  0.00    +0.000 A 
ATOM      3  C   UNL     1       6.959   5.201  15.715  0.00  0.00    +0.000 A 
ATOM      4  N   UNL     1       6.441   6.278  16.381  0.00  0.00    +0.000 NA
ATOM      5  C   UNL     1       5.365   5.852  17.030  0.00  0.00    +0.000 A 
ENDROOT
BRANCH   5   6
ATOM      6  N   UNL     1       4.497   6.611  17.752  0.00  0.00    +0.000 NA
ATOM      7  N   UNL     1       3.618   7.220  17.109  0.00  0.00    +0.000 NA
BRANCH   7   8
ATOM      8  C   UNL     1       2.765   7.996  17.922  0.00  0.00    +0.000 A 
ATOM      9  C   UNL     1       2.248   9.256  17.587  0.00  0.00    +0.000 A 
ATOM     10  C   UNL     1       1.390   9.941  18.455  0.00  0.00    +0.000 A 
ATOM     11  C   UNL     1       1.021   9.368  19.676  0.00  0.00    +0.000 A 
ATOM     12 CL   UNL     1      -0.053  10.252  20.692  0.00  0.00    +0.000 Cl
ATOM     13  C   UNL     1       1.518   8.108  20.018  0.00  0.00    +0.000 A 
ATOM     14 CL   UNL     1       1.098   7.315  21.495  0.00  0.00    +0.000 Cl
ATOM     15  C   UNL     1       2.384   7.436  19.149  0.00  0.00    +0.000 A 
ENDBRANCH   7   8
ENDBRANCH   5   6
BRANCH   1  16
ATOM     16  C   UNL     1       4.171   3.615  17.317  0.00  0.00    +0.000 C 
BRANCH  16  18
ATOM     17  O   UNL     1       5.201   3.323  19.470  0.00  0.00    +0.000 OA
ATOM     18  C   UNL     1       4.167   3.537  18.834  0.00  0.00    +0.000 C 
ATOM     19  N   UNL     1       2.973   3.820  19.470  0.00  0.00    +0.000 N 
ATOM     20  C   UNL     1       2.900   3.947  20.911  0.00  0.00    +0.000 C 
ATOM     21  C   UNL     1       1.573   3.309  21.260  0.00  0.00    +0.000 C 
ATOM     22  C   UNL     1       0.686   3.698  20.080  0.00  0.00    +0.000 C 
ATOM     23  C   UNL     1       1.639   3.759  18.891  0.00  0.00    +0.000 C 
ENDBRANCH  16  18
ENDBRANCH   1  16
TORSDOF 4
ENDMDL
MODEL 4
REMARK VINA RESULT:      -7.3      1.085      1.707
REMARK  Name = 
REMARK  4 active torsions:
REMARK  status: ('A' for Active; 'I' for Inactive)
REMARK    1  A    between atoms: C_2  and  C_3
REMARK    2  A    between atoms: C_3  and  N_4
REMARK    3  A    between atoms: C_8  and  N_9
REMARK    4  A    between atoms: N_10  and  C_11
REMARK                            x       y       z     vdW  Elec       q    Type
REMARK                         _______ _______ _______ _____ _____    ______ ____
ROOT
ATOM      1  N   UNL     1       5.777   4.922  17.633  0.00  0.00    +0.000 N 
ATOM      2  C   UNL     1       6.668   4.340  16.770  0.00  0.00    +0.000 A 
ATOM      3  C   UNL     1       6.945   5.311  15.840  0.00  0.00    +0.000 A 
ATOM      4  N   UNL     1       6.270   6.464  16.134  0.00  0.00    +0.000 NA
ATOM      5  C   UNL     1       5.553   6.228  17.224  0.00  0.00    +0.000 A 
ENDROOT
BRANCH   5   6
ATOM      6  N   UNL     1       4.668   7.076  17.816  0.00  0.00    +0.000 NA
ATOM      7  N   UNL     1       3.473   6.964  17.475  0.00  0.00    +0.000 NA
BRANCH   7   8
ATOM      8  C   UNL     1       2.618   7.885  18.119  0.00  0.00    +0.000 A 
ATOM      9  C   UNL     1       2.076   9.037  17.531  0.00  0.00    +0.000 A 
ATOM     10  C   UNL     1       1.218   9.880  18.248  0.00  0.00    +0.000 A 
ATOM     11  C   UNL     1       0.875   9.575  19.569  0.00  0.00    +0.000 A 
ATOM     12 CL   UNL     1      -0.200  10.641  20.391  0.00  0.00    +0.000 Cl
ATOM     13  C   UNL     1       1.396   8.424  20.163  0.00  0.00    +0.000 A 
ATOM     14 CL   UNL     1       1.009   7.958  21.782  0.00  0.00    +0.000 Cl
ATOM     15  C   UNL     1       2.263   7.593  19.443  0.00  0.00    +0.000 A 
ENDBRANCH   7   8
ENDBRANCH   5   6
BRANCH   1  16
ATOM     16  C   UNL     1       5.220   4.247  18.799  0.00  0.00    +0.000 C 
BRANCH  16  18
ATOM     17  O   UNL     1       4.034   2.647  17.451  0.00  0.00    +0.000 OA
ATOM     18  C   UNL     1       4.044   3.342  18.469  0.00  0.00    +0.000 C 
ATOM     19  N   UNL     1       3.038   3.258  19.413  0.00  0.00    +0.000 N 
ATOM     20  C   UNL     1       1.963   2.296  19.281  0.00  0.00    +0.000 C 
ATOM     21  C   UNL     1       0.747   3.049  19.775  0.00  0.00    +0.000 C 
ATOM     22  C   UNL     1       1.313   3.912  20.900  0.00  0.00    +0.000 C 
ATOM     23  C   UNL     1       2.740   4.223  20.460  0.00  0.00    +0.000 C 
ENDBRANCH  16  18
ENDBRANCH   1  16
TORSDOF 4
ENDMDL
MODEL 5
REMARK VINA RESULT:      -7.2      4.769      5.300
REMARK  Name = 
REMARK  4 active torsions:
REMARK  status: ('A' for Active; 'I' for Inactive)
REMARK    1  A    between atoms: C_2  and  C_3
REMARK    2  A    between atoms: C_3  and  N_4
REMARK    3  A    between atoms: C_8  and  N_9
REMARK    4  A    between atoms: N_10  and  C_11
REMARK                            x       y       z     vdW  Elec       q    Type
REMARK                         _______ _______ _______ _____ _____    ______ ____
ROOT
ATOM      1  N   UNL     1       6.336   5.415  17.707  0.00  0.00    +0.000 N 
ATOM      2  C   UNL     1       6.080   4.507  16.713  0.00  0.00    +0.000 A 
ATOM      3  C   UNL     1       6.856   4.912  15.656  0.00  0.00    +0.000 A 
ATOM      4  N   UNL     1       7.589   6.017  15.994  0.00  0.00    +0.000 NA
ATOM      5  C   UNL     1       7.270   6.329  17.243  0.00  0.00    +0.000 A 
ENDROOT
BRANCH   5   6
ATOM      6  N   UNL     1       7.703   7.410  17.947  0.00  0.00    +0.000 NA
ATOM      7  N   UNL     1       7.978   8.433  17.289  0.00  0.00    +0.000 NA
BRANCH   7   8
ATOM      8  C   UNL     1       8.433   9.507  18.084  0.00  0.00    +0.000 A 
ATOM      9  C   UNL     1       9.081   9.383  19.321  0.00  0.00    +0.000 A 
ATOM     10  C   UNL     1       9.514  10.512  20.028  0.00  0.00    +0.000 A 
ATOM     11  C   UNL     1       9.317  11.791  19.499  0.00  0.00    +0.000 A 
ATOM     12 CL   UNL     1       9.889  13.138  20.407  0.00  0.00    +0.000 Cl
ATOM     13  C   UNL     1       8.684  11.929  18.261  0.00  0.00    +0.000 A 
ATOM     14 CL   UNL     1       8.418  13.469  17.521  0.00  0.00    +0.000 Cl
ATOM     15  C   UNL     1       8.244  10.796  17.568  0.00  0.00    +0.000 A 
ENDBRANCH   7   8
ENDBRANCH   5   6
BRANCH   1  16
ATOM     16  C   UNL     1       5.730   5.359  19.032  0.00  0.00    +0.000 C 
BRANCH  16  18
ATOM     17  O   UNL     1       5.325   3.088  19.712  0.00  0.00    +0.000 OA
ATOM     18  C   UNL     1       4.861   4.131  19.247  0.00  0.00    +0.000 C 
ATOM     19  N   UNL     1       3.509   4.272  18.997  0.00  0.00    +0.000 N 
ATOM     20  C   UNL     1       2.569   3.225  19.335  0.00  0.00    +0.000 C 
ATOM     21  C   UNL     1       1.580   3.246  18.190  0.00  0.00    +0.000 C 
ATOM     22  C   UNL     1       1.489   4.731  17.845  0.00  0.00    +0.000 C 
ATOM     23  C   UNL     1       2.877   5.281  18.159  0.00  0.00    +0.000 C 
ENDBRANCH  16  18
ENDBRANCH   1  16
TORSDOF 4
ENDMDL
MODEL 6
REMARK VINA RESULT:      -7.0      1.921      4.400
REMARK  Name = 
REMARK  4 active torsions:
REMARK  status: ('A' for Active; 'I' for Inactive)
REMARK    1  A    between atoms: C_2  and  C_3
REMARK    2  A    between atoms: C_3  and  N_4
REMARK    3  A    between atoms: C_8  and  N_9
REMARK    4  A    between atoms: N_10  and  C_11
REMARK                            x       y       z     vdW  Elec       q    Type
REMARK                         _______ _______ _______ _____ _____    ______ ____
ROOT
ATOM      1  N   UNL     1       4.600   4.515  19.339  0.00  0.00    +0.000 N 
ATOM      2  C   UNL     1       4.664   3.176  19.626  0.00  0.00    +0.000 A 
ATOM      3  C   UNL     1       3.355   2.769  19.700  0.00  0.00    +0.000 A 
ATOM      4  N   UNL     1       2.511   3.813  19.440  0.00  0.00    +0.000 NA
ATOM      5  C   UNL     1       3.267   4.881  19.224  0.00  0.00    +0.000 A 
ENDROOT
BRANCH   5   6
ATOM      6  N   UNL     1       2.837   6.154  19.011  0.00  0.00    +0.000 NA
ATOM      7  N   UNL     1       2.231   6.705  19.953  0.00  0.00    +0.000 NA
BRANCH   7   8
ATOM      8  C   UNL     1       1.803   8.016  19.654  0.00  0.00    +0.000 A 
ATOM      9  C   UNL     1       1.936   8.650  18.411  0.00  0.00    +0.000 A 
ATOM     10  C   UNL     1       1.460   9.951  18.207  0.00  0.00    +0.000 A 
ATOM     11  C   UNL     1       0.825  10.639  19.247  0.00  0.00    +0.000 A 
ATOM     12 CL   UNL     1       0.245  12.229  18.928  0.00  0.00    +0.000 Cl
ATOM     13  C   UNL     1       0.674  10.014  20.487  0.00  0.00    +0.000 A 
ATOM     14 CL   UNL     1      -0.116  10.779  21.821  0.00  0.00    +0.000 Cl
ATOM     15  C   UNL     1       1.164   8.718  20.685  0.00  0.00    +0.000 A 
ENDBRANCH   7   8
ENDBRANCH   5   6
BRANCH   1  16
ATOM     16  C   UNL     1       5.773   5.360  19.153  0.00  0.00    +0.000 C 
BRANCH  16  18
ATOM     17  O   UNL     1       7.854   4.387  18.443  0.00  0.00    +0.000 OA
ATOM     18  C   UNL     1       6.748   4.823  18.118  0.00  0.00    +0.000 C 
ATOM     19  N   UNL     1       6.296   4.750  16.815  0.00  0.00    +0.000 N 
ATOM     20  C   UNL     1       7.074   4.094  15.785  0.00  0.00    +0.000 C 
ATOM     21  C   UNL     1       6.858   4.962  14.564  0.00  0.00    +0.000 C 
ATOM     22  C   UNL     1       5.408   5.415  14.720  0.00  0.00    +0.000 C 
ATOM     23  C   UNL     1       5.196   5.502  16.228  0.00  0.00    +0.000 C 
ENDBRANCH  16  18
ENDBRANCH   1  16
TORSDOF 4
ENDMDL
MODEL 7
REMARK VINA RESULT:      -7.0      1.072      1.800
REMARK  Name = 
REMARK  4 active torsions:
REMARK  status: ('A' for Active; 'I' for Inactive)
REMARK    1  A    between atoms: C_2  and  C_3
REMARK    2  A    between atoms: C_3  and  N_4
REMARK    3  A    between atoms: C_8  and  N_9
REMARK    4  A    between atoms: N_10  and  C_11
REMARK                            x       y       z     vdW  Elec       q    Type
REMARK                         _______ _______ _______ _____ _____    ______ ____
ROOT
ATOM      1  N   UNL     1       4.449   4.433  16.675  0.00  0.00    +0.000 N 
ATOM      2  C   UNL     1       5.666   3.906  16.329  0.00  0.00    +0.000 A 
ATOM      3  C   UNL     1       6.537   4.965  16.379  0.00  0.00    +0.000 A 
ATOM      4  N   UNL     1       5.887   6.104  16.770  0.00  0.00    +0.000 NA
ATOM      5  C   UNL     1       4.612   5.783  16.946  0.00  0.00    +0.000 A 
ENDROOT
BRANCH   5   6
ATOM      6  N   UNL     1       3.594   6.632  17.255  0.00  0.00    +0.000 NA
ATOM      7  N   UNL     1       3.655   7.198  18.366  0.00  0.00    +0.000 NA
BRANCH   7   8
ATOM      8  C   UNL     1       2.560   8.051  18.622  0.00  0.00    +0.000 A 
ATOM      9  C   UNL     1       1.942   8.884  17.679  0.00  0.00    +0.000 A 
ATOM     10  C   UNL     1       0.844   9.681  18.026  0.00  0.00    +0.000 A 
ATOM     11  C   UNL     1       0.335   9.647  19.329  0.00  0.00    +0.000 A 
ATOM     12 CL   UNL     1      -1.029  10.636  19.689  0.00  0.00    +0.000 Cl
ATOM     13  C   UNL     1       0.932   8.812  20.275  0.00  0.00    +0.000 A 
ATOM     14 CL   UNL     1       0.356   8.689  21.900  0.00  0.00    +0.000 Cl
ATOM     15  C   UNL     1       2.036   8.028  19.922  0.00  0.00    +0.000 A 
ENDBRANCH   7   8
ENDBRANCH   5   6
BRANCH   1  16
ATOM     16  C   UNL     1       3.224   3.649  16.768  0.00  0.00    +0.000 C 
BRANCH  16  18
ATOM     17  O   UNL     1       3.688   1.621  17.972  0.00  0.00    +0.000 OA
ATOM     18  C   UNL     1       3.177   2.742  17.986  0.00  0.00    +0.000 C 
ATOM     19  N   UNL     1       2.627   3.272  19.137  0.00  0.00    +0.000 N 
ATOM     20  C   UNL     1       2.692   2.561  20.397  0.00  0.00    +0.000 C 
ATOM     21  C   UNL     1       1.351   2.845  21.038  0.00  0.00    +0.000 C 
ATOM     22  C   UNL     1       1.062   4.280  20.604  0.00  0.00    +0.000 C 
ATOM     23  C   UNL     1       1.712   4.400  19.230  0.00  0.00    +0.000 C 
ENDBRANCH  16  18
ENDBRANCH   1  16
TORSDOF 4
ENDMDL
MODEL 8
REMARK VINA RESULT:      -7.0      2.014      4.340
REMARK  Name = 
REMARK  4 active torsions:
REMARK  status: ('A' for Active; 'I' for Inactive)
REMARK    1  A    between atoms: C_2  and  C_3
REMARK    2  A    between atoms: C_3  and  N_4
REMARK    3  A    between atoms: C_8  and  N_9
REMARK    4  A    between atoms: N_10  and  C_11
REMARK                            x       y       z     vdW  Elec       q    Type
REMARK                         _______ _______ _______ _____ _____    ______ ____
ROOT
ATOM      1  N   UNL     1       3.556   3.497  17.936  0.00  0.00    +0.000 N 
ATOM      2  C   UNL     1       3.598   2.138  18.111  0.00  0.00    +0.000 A 
ATOM      3  C   UNL     1       2.389   1.817  18.674  0.00  0.00    +0.000 A 
ATOM      4  N   UNL     1       1.612   2.934  18.816  0.00  0.00    +0.000 NA
ATOM      5  C   UNL     1       2.323   3.961  18.371  0.00  0.00    +0.000 A 
ENDROOT
BRANCH   5   6
ATOM      6  N   UNL     1       1.967   5.274  18.405  0.00  0.00    +0.000 NA
ATOM      7  N   UNL     1       2.692   6.034  19.080  0.00  0.00    +0.000 NA
BRANCH   7   8
ATOM      8  C   UNL     1       2.252   7.375  19.080  0.00  0.00    +0.000 A 
ATOM      9  C   UNL     1       2.430   8.288  18.031  0.00  0.00    +0.000 A 
ATOM     10  C   UNL     1       1.939   9.596  18.118  0.00  0.00    +0.000 A 
ATOM     11  C   UNL     1       1.244  10.011  19.259  0.00  0.00    +0.000 A 
ATOM     12 CL   UNL     1       0.648  11.627  19.297  0.00  0.00    +0.000 Cl
ATOM     13  C   UNL     1       1.048   9.109  20.306  0.00  0.00    +0.000 A 
ATOM     14 CL   UNL     1       0.183   9.529  21.743  0.00  0.00    +0.000 Cl
ATOM     15  C   UNL     1       1.553   7.807  20.215  0.00  0.00    +0.000 A 
ENDBRANCH   7   8
ENDBRANCH   5   6
BRANCH   1  16
ATOM     16  C   UNL     1       4.640   4.272  17.345  0.00  0.00    +0.000 C 
BRANCH  16  18
ATOM     17  O   UNL     1       5.936   3.877  19.332  0.00  0.00    +0.000 OA
ATOM     18  C   UNL     1       5.781   4.548  18.310  0.00  0.00    +0.000 C 
ATOM     19  N   UNL     1       6.694   5.516  17.935  0.00  0.00    +0.000 N 
ATOM     20  C   UNL     1       7.910   5.735  18.691  0.00  0.00    +0.000 C 
ATOM     21  C   UNL     1       8.085   7.238  18.659  0.00  0.00    +0.000 C 
ATOM     22  C   UNL     1       7.577   7.612  17.269  0.00  0.00    +0.000 C 
ATOM     23  C   UNL     1       6.484   6.590  16.975  0.00  0.00    +0.000 C 
ENDBRANCH  16  18
ENDBRANCH   1  16
TORSDOF 4
ENDMDL
MODEL 9
REMARK VINA RESULT:      -6.9      4.703      5.184
REMARK  Name = 
REMARK  4 active torsions:
REMARK  status: ('A' for Active; 'I' for Inactive)
REMARK    1  A    between atoms: C_2  and  C_3
REMARK    2  A    between atoms: C_3  and  N_4
REMARK    3  A    between atoms: C_8  and  N_9
REMARK    4  A    between atoms: N_10  and  C_11
REMARK                            x       y       z     vdW  Elec       q    Type
REMARK                         _______ _______ _______ _____ _____    ______ ____
ROOT
ATOM      1  N   UNL     1       6.024   5.538  17.629  0.00  0.00    +0.000 N 
ATOM      2  C   UNL     1       5.738   4.628  16.645  0.00  0.00    +0.000 A 
ATOM      3  C   UNL     1       6.626   4.908  15.637  0.00  0.00    +0.000 A 
ATOM      4  N   UNL     1       7.453   5.937  15.996  0.00  0.00    +0.000 NA
ATOM      5  C   UNL     1       7.084   6.327  17.209  0.00  0.00    +0.000 A 
ENDROOT
BRANCH   5   6
ATOM      6  N   UNL     1       7.584   7.379  17.912  0.00  0.00    +0.000 NA
ATOM      7  N   UNL     1       7.826   8.419  17.267  0.00  0.00    +0.000 NA
BRANCH   7   8
ATOM      8  C   UNL     1       8.355   9.461  18.059  0.00  0.00    +0.000 A 
ATOM      9  C   UNL     1       9.063   9.290  19.258  0.00  0.00    +0.000 A 
ATOM     10  C   UNL     1       9.567  10.389  19.964  0.00  0.00    +0.000 A 
ATOM     11  C   UNL     1       9.382  11.685  19.472  0.00  0.00    +0.000 A 
ATOM     12 CL   UNL     1      10.043  12.994  20.376  0.00  0.00    +0.000 Cl
ATOM     13  C   UNL     1       8.691  11.869  18.273  0.00  0.00    +0.000 A 
ATOM     14 CL   UNL     1       8.435  13.432  17.580  0.00  0.00    +0.000 Cl
ATOM     15  C   UNL     1       8.180  10.766  17.580  0.00  0.00    +0.000 A 
ENDBRANCH   7   8
ENDBRANCH   5   6
BRANCH   1  16
ATOM     16  C   UNL     1       5.325   5.596  18.907  0.00  0.00    +0.000 C 
BRANCH  16  18
ATOM     17  O   UNL     1       3.310   6.749  18.282  0.00  0.00    +0.000 OA
ATOM     18  C   UNL     1       3.818   5.736  18.766  0.00  0.00    +0.000 C 
ATOM     19  N   UNL     1       3.055   4.636  19.109  0.00  0.00    +0.000 N 
ATOM     20  C   UNL     1       1.631   4.599  18.848  0.00  0.00    +0.000 C 
ATOM     21  C   UNL     1       1.063   3.892  20.060  0.00  0.00    +0.000 C 
ATOM     22  C   UNL     1       2.142   2.866  20.393  0.00  0.00    +0.000 C 
ATOM     23  C   UNL     1       3.447   3.536  19.978  0.00  0.00    +0.000 C 
ENDBRANCH  16  18
ENDBRANCH   1  16
TORSDOF 4
ENDMDL
