MODEL 1
REMARK VINA RESULT:      -8.0      0.000      0.000
REMARK  Name = 
REMARK  11 active torsions:
REMARK  status: ('A' for Active; 'I' for Inactive)
REMARK    1  A    between atoms: C_1  and  O_2
REMARK    2  A    between atoms: O_2  and  C_3
REMARK    3  A    between atoms: C_5  and  O_6
REMARK    4  A    between atoms: O_6  and  C_7
REMARK    5  A    between atoms: C_11  and  N_13
REMARK    6  A    between atoms: N_13  and  S_14
REMARK    7  A    between atoms: S_14  and  O_17
REMARK    8  A    between atoms: O_17  and  C_18
REMARK    9  A    between atoms: C_23  and  C_24
REMARK   10  A    between atoms: C_24  and  O_26
REMARK   11  A    between atoms: O_26  and  C_27
REMARK                            x       y       z     vdW  Elec       q    Type
REMARK                         _______ _______ _______ _____ _____    ______ ____
ROOT
ATOM      1  S   UNL     1       2.596   7.340  18.279  0.00  0.00    +0.000 S 
ATOM      2  O   UNL     1       2.249   7.593  19.675  0.00  0.00    +0.000 OA
ATOM      3  O   UNL     1       1.921   6.177  17.704  0.00  0.00    +0.000 OA
ENDROOT
BRANCH   1   4
ATOM      4  N   UNL     1       2.531   8.662  17.387  0.00  0.00    +0.000 NA
BRANCH   4  11
ATOM      5  C   UNL     1      -2.847  10.710  18.083  0.00  0.00    +0.000 A 
ATOM      6  C   UNL     1      -2.634  11.858  18.805  0.00  0.00    +0.000 A 
ATOM      7  C   UNL     1      -1.321  12.163  18.997  0.00  0.00    +0.000 A 
ATOM      8  N   UNL     1      -0.338  11.367  18.594  0.00  0.00    +0.000 NA
ATOM      9  C   UNL     1      -0.624  10.238  17.953  0.00  0.00    +0.000 A 
ATOM     10  N   UNL     1       0.420   9.390  17.584  0.00  0.00    +0.000 N 
ATOM     11  C   UNL     1       1.758   9.633  17.861  0.00  0.00    +0.000 C 
ATOM     12  O   UNL     1       2.136  10.610  18.498  0.00  0.00    +0.000 OA
ATOM     13  N   UNL     1      -1.882   9.869  17.644  0.00  0.00    +0.000 NA
ATOM     14  H   UNL     1       0.187   8.558  17.076  0.00  0.00    +0.000 HD
BRANCH   5  16
ATOM     15  C   UNL     1      -5.049  11.406  18.320  0.00  0.00    +0.000 C 
ATOM     16  O   UNL     1      -4.177  10.391  17.855  0.00  0.00    +0.000 OA
ENDBRANCH   5  16
BRANCH   7  17
ATOM     17  O   UNL     1      -0.999  13.319  19.667  0.00  0.00    +0.000 OA
ATOM     18  C   UNL     1       0.357  13.295  20.136  0.00  0.00    +0.000 C 
ENDBRANCH   7  17
ENDBRANCH   4  11
ENDBRANCH   1   4
BRANCH   1  19
ATOM     19  O   UNL     1       4.215   6.979  18.316  0.00  0.00    +0.000 OA
BRANCH  19  20
ATOM     20  C   UNL     1       4.845   6.217  17.348  0.00  0.00    +0.000 A 
ATOM     21  C   UNL     1       4.806   6.549  15.984  0.00  0.00    +0.000 A 
ATOM     22  C   UNL     1       5.442   5.767  15.015  0.00  0.00    +0.000 A 
ATOM     23  C   UNL     1       6.143   4.631  15.386  0.00  0.00    +0.000 A 
ATOM     24  C   UNL     1       6.196   4.277  16.731  0.00  0.00    +0.000 A 
ATOM     25  C   UNL     1       5.548   5.054  17.720  0.00  0.00    +0.000 A 
BRANCH  25  26
ATOM     26  C   UNL     1       5.708   4.530  19.104  0.00  0.00    +0.000 C 
ATOM     27  O   UNL     1       6.288   5.149  19.987  0.00  0.00    +0.000 OA
BRANCH  26  28
ATOM     28  O   UNL     1       4.967   3.379  19.253  0.00  0.00    +0.000 OA
BRANCH  28  29
ATOM     29  C   UNL     1       3.594   3.398  19.585  0.00  0.00    +0.000 A 
ATOM     30  C   UNL     1       2.804   2.643  18.720  0.00  0.00    +0.000 A 
ATOM     31  C   UNL     1       1.415   2.712  18.798  0.00  0.00    +0.000 A 
ATOM     32  C   UNL     1       0.817   3.524  19.759  0.00  0.00    +0.000 A 
ATOM     33  C   UNL     1       1.609   4.246  20.655  0.00  0.00    +0.000 A 
ATOM     34  C   UNL     1       3.004   4.184  20.572  0.00  0.00    +0.000 A 
ENDBRANCH  28  29
ENDBRANCH  26  28
ENDBRANCH  25  26
ENDBRANCH  19  20
ENDBRANCH   1  19
TORSDOF 9
ENDMDL
MODEL 2
REMARK VINA RESULT:      -7.9      5.847      8.182
REMARK  Name = 
REMARK  11 active torsions:
REMARK  status: ('A' for Active; 'I' for Inactive)
REMARK    1  A    between atoms: C_1  and  O_2
REMARK    2  A    between atoms: O_2  and  C_3
REMARK    3  A    between atoms: C_5  and  O_6
REMARK    4  A    between atoms: O_6  and  C_7
REMARK    5  A    between atoms: C_11  and  N_13
REMARK    6  A    between atoms: N_13  and  S_14
REMARK    7  A    between atoms: S_14  and  O_17
REMARK    8  A    between atoms: O_17  and  C_18
REMARK    9  A    between atoms: C_23  and  C_24
REMARK   10  A    between atoms: C_24  and  O_26
REMARK   11  A    between atoms: O_26  and  C_27
REMARK                            x       y       z     vdW  Elec       q    Type
REMARK                         _______ _______ _______ _____ _____    ______ ____
ROOT
ATOM      1  S   UNL     1       6.810   5.603  19.113  0.00  0.00    +0.000 S 
ATOM      2  O   UNL     1       7.595   5.412  20.329  0.00  0.00    +0.000 OA
ATOM      3  O   UNL     1       5.571   6.353  19.321  0.00  0.00    +0.000 OA
ENDROOT
BRANCH   1   4
ATOM      4  N   UNL     1       7.701   6.107  17.887  0.00  0.00    +0.000 NA
BRANCH   4  11
ATOM      5  C   UNL     1       9.782  11.247  19.575  0.00  0.00    +0.000 A 
ATOM      6  C   UNL     1       9.221  12.106  18.664  0.00  0.00    +0.000 A 
ATOM      7  C   UNL     1       8.341  11.517  17.809  0.00  0.00    +0.000 A 
ATOM      8  N   UNL     1       8.115  10.209  17.805  0.00  0.00    +0.000 NA
ATOM      9  C   UNL     1       8.744   9.429  18.681  0.00  0.00    +0.000 A 
ATOM     10  N   UNL     1       8.533   8.052  18.627  0.00  0.00    +0.000 N 
ATOM     11  C   UNL     1       7.719   7.422  17.697  0.00  0.00    +0.000 C 
ATOM     12  O   UNL     1       7.138   8.030  16.806  0.00  0.00    +0.000 OA
ATOM     13  N   UNL     1       9.581   9.909  19.620  0.00  0.00    +0.000 NA
ATOM     14  H   UNL     1       8.993   7.484  19.314  0.00  0.00    +0.000 HD
BRANCH   5  16
ATOM     15  C   UNL     1      11.966  11.955  19.923  0.00  0.00    +0.000 C 
ATOM     16  O   UNL     1      10.666  11.828  20.472  0.00  0.00    +0.000 OA
ENDBRANCH   5  16
BRANCH   7  17
ATOM     17  O   UNL     1       7.687  12.300  16.886  0.00  0.00    +0.000 OA
ATOM     18  C   UNL     1       7.235  13.531  17.468  0.00  0.00    +0.000 C 
ENDBRANCH   7  17
ENDBRANCH   4  11
ENDBRANCH   1   4
BRANCH   1  19
ATOM     19  O   UNL     1       6.367   4.069  18.663  0.00  0.00    +0.000 OA
BRANCH  19  20
ATOM     20  C   UNL     1       5.050   3.657  18.569  0.00  0.00    +0.000 A 
ATOM     21  C   UNL     1       4.378   3.032  19.632  0.00  0.00    +0.000 A 
ATOM     22  C   UNL     1       3.048   2.615  19.523  0.00  0.00    +0.000 A 
ATOM     23  C   UNL     1       2.348   2.820  18.345  0.00  0.00    +0.000 A 
ATOM     24  C   UNL     1       2.989   3.435  17.274  0.00  0.00    +0.000 A 
ATOM     25  C   UNL     1       4.338   3.852  17.369  0.00  0.00    +0.000 A 
BRANCH  25  26
ATOM     26  C   UNL     1       4.863   4.491  16.131  0.00  0.00    +0.000 C 
ATOM     27  O   UNL     1       4.834   5.701  15.943  0.00  0.00    +0.000 OA
BRANCH  26  28
ATOM     28  O   UNL     1       5.519   3.553  15.367  0.00  0.00    +0.000 OA
BRANCH  28  29
ATOM     29  C   UNL     1       6.267   3.897  14.219  0.00  0.00    +0.000 A 
ATOM     30  C   UNL     1       7.190   4.917  14.443  0.00  0.00    +0.000 A 
ATOM     31  C   UNL     1       7.869   5.497  13.374  0.00  0.00    +0.000 A 
ATOM     32  C   UNL     1       7.635   5.041  12.079  0.00  0.00    +0.000 A 
ATOM     33  C   UNL     1       6.742   3.990  11.859  0.00  0.00    +0.000 A 
ATOM     34  C   UNL     1       6.055   3.411  12.931  0.00  0.00    +0.000 A 
ENDBRANCH  28  29
ENDBRANCH  26  28
ENDBRANCH  25  26
ENDBRANCH  19  20
ENDBRANCH   1  19
TORSDOF 9
ENDMDL
MODEL 3
REMARK VINA RESULT:      -7.9      2.550      4.715
REMARK  Name = 
REMARK  11 active torsions:
REMARK  status: ('A' for Active; 'I' for Inactive)
REMARK    1  A    between atoms: C_1  and  O_2
REMARK    2  A    between atoms: O_2  and  C_3
REMARK    3  A    between atoms: C_5  and  O_6
REMARK    4  A    between atoms: O_6  and  C_7
REMARK    5  A    between atoms: C_11  and  N_13
REMARK    6  A    between atoms: N_13  and  S_14
REMARK    7  A    between atoms: S_14  and  O_17
REMARK    8  A    between atoms: O_17  and  C_18
REMARK    9  A    between atoms: C_23  and  C_24
REMARK   10  A    between atoms: C_24  and  O_26
REMARK   11  A    between atoms: O_26  and  C_27
REMARK                            x       y       z     vdW  Elec       q    Type
REMARK                         _______ _______ _______ _____ _____    ______ ____
ROOT
ATOM      1  S   UNL     1       2.734   5.535  18.647  0.00  0.00    +0.000 S 
ATOM      2  O   UNL     1       2.405   5.169  20.022  0.00  0.00    +0.000 OA
ATOM      3  O   UNL     1       1.727   5.123  17.669  0.00  0.00    +0.000 OA
ENDROOT
BRANCH   1   4
ATOM      4  N   UNL     1       3.212   7.053  18.519  0.00  0.00    +0.000 NA
BRANCH   4  11
ATOM      5  C   UNL     1      -0.173  10.463  21.763  0.00  0.00    +0.000 A 
ATOM      6  C   UNL     1      -0.895  11.147  20.817  0.00  0.00    +0.000 A 
ATOM      7  C   UNL     1      -0.669  10.739  19.538  0.00  0.00    +0.000 A 
ATOM      8  N   UNL     1       0.238   9.818  19.232  0.00  0.00    +0.000 NA
ATOM      9  C   UNL     1       0.944   9.241  20.199  0.00  0.00    +0.000 A 
ATOM     10  N   UNL     1       1.927   8.314  19.854  0.00  0.00    +0.000 N 
ATOM     11  C   UNL     1       2.242   7.961  18.550  0.00  0.00    +0.000 C 
ATOM     12  O   UNL     1       1.701   8.471  17.576  0.00  0.00    +0.000 OA
ATOM     13  N   UNL     1       0.756   9.513  21.505  0.00  0.00    +0.000 NA
ATOM     14  H   UNL     1       2.429   7.869  20.598  0.00  0.00    +0.000 HD
BRANCH   5  16
ATOM     15  C   UNL     1      -1.583  11.618  23.200  0.00  0.00    +0.000 C 
ATOM     16  O   UNL     1      -0.403  10.845  23.076  0.00  0.00    +0.000 OA
ENDBRANCH   5  16
BRANCH   7  17
ATOM     17  O   UNL     1      -1.378  11.329  18.518  0.00  0.00    +0.000 OA
ATOM     18  C   UNL     1      -2.566  11.970  19.006  0.00  0.00    +0.000 C 
ENDBRANCH   7  17
ENDBRANCH   4  11
ENDBRANCH   1   4
BRANCH   1  19
ATOM     19  O   UNL     1       4.107   4.668  18.309  0.00  0.00    +0.000 OA
BRANCH  19  20
ATOM     20  C   UNL     1       5.377   5.217  18.343  0.00  0.00    +0.000 A 
ATOM     21  C   UNL     1       6.163   5.225  19.507  0.00  0.00    +0.000 A 
ATOM     22  C   UNL     1       7.443   5.787  19.531  0.00  0.00    +0.000 A 
ATOM     23  C   UNL     1       7.977   6.351  18.384  0.00  0.00    +0.000 A 
ATOM     24  C   UNL     1       7.220   6.359  17.216  0.00  0.00    +0.000 A 
ATOM     25  C   UNL     1       5.920   5.802  17.183  0.00  0.00    +0.000 A 
BRANCH  25  26
ATOM     26  C   UNL     1       5.255   5.896  15.854  0.00  0.00    +0.000 C 
ATOM     27  O   UNL     1       4.919   6.962  15.352  0.00  0.00    +0.000 OA
BRANCH  26  28
ATOM     28  O   UNL     1       5.257   4.662  15.245  0.00  0.00    +0.000 OA
BRANCH  28  29
ATOM     29  C   UNL     1       5.849   4.440  13.982  0.00  0.00    +0.000 A 
ATOM     30  C   UNL     1       5.139   3.543  13.186  0.00  0.00    +0.000 A 
ATOM     31  C   UNL     1       5.687   3.077  11.994  0.00  0.00    +0.000 A 
ATOM     32  C   UNL     1       6.942   3.525  11.589  0.00  0.00    +0.000 A 
ATOM     33  C   UNL     1       7.635   4.457  12.365  0.00  0.00    +0.000 A 
ATOM     34  C   UNL     1       7.089   4.921  13.567  0.00  0.00    +0.000 A 
ENDBRANCH  28  29
ENDBRANCH  26  28
ENDBRANCH  25  26
ENDBRANCH  19  20
ENDBRANCH   1  19
TORSDOF 9
ENDMDL
MODEL 4
REMARK VINA RESULT:      -7.9      1.975      2.101
REMARK  Name = 
REMARK  11 active torsions:
REMARK  status: ('A' for Active; 'I' for Inactive)
REMARK    1  A    between atoms: C_1  and  O_2
REMARK    2  A    between atoms: O_2  and  C_3
REMARK    3  A    between atoms: C_5  and  O_6
REMARK    4  A    between atoms: O_6  and  C_7
REMARK    5  A    between atoms: C_11  and  N_13
REMARK    6  A    between atoms: N_13  and  S_14
REMARK    7  A    between atoms: S_14  and  O_17
REMARK    8  A    between atoms: O_17  and  C_18
REMARK    9  A    between atoms: C_23  and  C_24
REMARK   10  A    between atoms: C_24  and  O_26
REMARK   11  A    between atoms: O_26  and  C_27
REMARK                            x       y       z     vdW  Elec       q    Type
REMARK                         _______ _______ _______ _____ _____    ______ ____
ROOT
ATOM      1  S   UNL     1       2.655   7.057  18.155  0.00  0.00    +0.000 S 
ATOM      2  O   UNL     1       2.611   7.320  19.590  0.00  0.00    +0.000 OA
ATOM      3  O   UNL     1       2.179   5.725  17.784  0.00  0.00    +0.000 OA
ENDROOT
BRANCH   1   4
ATOM      4  N   UNL     1       2.034   8.253  17.298  0.00  0.00    +0.000 NA
BRANCH   4  11
ATOM      5  C   UNL     1      -0.514  11.388  21.455  0.00  0.00    +0.000 A 
ATOM      6  C   UNL     1       0.162  12.580  21.382  0.00  0.00    +0.000 A 
ATOM      7  C   UNL     1       1.054  12.654  20.357  0.00  0.00    +0.000 A 
ATOM      8  N   UNL     1       1.308  11.627  19.555  0.00  0.00    +0.000 NA
ATOM      9  C   UNL     1       0.656  10.481  19.727  0.00  0.00    +0.000 A 
ATOM     10  N   UNL     1       0.974   9.397  18.908  0.00  0.00    +0.000 N 
ATOM     11  C   UNL     1       1.953   9.422  17.925  0.00  0.00    +0.000 C 
ATOM     12  O   UNL     1       2.658  10.402  17.718  0.00  0.00    +0.000 OA
ATOM     13  N   UNL     1      -0.300  10.314  20.661  0.00  0.00    +0.000 NA
ATOM     14  H   UNL     1       0.451   8.551  19.033  0.00  0.00    +0.000 HD
BRANCH   5  16
ATOM     15  C   UNL     1      -1.681  12.553  23.090  0.00  0.00    +0.000 C 
ATOM     16  O   UNL     1      -1.446  11.296  22.478  0.00  0.00    +0.000 OA
ENDBRANCH   5  16
BRANCH   7  17
ATOM     17  O   UNL     1       1.750  13.825  20.166  0.00  0.00    +0.000 OA
ATOM     18  C   UNL     1       1.972  14.084  18.772  0.00  0.00    +0.000 C 
ENDBRANCH   7  17
ENDBRANCH   4  11
ENDBRANCH   1   4
BRANCH   1  19
ATOM     19  O   UNL     1       4.269   7.108  17.775  0.00  0.00    +0.000 OA
BRANCH  19  20
ATOM     20  C   UNL     1       4.890   6.163  16.978  0.00  0.00    +0.000 A 
ATOM     21  C   UNL     1       4.965   6.287  15.581  0.00  0.00    +0.000 A 
ATOM     22  C   UNL     1       5.592   5.322  14.786  0.00  0.00    +0.000 A 
ATOM     23  C   UNL     1       6.170   4.207  15.371  0.00  0.00    +0.000 A 
ATOM     24  C   UNL     1       6.109   4.057  16.753  0.00  0.00    +0.000 A 
ATOM     25  C   UNL     1       5.469   5.021  17.567  0.00  0.00    +0.000 A 
BRANCH  25  26
ATOM     26  C   UNL     1       5.497   4.702  19.020  0.00  0.00    +0.000 C 
ATOM     27  O   UNL     1       5.793   5.526  19.877  0.00  0.00    +0.000 OA
BRANCH  26  28
ATOM     28  O   UNL     1       4.979   3.444  19.230  0.00  0.00    +0.000 OA
BRANCH  28  29
ATOM     29  C   UNL     1       3.612   3.222  19.507  0.00  0.00    +0.000 A 
ATOM     30  C   UNL     1       2.976   2.426  18.557  0.00  0.00    +0.000 A 
ATOM     31  C   UNL     1       1.592   2.270  18.584  0.00  0.00    +0.000 A 
ATOM     32  C   UNL     1       0.846   2.900  19.578  0.00  0.00    +0.000 A 
ATOM     33  C   UNL     1       1.488   3.663  20.556  0.00  0.00    +0.000 A 
ATOM     34  C   UNL     1       2.878   3.826  20.525  0.00  0.00    +0.000 A 
ENDBRANCH  28  29
ENDBRANCH  26  28
ENDBRANCH  25  26
ENDBRANCH  19  20
ENDBRANCH   1  19
TORSDOF 9
ENDMDL
MODEL 5
REMARK VINA RESULT:      -7.8      1.333      2.365
REMARK  Name = 
REMARK  11 active torsions:
REMARK  status: ('A' for Active; 'I' for Inactive)
REMARK    1  A    between atoms: C_1  and  O_2
REMARK    2  A    between atoms: O_2  and  C_3
REMARK    3  A    between atoms: C_5  and  O_6
REMARK    4  A    between atoms: O_6  and  C_7
REMARK    5  A    between atoms: C_11  and  N_13
REMARK    6  A    between atoms: N_13  and  S_14
REMARK    7  A    between atoms: S_14  and  O_17
REMARK    8  A    between atoms: O_17  and  C_18
REMARK    9  A    between atoms: C_23  and  C_24
REMARK   10  A    between atoms: C_24  and  O_26
REMARK   11  A    between atoms: O_26  and  C_27
REMARK                            x       y       z     vdW  Elec       q    Type
REMARK                         _______ _______ _______ _____ _____    ______ ____
ROOT
ATOM      1  S   UNL     1       2.614   7.156  18.500  0.00  0.00    +0.000 S 
ATOM      2  O   UNL     1       2.343   7.182  19.935  0.00  0.00    +0.000 OA
ATOM      3  O   UNL     1       1.931   6.076  17.790  0.00  0.00    +0.000 OA
ENDROOT
BRANCH   1   4
ATOM      4  N   UNL     1       2.471   8.597  17.828  0.00  0.00    +0.000 NA
BRANCH   4  11
ATOM      5  C   UNL     1      -0.379  12.014  21.543  0.00  0.00    +0.000 A 
ATOM      6  C   UNL     1      -1.570  12.225  20.895  0.00  0.00    +0.000 A 
ATOM      7  C   UNL     1      -1.711  11.518  19.740  0.00  0.00    +0.000 A 
ATOM      8  N   UNL     1      -0.741  10.760  19.244  0.00  0.00    +0.000 NA
ATOM      9  C   UNL     1       0.411  10.653  19.899  0.00  0.00    +0.000 A 
ATOM     10  N   UNL     1       1.437   9.893  19.336  0.00  0.00    +0.000 N 
ATOM     11  C   UNL     1       1.349   9.250  18.110  0.00  0.00    +0.000 C 
ATOM     12  O   UNL     1       0.359   9.328  17.390  0.00  0.00    +0.000 OA
ATOM     13  N   UNL     1       0.638  11.247  21.086  0.00  0.00    +0.000 NA
ATOM     14  H   UNL     1       2.288   9.800  19.858  0.00  0.00    +0.000 HD
BRANCH   5  16
ATOM     15  C   UNL     1      -0.307  14.106  22.546  0.00  0.00    +0.000 C 
ATOM     16  O   UNL     1      -0.221  12.705  22.735  0.00  0.00    +0.000 OA
ENDBRANCH   5  16
BRANCH   7  17
ATOM     17  O   UNL     1      -2.889  11.622  19.038  0.00  0.00    +0.000 OA
ATOM     18  C   UNL     1      -2.677  11.456  17.629  0.00  0.00    +0.000 C 
ENDBRANCH   7  17
ENDBRANCH   4  11
ENDBRANCH   1   4
BRANCH   1  19
ATOM     19  O   UNL     1       4.239   6.841  18.395  0.00  0.00    +0.000 OA
BRANCH  19  20
ATOM     20  C   UNL     1       4.802   6.091  17.377  0.00  0.00    +0.000 A 
ATOM     21  C   UNL     1       4.833   6.532  16.044  0.00  0.00    +0.000 A 
ATOM     22  C   UNL     1       5.399   5.762  15.023  0.00  0.00    +0.000 A 
ATOM     23  C   UNL     1       5.959   4.528  15.311  0.00  0.00    +0.000 A 
ATOM     24  C   UNL     1       5.940   4.064  16.623  0.00  0.00    +0.000 A 
ATOM     25  C   UNL     1       5.361   4.830  17.662  0.00  0.00    +0.000 A 
BRANCH  25  26
ATOM     26  C   UNL     1       5.429   4.182  19.001  0.00  0.00    +0.000 C 
ATOM     27  O   UNL     1       5.969   4.707  19.967  0.00  0.00    +0.000 OA
BRANCH  26  28
ATOM     28  O   UNL     1       4.656   3.043  19.006  0.00  0.00    +0.000 OA
BRANCH  28  29
ATOM     29  C   UNL     1       3.303   3.044  19.409  0.00  0.00    +0.000 A 
ATOM     30  C   UNL     1       2.442   2.489  18.464  0.00  0.00    +0.000 A 
ATOM     31  C   UNL     1       1.063   2.586  18.628  0.00  0.00    +0.000 A 
ATOM     32  C   UNL     1       0.545   3.225  19.752  0.00  0.00    +0.000 A 
ATOM     33  C   UNL     1       1.407   3.743  20.721  0.00  0.00    +0.000 A 
ATOM     34  C   UNL     1       2.793   3.653  20.553  0.00  0.00    +0.000 A 
ENDBRANCH  28  29
ENDBRANCH  26  28
ENDBRANCH  25  26
ENDBRANCH  19  20
ENDBRANCH   1  19
TORSDOF 9
ENDMDL
MODEL 6
REMARK VINA RESULT:      -7.8      1.282      2.649
REMARK  Name = 
REMARK  11 active torsions:
REMARK  status: ('A' for Active; 'I' for Inactive)
REMARK    1  A    between atoms: C_1  and  O_2
REMARK    2  A    between atoms: O_2  and  C_3
REMARK    3  A    between atoms: C_5  and  O_6
REMARK    4  A    between atoms: O_6  and  C_7
REMARK    5  A    between atoms: C_11  and  N_13
REMARK    6  A    between atoms: N_13  and  S_14
REMARK    7  A    between atoms: S_14  and  O_17
REMARK    8  A    between atoms: O_17  and  C_18
REMARK    9  A    between atoms: C_23  and  C_24
REMARK   10  A    between atoms: C_24  and  O_26
REMARK   11  A    between atoms: O_26  and  C_27
REMARK                            x       y       z     vdW  Elec       q    Type
REMARK                         _______ _______ _______ _____ _____    ______ ____
ROOT
ATOM      1  S   UNL     1       2.694   7.258  18.275  0.00  0.00    +0.000 S 
ATOM      2  O   UNL     1       2.435   7.547  19.682  0.00  0.00    +0.000 OA
ATOM      3  O   UNL     1       2.047   6.038  17.793  0.00  0.00    +0.000 OA
ENDROOT
BRANCH   1   4
ATOM      4  N   UNL     1       2.489   8.539  17.343  0.00  0.00    +0.000 NA
BRANCH   4  11
ATOM      5  C   UNL     1       1.427  13.910  19.245  0.00  0.00    +0.000 A 
ATOM      6  C   UNL     1       0.063  13.906  19.394  0.00  0.00    +0.000 A 
ATOM      7  C   UNL     1      -0.520  12.696  19.173  0.00  0.00    +0.000 A 
ATOM      8  N   UNL     1       0.168  11.637  18.762  0.00  0.00    +0.000 NA
ATOM      9  C   UNL     1       1.481  11.734  18.579  0.00  0.00    +0.000 A 
ATOM     10  N   UNL     1       2.177  10.626  18.098  0.00  0.00    +0.000 N 
ATOM     11  C   UNL     1       1.586   9.415  17.768  0.00  0.00    +0.000 C 
ATOM     12  O   UNL     1       0.376   9.228  17.837  0.00  0.00    +0.000 OA
ATOM     13  N   UNL     1       2.175  12.860  18.836  0.00  0.00    +0.000 NA
ATOM     14  H   UNL     1       3.171  10.709  17.994  0.00  0.00    +0.000 HD
BRANCH   5  16
ATOM     15  C   UNL     1       1.429  16.184  18.774  0.00  0.00    +0.000 C 
ATOM     16  O   UNL     1       2.046  15.127  19.488  0.00  0.00    +0.000 OA
ENDBRANCH   5  16
BRANCH   7  17
ATOM     17  O   UNL     1      -1.879  12.572  19.343  0.00  0.00    +0.000 OA
ATOM     18  C   UNL     1      -2.454  11.699  18.360  0.00  0.00    +0.000 C 
ENDBRANCH   7  17
ENDBRANCH   4  11
ENDBRANCH   1   4
BRANCH   1  19
ATOM     19  O   UNL     1       4.329   6.988  18.204  0.00  0.00    +0.000 OA
BRANCH  19  20
ATOM     20  C   UNL     1       4.923   6.172  17.258  0.00  0.00    +0.000 A 
ATOM     21  C   UNL     1       4.901   6.470  15.886  0.00  0.00    +0.000 A 
ATOM     22  C   UNL     1       5.500   5.633  14.938  0.00  0.00    +0.000 A 
ATOM     23  C   UNL     1       6.147   4.476  15.341  0.00  0.00    +0.000 A 
ATOM     24  C   UNL     1       6.182   4.155  16.694  0.00  0.00    +0.000 A 
ATOM     25  C   UNL     1       5.571   4.987  17.661  0.00  0.00    +0.000 A 
BRANCH  25  26
ATOM     26  C   UNL     1       5.705   4.493  19.059  0.00  0.00    +0.000 C 
ATOM     27  O   UNL     1       6.252   5.139  19.943  0.00  0.00    +0.000 OA
BRANCH  26  28
ATOM     28  O   UNL     1       4.981   3.332  19.212  0.00  0.00    +0.000 OA
BRANCH  28  29
ATOM     29  C   UNL     1       3.620   3.331  19.589  0.00  0.00    +0.000 A 
ATOM     30  C   UNL     1       2.824   2.511  18.790  0.00  0.00    +0.000 A 
ATOM     31  C   UNL     1       1.437   2.545  18.912  0.00  0.00    +0.000 A 
ATOM     32  C   UNL     1       0.847   3.389  19.850  0.00  0.00    +0.000 A 
ATOM     33  C   UNL     1       1.647   4.178  20.681  0.00  0.00    +0.000 A 
ATOM     34  C   UNL     1       3.040   4.150  20.554  0.00  0.00    +0.000 A 
ENDBRANCH  28  29
ENDBRANCH  26  28
ENDBRANCH  25  26
ENDBRANCH  19  20
ENDBRANCH   1  19
TORSDOF 9
ENDMDL
MODEL 7
REMARK VINA RESULT:      -7.7      1.500      2.796
REMARK  Name = 
REMARK  11 active torsions:
REMARK  status: ('A' for Active; 'I' for Inactive)
REMARK    1  A    between atoms: C_1  and  O_2
REMARK    2  A    between atoms: O_2  and  C_3
REMARK    3  A    between atoms: C_5  and  O_6
REMARK    4  A    between atoms: O_6  and  C_7
REMARK    5  A    between atoms: C_11  and  N_13
REMARK    6  A    between atoms: N_13  and  S_14
REMARK    7  A    between atoms: S_14  and  O_17
REMARK    8  A    between atoms: O_17  and  C_18
REMARK    9  A    between atoms: C_23  and  C_24
REMARK   10  A    between atoms: C_24  and  O_26
REMARK   11  A    between atoms: O_26  and  C_27
REMARK                            x       y       z     vdW  Elec       q    Type
REMARK                         _______ _______ _______ _____ _____    ______ ____
ROOT
ATOM      1  S   UNL     1       2.814   7.236  18.198  0.00  0.00    +0.000 S 
ATOM      2  O   UNL     1       2.655   7.392  19.641  0.00  0.00    +0.000 OA
ATOM      3  O   UNL     1       2.173   6.037  17.659  0.00  0.00    +0.000 OA
ENDROOT
BRANCH   1   4
ATOM      4  N   UNL     1       2.493   8.583  17.402  0.00  0.00    +0.000 NA
BRANCH   4  11
ATOM      5  C   UNL     1       1.600  14.145  18.768  0.00  0.00    +0.000 A 
ATOM      6  C   UNL     1       0.449  14.085  19.515  0.00  0.00    +0.000 A 
ATOM      7  C   UNL     1       0.008  12.820  19.760  0.00  0.00    +0.000 A 
ATOM      8  N   UNL     1       0.595  11.747  19.243  0.00  0.00    +0.000 NA
ATOM      9  C   UNL     1       1.672  11.889  18.477  0.00  0.00    +0.000 A 
ATOM     10  N   UNL     1       2.243  10.754  17.902  0.00  0.00    +0.000 N 
ATOM     11  C   UNL     1       1.747   9.468  18.055  0.00  0.00    +0.000 C 
ATOM     12  O   UNL     1       0.726   9.222  18.688  0.00  0.00    +0.000 OA
ATOM     13  N   UNL     1       2.240  13.084  18.226  0.00  0.00    +0.000 NA
ATOM     14  H   UNL     1       3.071  10.878  17.351  0.00  0.00    +0.000 HD
BRANCH   5  16
ATOM     15  C   UNL     1       1.060  16.399  18.621  0.00  0.00    +0.000 C 
ATOM     16  O   UNL     1       2.082  15.423  18.525  0.00  0.00    +0.000 OA
ENDBRANCH   5  16
BRANCH   7  17
ATOM     17  O   UNL     1      -1.112  12.647  20.539  0.00  0.00    +0.000 OA
ATOM     18  C   UNL     1      -2.291  12.486  19.737  0.00  0.00    +0.000 C 
ENDBRANCH   7  17
ENDBRANCH   4  11
ENDBRANCH   1   4
BRANCH   1  19
ATOM     19  O   UNL     1       4.447   7.041  17.982  0.00  0.00    +0.000 OA
BRANCH  19  20
ATOM     20  C   UNL     1       4.990   6.138  17.085  0.00  0.00    +0.000 A 
ATOM     21  C   UNL     1       4.966   6.346  15.697  0.00  0.00    +0.000 A 
ATOM     22  C   UNL     1       5.514   5.423  14.801  0.00  0.00    +0.000 A 
ATOM     23  C   UNL     1       6.111   4.265  15.272  0.00  0.00    +0.000 A 
ATOM     24  C   UNL     1       6.148   4.032  16.644  0.00  0.00    +0.000 A 
ATOM     25  C   UNL     1       5.588   4.953  17.559  0.00  0.00    +0.000 A 
BRANCH  25  26
ATOM     26  C   UNL     1       5.716   4.544  18.985  0.00  0.00    +0.000 C 
ATOM     27  O   UNL     1       6.248   5.249  19.834  0.00  0.00    +0.000 OA
BRANCH  26  28
ATOM     28  O   UNL     1       5.004   3.386  19.202  0.00  0.00    +0.000 OA
BRANCH  28  29
ATOM     29  C   UNL     1       3.593   3.353  19.216  0.00  0.00    +0.000 A 
ATOM     30  C   UNL     1       3.034   3.971  20.333  0.00  0.00    +0.000 A 
ATOM     31  C   UNL     1       1.669   3.859  20.588  0.00  0.00    +0.000 A 
ATOM     32  C   UNL     1       0.860   3.143  19.710  0.00  0.00    +0.000 A 
ATOM     33  C   UNL     1       1.412   2.560  18.567  0.00  0.00    +0.000 A 
ATOM     34  C   UNL     1       2.784   2.666  18.314  0.00  0.00    +0.000 A 
ENDBRANCH  28  29
ENDBRANCH  26  28
ENDBRANCH  25  26
ENDBRANCH  19  20
ENDBRANCH   1  19
TORSDOF 9
ENDMDL
MODEL 8
REMARK VINA RESULT:      -7.7      3.970      8.365
REMARK  Name = 
REMARK  11 active torsions:
REMARK  status: ('A' for Active; 'I' for Inactive)
REMARK    1  A    between atoms: C_1  and  O_2
REMARK    2  A    between atoms: O_2  and  C_3
REMARK    3  A    between atoms: C_5  and  O_6
REMARK    4  A    between atoms: O_6  and  C_7
REMARK    5  A    between atoms: C_11  and  N_13
REMARK    6  A    between atoms: N_13  and  S_14
REMARK    7  A    between atoms: S_14  and  O_17
REMARK    8  A    between atoms: O_17  and  C_18
REMARK    9  A    between atoms: C_23  and  C_24
REMARK   10  A    between atoms: C_24  and  O_26
REMARK   11  A    between atoms: O_26  and  C_27
REMARK                            x       y       z     vdW  Elec       q    Type
REMARK                         _______ _______ _______ _____ _____    ______ ____
ROOT
ATOM      1  S   UNL     1       6.336   4.937  18.877  0.00  0.00    +0.000 S 
ATOM      2  O   UNL     1       7.368   4.055  18.340  0.00  0.00    +0.000 OA
ATOM      3  O   UNL     1       6.811   5.827  19.936  0.00  0.00    +0.000 OA
ENDROOT
BRANCH   1   4
ATOM      4  N   UNL     1       5.490   5.654  17.728  0.00  0.00    +0.000 NA
BRANCH   4  11
ATOM      5  C   UNL     1       6.129   3.308  12.466  0.00  0.00    +0.000 A 
ATOM      6  C   UNL     1       6.989   4.185  11.854  0.00  0.00    +0.000 A 
ATOM      7  C   UNL     1       7.456   5.170  12.670  0.00  0.00    +0.000 A 
ATOM      8  N   UNL     1       7.042   5.316  13.923  0.00  0.00    +0.000 NA
ATOM      9  C   UNL     1       6.158   4.461  14.428  0.00  0.00    +0.000 A 
ATOM     10  N   UNL     1       5.696   4.661  15.728  0.00  0.00    +0.000 N 
ATOM     11  C   UNL     1       6.082   5.718  16.540  0.00  0.00    +0.000 C 
ATOM     12  O   UNL     1       6.844   6.600  16.161  0.00  0.00    +0.000 OA
ATOM     13  N   UNL     1       5.681   3.406  13.739  0.00  0.00    +0.000 NA
ATOM     14  H   UNL     1       5.052   3.990  16.102  0.00  0.00    +0.000 HD
BRANCH   5  16
ATOM     15  C   UNL     1       6.715   1.533  11.089  0.00  0.00    +0.000 C 
ATOM     16  O   UNL     1       5.657   2.282  11.661  0.00  0.00    +0.000 OA
ENDBRANCH   5  16
BRANCH   7  17
ATOM     17  O   UNL     1       8.363   6.074  12.167  0.00  0.00    +0.000 OA
ATOM     18  C   UNL     1       9.527   6.169  13.000  0.00  0.00    +0.000 C 
ENDBRANCH   7  17
ENDBRANCH   4  11
ENDBRANCH   1   4
BRANCH   1  19
ATOM     19  O   UNL     1       5.239   3.909  19.578  0.00  0.00    +0.000 OA
BRANCH  19  20
ATOM     20  C   UNL     1       4.064   3.518  18.960  0.00  0.00    +0.000 A 
ATOM     21  C   UNL     1       4.032   2.540  17.952  0.00  0.00    +0.000 A 
ATOM     22  C   UNL     1       2.839   2.157  17.331  0.00  0.00    +0.000 A 
ATOM     23  C   UNL     1       1.639   2.739  17.709  0.00  0.00    +0.000 A 
ATOM     24  C   UNL     1       1.642   3.712  18.704  0.00  0.00    +0.000 A 
ATOM     25  C   UNL     1       2.844   4.115  19.332  0.00  0.00    +0.000 A 
BRANCH  25  26
ATOM     26  C   UNL     1       2.662   5.165  20.372  0.00  0.00    +0.000 C 
ATOM     27  O   UNL     1       2.295   4.914  21.513  0.00  0.00    +0.000 OA
BRANCH  26  28
ATOM     28  O   UNL     1       3.134   6.370  19.903  0.00  0.00    +0.000 OA
BRANCH  28  29
ATOM     29  C   UNL     1       2.277   7.437  19.553  0.00  0.00    +0.000 A 
ATOM     30  C   UNL     1       2.333   7.773  18.202  0.00  0.00    +0.000 A 
ATOM     31  C   UNL     1       1.693   8.919  17.737  0.00  0.00    +0.000 A 
ATOM     32  C   UNL     1       0.980   9.720  18.625  0.00  0.00    +0.000 A 
ATOM     33  C   UNL     1       0.888   9.360  19.971  0.00  0.00    +0.000 A 
ATOM     34  C   UNL     1       1.536   8.213  20.441  0.00  0.00    +0.000 A 
ENDBRANCH  28  29
ENDBRANCH  26  28
ENDBRANCH  25  26
ENDBRANCH  19  20
ENDBRANCH   1  19
TORSDOF 9
ENDMDL
MODEL 9
REMARK VINA RESULT:      -7.7      2.868      4.976
REMARK  Name = 
REMARK  11 active torsions:
REMARK  status: ('A' for Active; 'I' for Inactive)
REMARK    1  A    between atoms: C_1  and  O_2
REMARK    2  A    between atoms: O_2  and  C_3
REMARK    3  A    between atoms: C_5  and  O_6
REMARK    4  A    between atoms: O_6  and  C_7
REMARK    5  A    between atoms: C_11  and  N_13
REMARK    6  A    between atoms: N_13  and  S_14
REMARK    7  A    between atoms: S_14  and  O_17
REMARK    8  A    between atoms: O_17  and  C_18
REMARK    9  A    between atoms: C_23  and  C_24
REMARK   10  A    between atoms: C_24  and  O_26
REMARK   11  A    between atoms: O_26  and  C_27
REMARK                            x       y       z     vdW  Elec       q    Type
REMARK                         _______ _______ _______ _____ _____    ______ ____
ROOT
ATOM      1  S   UNL     1       2.876   4.624  18.570  0.00  0.00    +0.000 S 
ATOM      2  O   UNL     1       2.812   3.267  19.104  0.00  0.00    +0.000 OA
ATOM      3  O   UNL     1       1.755   4.969  17.697  0.00  0.00    +0.000 OA
ENDROOT
BRANCH   1   4
ATOM      4  N   UNL     1       3.204   5.706  19.698  0.00  0.00    +0.000 NA
BRANCH   4  11
ATOM      5  C   UNL     1       0.027   9.909  22.115  0.00  0.00    +0.000 A 
ATOM      6  C   UNL     1      -0.048  10.839  21.108  0.00  0.00    +0.000 A 
ATOM      7  C   UNL     1       0.510  10.436  19.933  0.00  0.00    +0.000 A 
ATOM      8  N   UNL     1       1.147   9.278  19.805  0.00  0.00    +0.000 NA
ATOM      9  C   UNL     1       1.232   8.454  20.845  0.00  0.00    +0.000 A 
ATOM     10  N   UNL     1       1.949   7.266  20.706  0.00  0.00    +0.000 N 
ATOM     11  C   UNL     1       2.612   6.886  19.548  0.00  0.00    +0.000 C 
ATOM     12  O   UNL     1       2.654   7.592  18.547  0.00  0.00    +0.000 OA
ATOM     13  N   UNL     1       0.656   8.714  22.035  0.00  0.00    +0.000 NA
ATOM     14  H   UNL     1       1.977   6.644  21.492  0.00  0.00    +0.000 HD
BRANCH   5  16
ATOM     15  C   UNL     1      -1.489  11.338  23.140  0.00  0.00    +0.000 C 
ATOM     16  O   UNL     1      -0.555  10.287  23.316  0.00  0.00    +0.000 OA
ENDBRANCH   5  16
BRANCH   7  17
ATOM     17  O   UNL     1       0.446  11.275  18.846  0.00  0.00    +0.000 OA
ATOM     18  C   UNL     1       1.696  11.945  18.625  0.00  0.00    +0.000 C 
ENDBRANCH   7  17
ENDBRANCH   4  11
ENDBRANCH   1   4
BRANCH   1  19
ATOM     19  O   UNL     1       4.237   4.631  17.622  0.00  0.00    +0.000 OA
BRANCH  19  20
ATOM     20  C   UNL     1       5.444   5.168  18.032  0.00  0.00    +0.000 A 
ATOM     21  C   UNL     1       5.954   4.976  19.327  0.00  0.00    +0.000 A 
ATOM     22  C   UNL     1       7.173   5.529  19.731  0.00  0.00    +0.000 A 
ATOM     23  C   UNL     1       7.922   6.286  18.844  0.00  0.00    +0.000 A 
ATOM     24  C   UNL     1       7.440   6.495  17.556  0.00  0.00    +0.000 A 
ATOM     25  C   UNL     1       6.203   5.949  17.139  0.00  0.00    +0.000 A 
BRANCH  25  26
ATOM     26  C   UNL     1       5.843   6.271  15.730  0.00  0.00    +0.000 C 
ATOM     27  O   UNL     1       4.912   7.010  15.434  0.00  0.00    +0.000 OA
BRANCH  26  28
ATOM     28  O   UNL     1       6.804   5.773  14.879  0.00  0.00    +0.000 OA
BRANCH  28  29
ATOM     29  C   UNL     1       6.523   4.777  13.919  0.00  0.00    +0.000 A 
ATOM     30  C   UNL     1       7.454   4.728  12.882  0.00  0.00    +0.000 A 
ATOM     31  C   UNL     1       7.218   3.932  11.764  0.00  0.00    +0.000 A 
ATOM     32  C   UNL     1       6.056   3.168  11.693  0.00  0.00    +0.000 A 
ATOM     33  C   UNL     1       5.144   3.183  12.751  0.00  0.00    +0.000 A 
ATOM     34  C   UNL     1       5.376   3.988  13.872  0.00  0.00    +0.000 A 
ENDBRANCH  28  29
ENDBRANCH  26  28
ENDBRANCH  25  26
ENDBRANCH  19  20
ENDBRANCH   1  19
TORSDOF 9
ENDMDL
