MODEL 1
REMARK VINA RESULT:      -8.6      0.000      0.000
REMARK  Name = 
REMARK  8 active torsions:
REMARK  status: ('A' for Active; 'I' for Inactive)
REMARK    1  A    between atoms: O_1  and  C_2
REMARK    2  A    between atoms: C_2  and  C_3
REMARK    3  A    between atoms: C_5  and  C_6
REMARK    4  A    between atoms: C_8  and  C_9
REMARK    5  A    between atoms: C_9  and  C_10
REMARK    6  A    between atoms: C_23  and  O_24
REMARK    7  A    between atoms: C_25  and  O_26
REMARK    8  A    between atoms: C_27  and  O_28
REMARK                            x       y       z     vdW  Elec       q    Type
REMARK                         _______ _______ _______ _____ _____    ______ ____
ROOT
ATOM      1  C   UNL     1       2.011   6.978  19.031  0.00  0.00    +0.000 A 
ATOM      2  C   UNL     1       1.599   8.151  18.376  0.00  0.00    +0.000 A 
ATOM      3  C   UNL     1       1.168   9.293  19.080  0.00  0.00    +0.000 A 
ATOM      4  C   UNL     1       1.156   9.238  20.480  0.00  0.00    +0.000 A 
ATOM      5 CL   UNL     1       0.658  10.585  21.444  0.00  0.00    +0.000 Cl
ATOM      6  C   UNL     1       1.533   8.071  21.152  0.00  0.00    +0.000 A 
ATOM      7  C   UNL     1       1.953   6.953  20.428  0.00  0.00    +0.000 A 
ENDROOT
BRANCH   1  10
ATOM      8  C   UNL     1       2.091   3.398  18.044  0.00  0.00    +0.000 C 
ATOM      9  O   UNL     1       1.765   4.617  18.733  0.00  0.00    +0.000 OA
ATOM     10  C   UNL     1       2.482   5.767  18.243  0.00  0.00    +0.000 C 
ATOM     11  C   UNL     1       4.013   5.552  18.368  0.00  0.00    +0.000 C 
ATOM     12  C   UNL     1       4.423   4.242  17.670  0.00  0.00    +0.000 C 
ATOM     13  C   UNL     1       3.575   3.079  18.180  0.00  0.00    +0.000 C 
ATOM     14  F   UNL     1       3.888   2.843  19.485  0.00  0.00    +0.000 F 
ATOM     15  F   UNL     1       3.875   1.945  17.500  0.00  0.00    +0.000 F 
BRANCH  11  16
ATOM     16  O   UNL     1       4.771   6.638  17.818  0.00  0.00    +0.000 OA
ATOM     17  H   UNL     1       4.418   6.852  16.936  0.00  0.00    +0.000 HD
ENDBRANCH  11  16
BRANCH  12  18
ATOM     18  O   UNL     1       5.829   3.994  17.858  0.00  0.00    +0.000 OA
ATOM     19  H   UNL     1       6.042   3.155  17.410  0.00  0.00    +0.000 HD
ENDBRANCH  12  18
BRANCH   8  20
ATOM     20  C   UNL     1       1.261   2.249  18.627  0.00  0.00    +0.000 C 
BRANCH  20  21
ATOM     21  O   UNL     1       0.466   2.724  19.714  0.00  0.00    +0.000 OA
ATOM     22  H   UNL     1       0.340   1.977  20.324  0.00  0.00    +0.000 HD
ENDBRANCH  20  21
ENDBRANCH   8  20
ENDBRANCH   1  10
BRANCH   7  23
ATOM     23  O   UNL     1       2.317   5.813  21.088  0.00  0.00    +0.000 OA
ATOM     24  H   UNL     1       2.916   6.051  21.816  0.00  0.00    +0.000 HD
ENDBRANCH   7  23
BRANCH   3  25
ATOM     25  C   UNL     1       0.728  10.511  18.297  0.00  0.00    +0.000 C 
BRANCH  25  26
ATOM     26  C   UNL     1      -0.766  10.675  18.116  0.00  0.00    +0.000 A 
ATOM     27  C   UNL     1      -1.494   9.825  17.267  0.00  0.00    +0.000 A 
ATOM     28  C   UNL     1      -2.884   9.929  17.173  0.00  0.00    +0.000 A 
ATOM     29  C   UNL     1      -3.565  10.875  17.933  0.00  0.00    +0.000 A 
ATOM     30  C   UNL     1      -2.857  11.715  18.797  0.00  0.00    +0.000 A 
ATOM     31  C   UNL     1      -1.465  11.631  18.871  0.00  0.00    +0.000 A 
ATOM     32  O   UNL     1      -3.466  12.636  19.612  0.00  0.00    +0.000 OA
ATOM     33  C   UNL     1      -4.864  12.361  19.745  0.00  0.00    +0.000 C 
ATOM     34  C   UNL     1      -5.486  12.092  18.385  0.00  0.00    +0.000 C 
ATOM     35  O   UNL     1      -4.930  10.910  17.797  0.00  0.00    +0.000 OA
ENDBRANCH  25  26
ENDBRANCH   3  25
TORSDOF 8
ENDMDL
MODEL 2
REMARK VINA RESULT:      -8.1      0.782      1.456
REMARK  Name = 
REMARK  8 active torsions:
REMARK  status: ('A' for Active; 'I' for Inactive)
REMARK    1  A    between atoms: O_1  and  C_2
REMARK    2  A    between atoms: C_2  and  C_3
REMARK    3  A    between atoms: C_5  and  C_6
REMARK    4  A    between atoms: C_8  and  C_9
REMARK    5  A    between atoms: C_9  and  C_10
REMARK    6  A    between atoms: C_23  and  O_24
REMARK    7  A    between atoms: C_25  and  O_26
REMARK    8  A    between atoms: C_27  and  O_28
REMARK                            x       y       z     vdW  Elec       q    Type
REMARK                         _______ _______ _______ _____ _____    ______ ____
ROOT
ATOM      1  C   UNL     1       2.172   6.761  19.207  0.00  0.00    +0.000 A 
ATOM      2  C   UNL     1       1.870   7.980  18.575  0.00  0.00    +0.000 A 
ATOM      3  C   UNL     1       1.437   9.111  19.294  0.00  0.00    +0.000 A 
ATOM      4  C   UNL     1       1.307   9.000  20.684  0.00  0.00    +0.000 A 
ATOM      5 CL   UNL     1       0.795  10.328  21.665  0.00  0.00    +0.000 Cl
ATOM      6  C   UNL     1       1.571   7.788  21.330  0.00  0.00    +0.000 A 
ATOM      7  C   UNL     1       1.997   6.681  20.592  0.00  0.00    +0.000 A 
ENDROOT
BRANCH   1  10
ATOM      8  C   UNL     1       2.173   3.222  18.078  0.00  0.00    +0.000 C 
ATOM      9  O   UNL     1       1.849   4.428  18.793  0.00  0.00    +0.000 OA
ATOM     10  C   UNL     1       2.648   5.561  18.405  0.00  0.00    +0.000 C 
ATOM     11  C   UNL     1       4.155   5.273  18.633  0.00  0.00    +0.000 C 
ATOM     12  C   UNL     1       4.560   3.974  17.912  0.00  0.00    +0.000 C 
ATOM     13  C   UNL     1       3.629   2.831  18.310  0.00  0.00    +0.000 C 
ATOM     14  F   UNL     1       3.833   2.531  19.622  0.00  0.00    +0.000 F 
ATOM     15  F   UNL     1       3.931   1.712  17.606  0.00  0.00    +0.000 F 
BRANCH  11  16
ATOM     16  O   UNL     1       4.998   6.344  18.186  0.00  0.00    +0.000 OA
ATOM     17  H   UNL     1       4.852   6.481  17.233  0.00  0.00    +0.000 HD
ENDBRANCH  11  16
BRANCH  12  18
ATOM     18  O   UNL     1       5.937   3.655  18.192  0.00  0.00    +0.000 OA
ATOM     19  H   UNL     1       6.040   3.625  19.162  0.00  0.00    +0.000 HD
ENDBRANCH  12  18
BRANCH   8  20
ATOM     20  C   UNL     1       1.254   2.090  18.550  0.00  0.00    +0.000 C 
BRANCH  20  21
ATOM     21  O   UNL     1       0.386   2.564  19.580  0.00  0.00    +0.000 OA
ATOM     22  H   UNL     1       0.268   3.519  19.438  0.00  0.00    +0.000 HD
ENDBRANCH  20  21
ENDBRANCH   8  20
ENDBRANCH   1  10
BRANCH   7  23
ATOM     23  O   UNL     1       2.251   5.498  21.227  0.00  0.00    +0.000 OA
ATOM     24  H   UNL     1       2.919   5.008  20.719  0.00  0.00    +0.000 HD
ENDBRANCH   7  23
BRANCH   3  25
ATOM     25  C   UNL     1       1.120  10.381  18.534  0.00  0.00    +0.000 C 
BRANCH  25  26
ATOM     26  C   UNL     1      -0.341  10.776  18.486  0.00  0.00    +0.000 A 
ATOM     27  C   UNL     1      -0.850  11.785  19.320  0.00  0.00    +0.000 A 
ATOM     28  C   UNL     1      -2.179  12.202  19.206  0.00  0.00    +0.000 A 
ATOM     29  C   UNL     1      -3.012  11.624  18.254  0.00  0.00    +0.000 A 
ATOM     30  C   UNL     1      -2.514  10.632  17.403  0.00  0.00    +0.000 A 
ATOM     31  C   UNL     1      -1.195  10.195  17.534  0.00  0.00    +0.000 A 
ATOM     32  O   UNL     1      -3.262  10.055  16.409  0.00  0.00    +0.000 OA
ATOM     33  C   UNL     1      -4.424  10.839  16.116  0.00  0.00    +0.000 C 
ATOM     34  C   UNL     1      -5.132  11.240  17.399  0.00  0.00    +0.000 C 
ATOM     35  O   UNL     1      -4.300  12.093  18.193  0.00  0.00    +0.000 OA
ENDBRANCH  25  26
ENDBRANCH   3  25
TORSDOF 8
ENDMDL
MODEL 3
REMARK VINA RESULT:      -7.7      3.717      5.532
REMARK  Name = 
REMARK  8 active torsions:
REMARK  status: ('A' for Active; 'I' for Inactive)
REMARK    1  A    between atoms: O_1  and  C_2
REMARK    2  A    between atoms: C_2  and  C_3
REMARK    3  A    between atoms: C_5  and  C_6
REMARK    4  A    between atoms: C_8  and  C_9
REMARK    5  A    between atoms: C_9  and  C_10
REMARK    6  A    between atoms: C_23  and  O_24
REMARK    7  A    between atoms: C_25  and  O_26
REMARK    8  A    between atoms: C_27  and  O_28
REMARK                            x       y       z     vdW  Elec       q    Type
REMARK                         _______ _______ _______ _____ _____    ______ ____
ROOT
ATOM      1  C   UNL     1       4.495   3.747  19.303  0.00  0.00    +0.000 A 
ATOM      2  C   UNL     1       3.572   4.755  19.629  0.00  0.00    +0.000 A 
ATOM      3  C   UNL     1       2.518   4.542  20.541  0.00  0.00    +0.000 A 
ATOM      4  C   UNL     1       2.402   3.277  21.130  0.00  0.00    +0.000 A 
ATOM      5 CL   UNL     1       1.154   2.910  22.271  0.00  0.00    +0.000 Cl
ATOM      6  C   UNL     1       3.290   2.250  20.797  0.00  0.00    +0.000 A 
ATOM      7  C   UNL     1       4.324   2.489  19.889  0.00  0.00    +0.000 A 
ENDROOT
BRANCH   1  10
ATOM      8  C   UNL     1       7.158   5.750  17.661  0.00  0.00    +0.000 C 
ATOM      9  O   UNL     1       6.056   5.374  18.507  0.00  0.00    +0.000 OA
ATOM     10  C   UNL     1       5.628   4.011  18.326  0.00  0.00    +0.000 C 
ATOM     11  C   UNL     1       5.196   3.763  16.857  0.00  0.00    +0.000 C 
ATOM     12  C   UNL     1       6.327   4.173  15.896  0.00  0.00    +0.000 C 
ATOM     13  C   UNL     1       6.786   5.600  16.191  0.00  0.00    +0.000 C 
ATOM     14  F   UNL     1       5.781   6.462  15.869  0.00  0.00    +0.000 F 
ATOM     15  F   UNL     1       7.841   5.926  15.404  0.00  0.00    +0.000 F 
BRANCH  11  16
ATOM     16  O   UNL     1       4.837   2.397  16.608  0.00  0.00    +0.000 OA
ATOM     17  H   UNL     1       5.384   1.822  17.171  0.00  0.00    +0.000 HD
ENDBRANCH  11  16
BRANCH  12  18
ATOM     18  O   UNL     1       5.900   4.027  14.528  0.00  0.00    +0.000 OA
ATOM     19  H   UNL     1       6.632   4.326  13.958  0.00  0.00    +0.000 HD
ENDBRANCH  12  18
BRANCH   8  20
ATOM     20  C   UNL     1       7.545   7.204  17.950  0.00  0.00    +0.000 C 
BRANCH  20  21
ATOM     21  O   UNL     1       8.537   7.252  18.975  0.00  0.00    +0.000 OA
ATOM     22  H   UNL     1       8.110   7.614  19.770  0.00  0.00    +0.000 HD
ENDBRANCH  20  21
ENDBRANCH   8  20
ENDBRANCH   1  10
BRANCH   7  23
ATOM     23  O   UNL     1       5.188   1.481  19.563  0.00  0.00    +0.000 OA
ATOM     24  H   UNL     1       5.478   1.042  20.380  0.00  0.00    +0.000 HD
ENDBRANCH   7  23
BRANCH   3  25
ATOM     25  C   UNL     1       1.559   5.678  20.827  0.00  0.00    +0.000 C 
BRANCH  25  26
ATOM     26  C   UNL     1       1.764   6.937  20.010  0.00  0.00    +0.000 A 
ATOM     27  C   UNL     1       2.263   6.880  18.699  0.00  0.00    +0.000 A 
ATOM     28  C   UNL     1       2.366   8.038  17.923  0.00  0.00    +0.000 A 
ATOM     29  C   UNL     1       1.964   9.264  18.444  0.00  0.00    +0.000 A 
ATOM     30  C   UNL     1       1.447   9.333  19.741  0.00  0.00    +0.000 A 
ATOM     31  C   UNL     1       1.369   8.182  20.527  0.00  0.00    +0.000 A 
ATOM     32  O   UNL     1       0.985  10.497  20.301  0.00  0.00    +0.000 OA
ATOM     33  C   UNL     1       0.746  11.492  19.300  0.00  0.00    +0.000 C 
ATOM     34  C   UNL     1       1.925  11.579  18.345  0.00  0.00    +0.000 C 
ATOM     35  O   UNL     1       2.083  10.354  17.620  0.00  0.00    +0.000 OA
ENDBRANCH  25  26
ENDBRANCH   3  25
TORSDOF 8
ENDMDL
MODEL 4
REMARK VINA RESULT:      -7.7      1.984      3.195
REMARK  Name = 
REMARK  8 active torsions:
REMARK  status: ('A' for Active; 'I' for Inactive)
REMARK    1  A    between atoms: O_1  and  C_2
REMARK    2  A    between atoms: C_2  and  C_3
REMARK    3  A    between atoms: C_5  and  C_6
REMARK    4  A    between atoms: C_8  and  C_9
REMARK    5  A    between atoms: C_9  and  C_10
REMARK    6  A    between atoms: C_23  and  O_24
REMARK    7  A    between atoms: C_25  and  O_26
REMARK    8  A    between atoms: C_27  and  O_28
REMARK                            x       y       z     vdW  Elec       q    Type
REMARK                         _______ _______ _______ _____ _____    ______ ____
ROOT
ATOM      1  C   UNL     1       2.894   6.383  19.524  0.00  0.00    +0.000 A 
ATOM      2  C   UNL     1       2.685   7.618  18.886  0.00  0.00    +0.000 A 
ATOM      3  C   UNL     1       1.736   8.551  19.350  0.00  0.00    +0.000 A 
ATOM      4  C   UNL     1       0.985   8.219  20.485  0.00  0.00    +0.000 A 
ATOM      5 CL   UNL     1      -0.197   9.294  21.147  0.00  0.00    +0.000 Cl
ATOM      6  C   UNL     1       1.155   6.984  21.117  0.00  0.00    +0.000 A 
ATOM      7  C   UNL     1       2.101   6.077  20.634  0.00  0.00    +0.000 A 
ENDROOT
BRANCH   1  10
ATOM      8  C   UNL     1       6.321   5.109  18.866  0.00  0.00    +0.000 C 
ATOM      9  O   UNL     1       5.235   5.959  19.276  0.00  0.00    +0.000 OA
ATOM     10  C   UNL     1       3.934   5.403  19.006  0.00  0.00    +0.000 C 
ATOM     11  C   UNL     1       3.761   5.122  17.491  0.00  0.00    +0.000 C 
ATOM     12  C   UNL     1       4.914   4.235  16.983  0.00  0.00    +0.000 C 
ATOM     13  C   UNL     1       6.262   4.842  17.366  0.00  0.00    +0.000 C 
ATOM     14  F   UNL     1       6.437   6.001  16.673  0.00  0.00    +0.000 F 
ATOM     15  F   UNL     1       7.271   4.015  16.997  0.00  0.00    +0.000 F 
BRANCH  11  16
ATOM     16  O   UNL     1       2.510   4.492  17.183  0.00  0.00    +0.000 OA
ATOM     17  H   UNL     1       1.808   5.167  17.196  0.00  0.00    +0.000 HD
ENDBRANCH  11  16
BRANCH  12  18
ATOM     18  O   UNL     1       4.806   4.043  15.559  0.00  0.00    +0.000 OA
ATOM     19  H   UNL     1       4.790   4.925  15.144  0.00  0.00    +0.000 HD
ENDBRANCH  12  18
BRANCH   8  20
ATOM     20  C   UNL     1       7.652   5.784  19.217  0.00  0.00    +0.000 C 
BRANCH  20  21
ATOM     21  O   UNL     1       8.026   5.459  20.556  0.00  0.00    +0.000 OA
ATOM     22  H   UNL     1       8.755   4.818  20.502  0.00  0.00    +0.000 HD
ENDBRANCH  20  21
ENDBRANCH   8  20
ENDBRANCH   1  10
BRANCH   7  23
ATOM     23  O   UNL     1       2.262   4.868  21.252  0.00  0.00    +0.000 OA
ATOM     24  H   UNL     1       3.203   4.747  21.460  0.00  0.00    +0.000 HD
ENDBRANCH   7  23
BRANCH   3  25
ATOM     25  C   UNL     1       1.563   9.853  18.597  0.00  0.00    +0.000 C 
BRANCH  25  26
ATOM     26  C   UNL     1       0.138  10.336  18.430  0.00  0.00    +0.000 A 
ATOM     27  C   UNL     1      -0.341  11.448  19.141  0.00  0.00    +0.000 A 
ATOM     28  C   UNL     1      -1.630  11.939  18.915  0.00  0.00    +0.000 A 
ATOM     29  C   UNL     1      -2.451  11.331  17.970  0.00  0.00    +0.000 A 
ATOM     30  C   UNL     1      -1.982  10.235  17.241  0.00  0.00    +0.000 A 
ATOM     31  C   UNL     1      -0.704   9.727  17.485  0.00  0.00    +0.000 A 
ATOM     32  O   UNL     1      -2.716   9.618  16.260  0.00  0.00    +0.000 OA
ATOM     33  C   UNL     1      -3.803  10.446  15.833  0.00  0.00    +0.000 C 
ATOM     34  C   UNL     1      -4.546  11.009  17.032  0.00  0.00    +0.000 C 
ATOM     35  O   UNL     1      -3.698  11.875  17.795  0.00  0.00    +0.000 OA
ENDBRANCH  25  26
ENDBRANCH   3  25
TORSDOF 8
ENDMDL
MODEL 5
REMARK VINA RESULT:      -7.6      1.564      2.083
REMARK  Name = 
REMARK  8 active torsions:
REMARK  status: ('A' for Active; 'I' for Inactive)
REMARK    1  A    between atoms: O_1  and  C_2
REMARK    2  A    between atoms: C_2  and  C_3
REMARK    3  A    between atoms: C_5  and  C_6
REMARK    4  A    between atoms: C_8  and  C_9
REMARK    5  A    between atoms: C_9  and  C_10
REMARK    6  A    between atoms: C_23  and  O_24
REMARK    7  A    between atoms: C_25  and  O_26
REMARK    8  A    between atoms: C_27  and  O_28
REMARK                            x       y       z     vdW  Elec       q    Type
REMARK                         _______ _______ _______ _____ _____    ______ ____
ROOT
ATOM      1  C   UNL     1       2.434   6.779  18.776  0.00  0.00    +0.000 A 
ATOM      2  C   UNL     1       2.131   8.130  18.538  0.00  0.00    +0.000 A 
ATOM      3  C   UNL     1       1.543   8.952  19.521  0.00  0.00    +0.000 A 
ATOM      4  C   UNL     1       1.259   8.385  20.770  0.00  0.00    +0.000 A 
ATOM      5 CL   UNL     1       0.550   9.304  22.052  0.00  0.00    +0.000 Cl
ATOM      6  C   UNL     1       1.524   7.035  21.018  0.00  0.00    +0.000 A 
ATOM      7  C   UNL     1       2.104   6.243  20.025  0.00  0.00    +0.000 A 
ENDROOT
BRANCH   1  10
ATOM      8  C   UNL     1       3.689   3.636  17.244  0.00  0.00    +0.000 C 
ATOM      9  O   UNL     1       3.130   4.568  18.187  0.00  0.00    +0.000 OA
ATOM     10  C   UNL     1       3.078   5.922  17.699  0.00  0.00    +0.000 C 
ATOM     11  C   UNL     1       4.498   6.425  17.329  0.00  0.00    +0.000 C 
ATOM     12  C   UNL     1       5.163   5.451  16.339  0.00  0.00    +0.000 C 
ATOM     13  C   UNL     1       5.117   4.025  16.882  0.00  0.00    +0.000 C 
ATOM     14  F   UNL     1       5.920   3.944  17.979  0.00  0.00    +0.000 F 
ATOM     15  F   UNL     1       5.622   3.158  15.969  0.00  0.00    +0.000 F 
BRANCH  11  16
ATOM     16  O   UNL     1       4.489   7.743  16.762  0.00  0.00    +0.000 OA
ATOM     17  H   UNL     1       5.331   7.889  16.296  0.00  0.00    +0.000 HD
ENDBRANCH  11  16
BRANCH  12  18
ATOM     18  O   UNL     1       6.514   5.867  16.059  0.00  0.00    +0.000 OA
ATOM     19  H   UNL     1       6.513   6.302  15.186  0.00  0.00    +0.000 HD
ENDBRANCH  12  18
BRANCH   8  20
ATOM     20  C   UNL     1       3.676   2.230  17.853  0.00  0.00    +0.000 C 
BRANCH  20  21
ATOM     21  O   UNL     1       2.354   1.692  17.814  0.00  0.00    +0.000 OA
ATOM     22  H   UNL     1       2.412   0.819  17.389  0.00  0.00    +0.000 HD
ENDBRANCH  20  21
ENDBRANCH   8  20
ENDBRANCH   1  10
BRANCH   7  23
ATOM     23  O   UNL     1       2.358   4.923  20.270  0.00  0.00    +0.000 OA
ATOM     24  H   UNL     1       1.803   4.383  19.682  0.00  0.00    +0.000 HD
ENDBRANCH   7  23
BRANCH   3  25
ATOM     25  C   UNL     1       1.237  10.394  19.180  0.00  0.00    +0.000 C 
BRANCH  25  26
ATOM     26  C   UNL     1      -0.217  10.712  18.899  0.00  0.00    +0.000 A 
ATOM     27  C   UNL     1      -0.936  11.604  19.711  0.00  0.00    +0.000 A 
ATOM     28  C   UNL     1      -2.250  11.958  19.393  0.00  0.00    +0.000 A 
ATOM     29  C   UNL     1      -2.858  11.433  18.258  0.00  0.00    +0.000 A 
ATOM     30  C   UNL     1      -2.149  10.559  17.429  0.00  0.00    +0.000 A 
ATOM     31  C   UNL     1      -0.845  10.183  17.760  0.00  0.00    +0.000 A 
ATOM     32  O   UNL     1      -2.666  10.043  16.268  0.00  0.00    +0.000 OA
ATOM     33  C   UNL     1      -3.810  10.788  15.838  0.00  0.00    +0.000 C 
ATOM     34  C   UNL     1      -4.761  11.022  16.999  0.00  0.00    +0.000 C 
ATOM     35  O   UNL     1      -4.145  11.836  18.004  0.00  0.00    +0.000 OA
ENDBRANCH  25  26
ENDBRANCH   3  25
TORSDOF 8
ENDMDL
MODEL 6
REMARK VINA RESULT:      -7.4      4.014      8.896
REMARK  Name = 
REMARK  8 active torsions:
REMARK  status: ('A' for Active; 'I' for Inactive)
REMARK    1  A    between atoms: O_1  and  C_2
REMARK    2  A    between atoms: C_2  and  C_3
REMARK    3  A    between atoms: C_5  and  C_6
REMARK    4  A    between atoms: C_8  and  C_9
REMARK    5  A    between atoms: C_9  and  C_10
REMARK    6  A    between atoms: C_23  and  O_24
REMARK    7  A    between atoms: C_25  and  O_26
REMARK    8  A    between atoms: C_27  and  O_28
REMARK                            x       y       z     vdW  Elec       q    Type
REMARK                         _______ _______ _______ _____ _____    ______ ____
ROOT
ATOM      1  C   UNL     1       2.717   6.594  19.734  0.00  0.00    +0.000 A 
ATOM      2  C   UNL     1       3.992   6.319  19.208  0.00  0.00    +0.000 A 
ATOM      3  C   UNL     1       4.486   5.005  19.086  0.00  0.00    +0.000 A 
ATOM      4  C   UNL     1       3.667   3.950  19.510  0.00  0.00    +0.000 A 
ATOM      5 CL   UNL     1       4.169   2.299  19.395  0.00  0.00    +0.000 Cl
ATOM      6  C   UNL     1       2.409   4.202  20.065  0.00  0.00    +0.000 A 
ATOM      7  C   UNL     1       1.945   5.515  20.176  0.00  0.00    +0.000 A 
ENDROOT
BRANCH   1  10
ATOM      8  C   UNL     1       0.781   9.400  21.208  0.00  0.00    +0.000 C 
ATOM      9  O   UNL     1       1.313   8.085  20.968  0.00  0.00    +0.000 OA
ATOM     10  C   UNL     1       2.208   8.021  19.841  0.00  0.00    +0.000 C 
ATOM     11  C   UNL     1       1.490   8.480  18.545  0.00  0.00    +0.000 C 
ATOM     12  C   UNL     1       0.873   9.876  18.747  0.00  0.00    +0.000 C 
ATOM     13  C   UNL     1      -0.003   9.896  19.999  0.00  0.00    +0.000 C 
ATOM     14  F   UNL     1      -1.092   9.105  19.788  0.00  0.00    +0.000 F 
ATOM     15  F   UNL     1      -0.472  11.147  20.225  0.00  0.00    +0.000 F 
BRANCH  11  16
ATOM     16  O   UNL     1       2.364   8.510  17.408  0.00  0.00    +0.000 OA
ATOM     17  H   UNL     1       3.110   7.904  17.570  0.00  0.00    +0.000 HD
ENDBRANCH  11  16
BRANCH  12  18
ATOM     18  O   UNL     1       0.131  10.269  17.577  0.00  0.00    +0.000 OA
ATOM     19  H   UNL     1       0.529  11.094  17.240  0.00  0.00    +0.000 HD
ENDBRANCH  12  18
BRANCH   8  20
ATOM     20  C   UNL     1      -0.136   9.359  22.435  0.00  0.00    +0.000 C 
BRANCH  20  21
ATOM     21  O   UNL     1       0.611   9.667  23.613  0.00  0.00    +0.000 OA
ATOM     22  H   UNL     1       1.075  10.505  23.447  0.00  0.00    +0.000 HD
ENDBRANCH  20  21
ENDBRANCH   8  20
ENDBRANCH   1  10
BRANCH   7  23
ATOM     23  O   UNL     1       0.716   5.758  20.722  0.00  0.00    +0.000 OA
ATOM     24  H   UNL     1       0.167   6.218  20.065  0.00  0.00    +0.000 HD
ENDBRANCH   7  23
BRANCH   3  25
ATOM     25  C   UNL     1       5.875   4.797  18.521  0.00  0.00    +0.000 C 
BRANCH  25  26
ATOM     26  C   UNL     1       5.947   4.508  17.036  0.00  0.00    +0.000 A 
ATOM     27  C   UNL     1       4.896   3.857  16.370  0.00  0.00    +0.000 A 
ATOM     28  C   UNL     1       4.934   3.672  14.985  0.00  0.00    +0.000 A 
ATOM     29  C   UNL     1       6.016   4.144  14.249  0.00  0.00    +0.000 A 
ATOM     30  C   UNL     1       7.060   4.812  14.895  0.00  0.00    +0.000 A 
ATOM     31  C   UNL     1       7.037   4.972  16.282  0.00  0.00    +0.000 A 
ATOM     32  O   UNL     1       8.132   5.347  14.228  0.00  0.00    +0.000 OA
ATOM     33  C   UNL     1       7.858   5.475  12.829  0.00  0.00    +0.000 C 
ATOM     34  C   UNL     1       7.249   4.192  12.287  0.00  0.00    +0.000 C 
ATOM     35  O   UNL     1       5.977   3.938  12.893  0.00  0.00    +0.000 OA
ENDBRANCH  25  26
ENDBRANCH   3  25
TORSDOF 8
ENDMDL
MODEL 7
REMARK VINA RESULT:      -7.4      1.988      2.954
REMARK  Name = 
REMARK  8 active torsions:
REMARK  status: ('A' for Active; 'I' for Inactive)
REMARK    1  A    between atoms: O_1  and  C_2
REMARK    2  A    between atoms: C_2  and  C_3
REMARK    3  A    between atoms: C_5  and  C_6
REMARK    4  A    between atoms: C_8  and  C_9
REMARK    5  A    between atoms: C_9  and  C_10
REMARK    6  A    between atoms: C_23  and  O_24
REMARK    7  A    between atoms: C_25  and  O_26
REMARK    8  A    between atoms: C_27  and  O_28
REMARK                            x       y       z     vdW  Elec       q    Type
REMARK                         _______ _______ _______ _____ _____    ______ ____
ROOT
ATOM      1  C   UNL     1       2.919   6.093  19.624  0.00  0.00    +0.000 A 
ATOM      2  C   UNL     1       2.723   7.410  19.174  0.00  0.00    +0.000 A 
ATOM      3  C   UNL     1       1.736   8.252  19.723  0.00  0.00    +0.000 A 
ATOM      4  C   UNL     1       0.932   7.742  20.751  0.00  0.00    +0.000 A 
ATOM      5 CL   UNL     1      -0.301   8.692  21.504  0.00  0.00    +0.000 Cl
ATOM      6  C   UNL     1       1.088   6.425  21.192  0.00  0.00    +0.000 A 
ATOM      7  C   UNL     1       2.074   5.611  20.628  0.00  0.00    +0.000 A 
ENDROOT
BRANCH   1  10
ATOM      8  C   UNL     1       6.397   5.069  18.812  0.00  0.00    +0.000 C 
ATOM      9  O   UNL     1       5.274   5.824  19.301  0.00  0.00    +0.000 OA
ATOM     10  C   UNL     1       4.001   5.213  19.019  0.00  0.00    +0.000 C 
ATOM     11  C   UNL     1       3.809   5.027  17.491  0.00  0.00    +0.000 C 
ATOM     12  C   UNL     1       4.998   4.246  16.900  0.00  0.00    +0.000 C 
ATOM     13  C   UNL     1       6.318   4.903  17.299  0.00  0.00    +0.000 C 
ATOM     14  F   UNL     1       6.411   6.115  16.686  0.00  0.00    +0.000 F 
ATOM     15  F   UNL     1       7.364   4.164  16.854  0.00  0.00    +0.000 F 
BRANCH  11  16
ATOM     16  O   UNL     1       2.589   4.347  17.164  0.00  0.00    +0.000 OA
ATOM     17  H   UNL     1       2.381   3.716  17.876  0.00  0.00    +0.000 HD
ENDBRANCH  11  16
BRANCH  12  18
ATOM     18  O   UNL     1       4.869   4.146  15.469  0.00  0.00    +0.000 OA
ATOM     19  H   UNL     1       4.045   3.658  15.282  0.00  0.00    +0.000 HD
ENDBRANCH  12  18
BRANCH   8  20
ATOM     20  C   UNL     1       7.695   5.795  19.184  0.00  0.00    +0.000 C 
BRANCH  20  21
ATOM     21  O   UNL     1       8.078   5.458  20.517  0.00  0.00    +0.000 OA
ATOM     22  H   UNL     1       8.398   4.539  20.500  0.00  0.00    +0.000 HD
ENDBRANCH  20  21
ENDBRANCH   8  20
ENDBRANCH   1  10
BRANCH   7  23
ATOM     23  O   UNL     1       2.221   4.323  21.060  0.00  0.00    +0.000 OA
ATOM     24  H   UNL     1       1.965   4.276  21.996  0.00  0.00    +0.000 HD
ENDBRANCH   7  23
BRANCH   3  25
ATOM     25  C   UNL     1       1.582   9.653  19.172  0.00  0.00    +0.000 C 
BRANCH  25  26
ATOM     26  C   UNL     1       0.218   9.997  18.613  0.00  0.00    +0.000 A 
ATOM     27  C   UNL     1      -0.318   9.297  17.520  0.00  0.00    +0.000 A 
ATOM     28  C   UNL     1      -1.613   9.563  17.066  0.00  0.00    +0.000 A 
ATOM     29  C   UNL     1      -2.391  10.523  17.705  0.00  0.00    +0.000 A 
ATOM     30  C   UNL     1      -1.879  11.215  18.806  0.00  0.00    +0.000 A 
ATOM     31  C   UNL     1      -0.576  10.970  19.243  0.00  0.00    +0.000 A 
ATOM     32  O   UNL     1      -2.606  12.138  19.514  0.00  0.00    +0.000 OA
ATOM     33  C   UNL     1      -4.005  12.013  19.239  0.00  0.00    +0.000 C 
ATOM     34  C   UNL     1      -4.245  11.913  17.742  0.00  0.00    +0.000 C 
ATOM     35  O   UNL     1      -3.655  10.721  17.211  0.00  0.00    +0.000 OA
ENDBRANCH  25  26
ENDBRANCH   3  25
TORSDOF 8
ENDMDL
MODEL 8
REMARK VINA RESULT:      -7.3      1.586      3.046
REMARK  Name = 
REMARK  8 active torsions:
REMARK  status: ('A' for Active; 'I' for Inactive)
REMARK    1  A    between atoms: O_1  and  C_2
REMARK    2  A    between atoms: C_2  and  C_3
REMARK    3  A    between atoms: C_5  and  C_6
REMARK    4  A    between atoms: C_8  and  C_9
REMARK    5  A    between atoms: C_9  and  C_10
REMARK    6  A    between atoms: C_23  and  O_24
REMARK    7  A    between atoms: C_25  and  O_26
REMARK    8  A    between atoms: C_27  and  O_28
REMARK                            x       y       z     vdW  Elec       q    Type
REMARK                         _______ _______ _______ _____ _____    ______ ____
ROOT
ATOM      1  C   UNL     1       2.567   6.474  19.526  0.00  0.00    +0.000 A 
ATOM      2  C   UNL     1       2.387   7.683  18.832  0.00  0.00    +0.000 A 
ATOM      3  C   UNL     1       1.654   8.757  19.374  0.00  0.00    +0.000 A 
ATOM      4  C   UNL     1       1.091   8.596  20.646  0.00  0.00    +0.000 A 
ATOM      5 CL   UNL     1       0.182   9.853  21.411  0.00  0.00    +0.000 Cl
ATOM      6  C   UNL     1       1.230   7.391  21.341  0.00  0.00    +0.000 A 
ATOM      7  C   UNL     1       1.961   6.341  20.779  0.00  0.00    +0.000 A 
ENDROOT
BRANCH   1  10
ATOM      8  C   UNL     1       5.421   4.932  17.716  0.00  0.00    +0.000 C 
ATOM      9  O   UNL     1       4.543   5.909  18.303  0.00  0.00    +0.000 OA
ATOM     10  C   UNL     1       3.374   5.338  18.919  0.00  0.00    +0.000 C 
ATOM     11  C   UNL     1       2.549   4.528  17.885  0.00  0.00    +0.000 C 
ATOM     12  C   UNL     1       3.443   3.479  17.199  0.00  0.00    +0.000 C 
ATOM     13  C   UNL     1       4.700   4.138  16.633  0.00  0.00    +0.000 C 
ATOM     14  F   UNL     1       4.344   4.957  15.606  0.00  0.00    +0.000 F 
ATOM     15  F   UNL     1       5.527   3.199  16.110  0.00  0.00    +0.000 F 
BRANCH  11  16
ATOM     16  O   UNL     1       1.415   3.872  18.471  0.00  0.00    +0.000 OA
ATOM     17  H   UNL     1       0.610   4.169  18.012  0.00  0.00    +0.000 HD
ENDBRANCH  11  16
BRANCH  12  18
ATOM     18  O   UNL     1       2.705   2.784  16.176  0.00  0.00    +0.000 OA
ATOM     19  H   UNL     1       1.975   3.366  15.894  0.00  0.00    +0.000 HD
ENDBRANCH  12  18
BRANCH   8  20
ATOM     20  C   UNL     1       6.637   5.642  17.111  0.00  0.00    +0.000 C 
BRANCH  20  21
ATOM     21  O   UNL     1       7.784   4.796  17.184  0.00  0.00    +0.000 OA
ATOM     22  H   UNL     1       8.562   5.374  17.267  0.00  0.00    +0.000 HD
ENDBRANCH  20  21
ENDBRANCH   8  20
ENDBRANCH   1  10
BRANCH   7  23
ATOM     23  O   UNL     1       2.092   5.163  21.459  0.00  0.00    +0.000 OA
ATOM     24  H   UNL     1       2.831   4.662  21.077  0.00  0.00    +0.000 HD
ENDBRANCH   7  23
BRANCH   3  25
ATOM     25  C   UNL     1       1.497  10.021  18.556  0.00  0.00    +0.000 C 
BRANCH  25  26
ATOM     26  C   UNL     1       0.075  10.482  18.318  0.00  0.00    +0.000 A 
ATOM     27  C   UNL     1      -0.424  11.644  18.927  0.00  0.00    +0.000 A 
ATOM     28  C   UNL     1      -1.709  12.110  18.633  0.00  0.00    +0.000 A 
ATOM     29  C   UNL     1      -2.506  11.426  17.721  0.00  0.00    +0.000 A 
ATOM     30  C   UNL     1      -2.016  10.279  17.091  0.00  0.00    +0.000 A 
ATOM     31  C   UNL     1      -0.743   9.797  17.404  0.00  0.00    +0.000 A 
ATOM     32  O   UNL     1      -2.725   9.583  16.145  0.00  0.00    +0.000 OA
ATOM     33  C   UNL     1      -3.804  10.370  15.628  0.00  0.00    +0.000 C 
ATOM     34  C   UNL     1      -4.577  11.022  16.762  0.00  0.00    +0.000 C 
ATOM     35  O   UNL     1      -3.750  11.950  17.474  0.00  0.00    +0.000 OA
ENDBRANCH  25  26
ENDBRANCH   3  25
TORSDOF 8
ENDMDL
MODEL 9
REMARK VINA RESULT:      -7.3      2.601      3.576
REMARK  Name = 
REMARK  8 active torsions:
REMARK  status: ('A' for Active; 'I' for Inactive)
REMARK    1  A    between atoms: O_1  and  C_2
REMARK    2  A    between atoms: C_2  and  C_3
REMARK    3  A    between atoms: C_5  and  C_6
REMARK    4  A    between atoms: C_8  and  C_9
REMARK    5  A    between atoms: C_9  and  C_10
REMARK    6  A    between atoms: C_23  and  O_24
REMARK    7  A    between atoms: C_25  and  O_26
REMARK    8  A    between atoms: C_27  and  O_28
REMARK                            x       y       z     vdW  Elec       q    Type
REMARK                         _______ _______ _______ _____ _____    ______ ____
ROOT
ATOM      1  C   UNL     1       2.168   7.289  18.683  0.00  0.00    +0.000 A 
ATOM      2  C   UNL     1       1.556   8.429  18.133  0.00  0.00    +0.000 A 
ATOM      3  C   UNL     1       0.950   9.416  18.934  0.00  0.00    +0.000 A 
ATOM      4  C   UNL     1       0.965   9.238  20.324  0.00  0.00    +0.000 A 
ATOM      5 CL   UNL     1       0.261  10.392  21.402  0.00  0.00    +0.000 Cl
ATOM      6  C   UNL     1       1.540   8.097  20.891  0.00  0.00    +0.000 A 
ATOM      7  C   UNL     1       2.132   7.133  20.072  0.00  0.00    +0.000 A 
ENDROOT
BRANCH   1  10
ATOM      8  C   UNL     1       2.833   3.873  17.383  0.00  0.00    +0.000 C 
ATOM      9  O   UNL     1       2.317   4.956  18.177  0.00  0.00    +0.000 OA
ATOM     10  C   UNL     1       2.824   6.247  17.792  0.00  0.00    +0.000 C 
ATOM     11  C   UNL     1       4.371   6.283  17.902  0.00  0.00    +0.000 C 
ATOM     12  C   UNL     1       4.986   5.126  17.091  0.00  0.00    +0.000 C 
ATOM     13  C   UNL     1       4.351   3.797  17.494  0.00  0.00    +0.000 C 
ATOM     14  F   UNL     1       4.715   3.504  18.774  0.00  0.00    +0.000 F 
ATOM     15  F   UNL     1       4.828   2.793  16.718  0.00  0.00    +0.000 F 
BRANCH  11  16
ATOM     16  O   UNL     1       4.931   7.524  17.451  0.00  0.00    +0.000 OA
ATOM     17  H   UNL     1       5.781   7.344  17.012  0.00  0.00    +0.000 HD
ENDBRANCH  11  16
BRANCH  12  18
ATOM     18  O   UNL     1       6.416   5.102  17.260  0.00  0.00    +0.000 OA
ATOM     19  H   UNL     1       6.601   5.196  18.213  0.00  0.00    +0.000 HD
ENDBRANCH  12  18
BRANCH   8  20
ATOM     20  C   UNL     1       2.214   2.555  17.861  0.00  0.00    +0.000 C 
BRANCH  20  21
ATOM     21  O   UNL     1       0.847   2.759  18.220  0.00  0.00    +0.000 OA
ATOM     22  H   UNL     1       0.313   2.589  17.425  0.00  0.00    +0.000 HD
ENDBRANCH  20  21
ENDBRANCH   8  20
ENDBRANCH   1  10
BRANCH   7  23
ATOM     23  O   UNL     1       2.690   6.017  20.630  0.00  0.00    +0.000 OA
ATOM     24  H   UNL     1       3.618   6.207  20.849  0.00  0.00    +0.000 HD
ENDBRANCH   7  23
BRANCH   3  25
ATOM     25  C   UNL     1       0.302  10.607  18.261  0.00  0.00    +0.000 C 
BRANCH  25  26
ATOM     26  C   UNL     1       0.989  11.939  18.472  0.00  0.00    +0.000 A 
ATOM     27  C   UNL     1       2.358  12.102  18.204  0.00  0.00    +0.000 A 
ATOM     28  C   UNL     1       2.964  13.357  18.318  0.00  0.00    +0.000 A 
ATOM     29  C   UNL     1       2.209  14.464  18.692  0.00  0.00    +0.000 A 
ATOM     30  C   UNL     1       0.841  14.321  18.944  0.00  0.00    +0.000 A 
ATOM     31  C   UNL     1       0.241  13.064  18.857  0.00  0.00    +0.000 A 
ATOM     32  O   UNL     1       0.026  15.375  19.268  0.00  0.00    +0.000 OA
ATOM     33  C   UNL     1       0.644  16.624  18.941  0.00  0.00    +0.000 C 
ATOM     34  C   UNL     1       2.079  16.654  19.439  0.00  0.00    +0.000 C 
ATOM     35  O   UNL     1       2.869  15.663  18.772  0.00  0.00    +0.000 OA
ENDBRANCH  25  26
ENDBRANCH   3  25
TORSDOF 8
ENDMDL
