MODEL 1
REMARK VINA RESULT:      -9.0      0.000      0.000
REMARK  Name = 
REMARK  11 active torsions:
REMARK  status: ('A' for Active; 'I' for Inactive)
REMARK    1  A    between atoms: C_1  and  C_2
REMARK    2  A    between atoms: C_3  and  C_4
REMARK    3  A    between atoms: C_4  and  O_5
REMARK    4  A    between atoms: O_5  and  C_6
REMARK    5  A    between atoms: C_11  and  C_12
REMARK    6  A    between atoms: C_12  and  N_13
REMARK    7  A    between atoms: C_14  and  N_15
REMARK    8  A    between atoms: N_15  and  C_16
REMARK    9  A    between atoms: C_16  and  C_17
REMARK   10  A    between atoms: C_16  and  C_18
REMARK   11  A    between atoms: C_29  and  C_30
REMARK                            x       y       z     vdW  Elec       q    Type
REMARK                         _______ _______ _______ _____ _____    ______ ____
ROOT
ATOM      1  C   UNL     1       2.219   6.910  19.703  0.00  0.00    +0.000 A 
ATOM      2  C   UNL     1       1.808   6.045  20.793  0.00  0.00    +0.000 A 
ATOM      3  C   UNL     1       2.083   4.732  20.793  0.00  0.00    +0.000 A 
ATOM      4  C   UNL     1       2.770   4.155  19.690  0.00  0.00    +0.000 A 
ATOM      5  N   UNL     1       3.113   2.905  19.492  0.00  0.00    +0.000 NA
ATOM      6  C   UNL     1       3.667   2.874  18.237  0.00  0.00    +0.000 A 
ATOM      7  C   UNL     1       3.683   4.141  17.653  0.00  0.00    +0.000 A 
ATOM      8  N   UNL     1       3.129   4.990  18.623  0.00  0.00    +0.000 N 
ATOM      9  C   UNL     1       2.855   6.369  18.637  0.00  0.00    +0.000 A 
ENDROOT
BRANCH   7  10
ATOM     10  N   UNL     1       3.980   4.427  16.350  0.00  0.00    +0.000 N 
ATOM     11  H   UNL     1       3.384   3.946  15.672  0.00  0.00    +0.000 HD
BRANCH  10  12
ATOM     12  C   UNL     1       5.266   4.806  15.781  0.00  0.00    +0.000 C 
ATOM     13  C   UNL     1       5.907   3.511  15.256  0.00  0.00    +0.000 C 
BRANCH  12  14
ATOM     14  C   UNL     1       6.234   5.455  16.782  0.00  0.00    +0.000 A 
ATOM     15  C   UNL     1       6.356   6.844  16.949  0.00  0.00    +0.000 A 
ATOM     16  C   UNL     1       7.217   7.379  17.915  0.00  0.00    +0.000 A 
ATOM     17  C   UNL     1       7.964   6.538  18.737  0.00  0.00    +0.000 A 
ATOM     18  C   UNL     1       7.845   5.161  18.600  0.00  0.00    +0.000 A 
ATOM     19  C   UNL     1       6.984   4.625  17.636  0.00  0.00    +0.000 A 
ENDBRANCH  12  14
ENDBRANCH  10  12
ENDBRANCH   7  10
BRANCH   1  20
ATOM     20  O   UNL     1       1.869   8.215  19.930  0.00  0.00    +0.000 OA
BRANCH  20  21
ATOM     21  C   UNL     1       1.165   8.518  21.126  0.00  0.00    +0.000 C 
BRANCH  21  24
ATOM     22  C   UNL     1      -0.330   9.880  23.329  0.00  0.00    +0.000 C 
ATOM     23  C   UNL     1      -0.415  10.419  21.920  0.00  0.00    +0.000 A 
ATOM     24  C   UNL     1       0.249   9.707  20.873  0.00  0.00    +0.000 A 
ATOM     25  C   UNL     1       0.054  10.097  19.540  0.00  0.00    +0.000 A 
ATOM     26  C   UNL     1      -0.703  11.219  19.236  0.00  0.00    +0.000 A 
ATOM     27  C   UNL     1      -1.260  11.978  20.263  0.00  0.00    +0.000 A 
ATOM     28  C   UNL     1      -1.143  11.616  21.624  0.00  0.00    +0.000 A 
BRANCH  28  29
ATOM     29  C   UNL     1      -1.782  12.504  22.650  0.00  0.00    +0.000 A 
ATOM     30  C   UNL     1      -3.078  12.240  23.145  0.00  0.00    +0.000 A 
ATOM     31  C   UNL     1      -3.697  13.073  24.088  0.00  0.00    +0.000 A 
ATOM     32  C   UNL     1      -3.023  14.176  24.593  0.00  0.00    +0.000 A 
ATOM     33  C   UNL     1      -1.750  14.471  24.123  0.00  0.00    +0.000 A 
ATOM     34  C   UNL     1      -1.160  13.666  23.140  0.00  0.00    +0.000 A 
ENDBRANCH  28  29
ENDBRANCH  21  24
ENDBRANCH  20  21
ENDBRANCH   1  20
BRANCH   6  35
ATOM     35  C   UNL     1       4.150   1.568  17.696  0.00  0.00    +0.000 C 
BRANCH  35  36
ATOM     36  N   UNL     1       4.382   0.607  18.780  0.00  0.00    +0.000 NA
ATOM     37  H   UNL     1       4.183   1.091  19.657  0.00  0.00    +0.000 HD
ATOM     38  H   UNL     1       5.378   0.398  18.805  0.00  0.00    +0.000 HD
ENDBRANCH  35  36
ENDBRANCH   6  35
TORSDOF 9
ENDMDL
MODEL 2
REMARK VINA RESULT:      -8.9      1.101      2.398
REMARK  Name = 
REMARK  11 active torsions:
REMARK  status: ('A' for Active; 'I' for Inactive)
REMARK    1  A    between atoms: C_1  and  C_2
REMARK    2  A    between atoms: C_3  and  C_4
REMARK    3  A    between atoms: C_4  and  O_5
REMARK    4  A    between atoms: O_5  and  C_6
REMARK    5  A    between atoms: C_11  and  C_12
REMARK    6  A    between atoms: C_12  and  N_13
REMARK    7  A    between atoms: C_14  and  N_15
REMARK    8  A    between atoms: N_15  and  C_16
REMARK    9  A    between atoms: C_16  and  C_17
REMARK   10  A    between atoms: C_16  and  C_18
REMARK   11  A    between atoms: C_29  and  C_30
REMARK                            x       y       z     vdW  Elec       q    Type
REMARK                         _______ _______ _______ _____ _____    ______ ____
ROOT
ATOM      1  C   UNL     1       2.177   7.031  19.649  0.00  0.00    +0.000 A 
ATOM      2  C   UNL     1       1.560   6.118  20.594  0.00  0.00    +0.000 A 
ATOM      3  C   UNL     1       1.810   4.800  20.567  0.00  0.00    +0.000 A 
ATOM      4  C   UNL     1       2.677   4.268  19.574  0.00  0.00    +0.000 A 
ATOM      5  N   UNL     1       3.030   3.022  19.367  0.00  0.00    +0.000 NA
ATOM      6  C   UNL     1       3.804   3.046  18.233  0.00  0.00    +0.000 A 
ATOM      7  C   UNL     1       3.945   4.342  17.738  0.00  0.00    +0.000 A 
ATOM      8  N   UNL     1       3.237   5.151  18.640  0.00  0.00    +0.000 N 
ATOM      9  C   UNL     1       2.986   6.533  18.686  0.00  0.00    +0.000 A 
ENDROOT
BRANCH   7  10
ATOM     10  N   UNL     1       4.478   4.692  16.529  0.00  0.00    +0.000 N 
ATOM     11  H   UNL     1       3.949   4.346  15.725  0.00  0.00    +0.000 HD
BRANCH  10  12
ATOM     12  C   UNL     1       5.874   4.949  16.200  0.00  0.00    +0.000 C 
ATOM     13  C   UNL     1       6.100   6.455  16.416  0.00  0.00    +0.000 C 
BRANCH  12  14
ATOM     14  C   UNL     1       6.258   4.604  14.754  0.00  0.00    +0.000 A 
ATOM     15  C   UNL     1       5.512   3.731  13.944  0.00  0.00    +0.000 A 
ATOM     16  C   UNL     1       5.879   3.494  12.614  0.00  0.00    +0.000 A 
ATOM     17  C   UNL     1       6.990   4.130  12.065  0.00  0.00    +0.000 A 
ATOM     18  C   UNL     1       7.732   5.010  12.843  0.00  0.00    +0.000 A 
ATOM     19  C   UNL     1       7.365   5.250  14.172  0.00  0.00    +0.000 A 
ENDBRANCH  12  14
ENDBRANCH  10  12
ENDBRANCH   7  10
BRANCH   1  20
ATOM     20  O   UNL     1       1.811   8.331  19.885  0.00  0.00    +0.000 OA
BRANCH  20  21
ATOM     21  C   UNL     1       1.105   8.617  21.084  0.00  0.00    +0.000 C 
BRANCH  21  24
ATOM     22  C   UNL     1      -0.426   9.924  23.295  0.00  0.00    +0.000 C 
ATOM     23  C   UNL     1      -0.499  10.491  21.896  0.00  0.00    +0.000 A 
ATOM     24  C   UNL     1       0.183   9.804  20.844  0.00  0.00    +0.000 A 
ATOM     25  C   UNL     1       0.001  10.220  19.517  0.00  0.00    +0.000 A 
ATOM     26  C   UNL     1      -0.759  11.342  19.225  0.00  0.00    +0.000 A 
ATOM     27  C   UNL     1      -1.335  12.077  20.261  0.00  0.00    +0.000 A 
ATOM     28  C   UNL     1      -1.232  11.688  21.615  0.00  0.00    +0.000 A 
BRANCH  28  29
ATOM     29  C   UNL     1      -1.890  12.550  22.651  0.00  0.00    +0.000 A 
ATOM     30  C   UNL     1      -1.215  13.647  23.230  0.00  0.00    +0.000 A 
ATOM     31  C   UNL     1      -1.809  14.450  24.214  0.00  0.00    +0.000 A 
ATOM     32  C   UNL     1      -3.112  14.201  24.624  0.00  0.00    +0.000 A 
ATOM     33  C   UNL     1      -3.803  13.126  24.082  0.00  0.00    +0.000 A 
ATOM     34  C   UNL     1      -3.184  12.295  23.139  0.00  0.00    +0.000 A 
ENDBRANCH  28  29
ENDBRANCH  21  24
ENDBRANCH  20  21
ENDBRANCH   1  20
BRANCH   6  35
ATOM     35  C   UNL     1       4.356   1.759  17.713  0.00  0.00    +0.000 C 
BRANCH  35  36
ATOM     36  N   UNL     1       3.936   0.632  18.553  0.00  0.00    +0.000 NA
ATOM     37  H   UNL     1       4.682  -0.064  18.515  0.00  0.00    +0.000 HD
ATOM     38  H   UNL     1       3.132   0.193  18.108  0.00  0.00    +0.000 HD
ENDBRANCH  35  36
ENDBRANCH   6  35
TORSDOF 9
ENDMDL
MODEL 3
REMARK VINA RESULT:      -8.9      1.482      3.772
REMARK  Name = 
REMARK  11 active torsions:
REMARK  status: ('A' for Active; 'I' for Inactive)
REMARK    1  A    between atoms: C_1  and  C_2
REMARK    2  A    between atoms: C_3  and  C_4
REMARK    3  A    between atoms: C_4  and  O_5
REMARK    4  A    between atoms: O_5  and  C_6
REMARK    5  A    between atoms: C_11  and  C_12
REMARK    6  A    between atoms: C_12  and  N_13
REMARK    7  A    between atoms: C_14  and  N_15
REMARK    8  A    between atoms: N_15  and  C_16
REMARK    9  A    between atoms: C_16  and  C_17
REMARK   10  A    between atoms: C_16  and  C_18
REMARK   11  A    between atoms: C_29  and  C_30
REMARK                            x       y       z     vdW  Elec       q    Type
REMARK                         _______ _______ _______ _____ _____    ______ ____
ROOT
ATOM      1  C   UNL     1       2.280   7.054  19.329  0.00  0.00    +0.000 A 
ATOM      2  C   UNL     1       2.629   8.080  18.364  0.00  0.00    +0.000 A 
ATOM      3  C   UNL     1       3.617   7.903  17.473  0.00  0.00    +0.000 A 
ATOM      4  C   UNL     1       4.367   6.695  17.483  0.00  0.00    +0.000 A 
ATOM      5  N   UNL     1       5.371   6.340  16.719  0.00  0.00    +0.000 NA
ATOM      6  C   UNL     1       5.787   5.126  17.204  0.00  0.00    +0.000 A 
ATOM      7  C   UNL     1       5.007   4.713  18.285  0.00  0.00    +0.000 A 
ATOM      8  N   UNL     1       4.049   5.726  18.444  0.00  0.00    +0.000 N 
ATOM      9  C   UNL     1       3.001   5.909  19.362  0.00  0.00    +0.000 A 
ENDROOT
BRANCH   7  10
ATOM     10  N   UNL     1       5.271   3.660  19.116  0.00  0.00    +0.000 N 
ATOM     11  H   UNL     1       6.259   3.559  19.358  0.00  0.00    +0.000 HD
BRANCH  10  12
ATOM     12  C   UNL     1       4.541   2.405  19.240  0.00  0.00    +0.000 C 
ATOM     13  C   UNL     1       4.424   1.829  17.820  0.00  0.00    +0.000 C 
BRANCH  12  14
ATOM     14  C   UNL     1       3.127   2.551  19.823  0.00  0.00    +0.000 A 
ATOM     15  C   UNL     1       2.871   2.732  21.192  0.00  0.00    +0.000 A 
ATOM     16  C   UNL     1       1.564   2.913  21.661  0.00  0.00    +0.000 A 
ATOM     17  C   UNL     1       0.491   2.925  20.772  0.00  0.00    +0.000 A 
ATOM     18  C   UNL     1       0.725   2.765  19.412  0.00  0.00    +0.000 A 
ATOM     19  C   UNL     1       2.030   2.587  18.942  0.00  0.00    +0.000 A 
ENDBRANCH  12  14
ENDBRANCH  10  12
ENDBRANCH   7  10
BRANCH   1  20
ATOM     20  O   UNL     1       1.220   7.431  20.111  0.00  0.00    +0.000 OA
BRANCH  20  21
ATOM     21  C   UNL     1       1.430   8.458  21.069  0.00  0.00    +0.000 C 
BRANCH  21  24
ATOM     22  C   UNL     1      -0.071   9.814  23.272  0.00  0.00    +0.000 C 
ATOM     23  C   UNL     1      -0.224  10.301  21.849  0.00  0.00    +0.000 A 
ATOM     24  C   UNL     1       0.446   9.590  20.807  0.00  0.00    +0.000 A 
ATOM     25  C   UNL     1       0.194   9.925  19.468  0.00  0.00    +0.000 A 
ATOM     26  C   UNL     1      -0.628  10.996  19.152  0.00  0.00    +0.000 A 
ATOM     27  C   UNL     1      -1.195  11.760  20.170  0.00  0.00    +0.000 A 
ATOM     28  C   UNL     1      -1.022  11.448  21.538  0.00  0.00    +0.000 A 
BRANCH  28  29
ATOM     29  C   UNL     1      -1.677  12.336  22.554  0.00  0.00    +0.000 A 
ATOM     30  C   UNL     1      -1.043  13.505  23.026  0.00  0.00    +0.000 A 
ATOM     31  C   UNL     1      -1.633  14.334  23.991  0.00  0.00    +0.000 A 
ATOM     32  C   UNL     1      -2.895  14.036  24.488  0.00  0.00    +0.000 A 
ATOM     33  C   UNL     1      -3.545  12.889  24.053  0.00  0.00    +0.000 A 
ATOM     34  C   UNL     1      -2.925  12.037  23.129  0.00  0.00    +0.000 A 
ENDBRANCH  28  29
ENDBRANCH  21  24
ENDBRANCH  20  21
ENDBRANCH   1  20
BRANCH   6  35
ATOM     35  C   UNL     1       6.947   4.450  16.550  0.00  0.00    +0.000 C 
BRANCH  35  36
ATOM     36  N   UNL     1       7.995   4.144  17.530  0.00  0.00    +0.000 NA
ATOM     37  H   UNL     1       8.732   3.641  17.033  0.00  0.00    +0.000 HD
ATOM     38  H   UNL     1       7.614   3.477  18.198  0.00  0.00    +0.000 HD
ENDBRANCH  35  36
ENDBRANCH   6  35
TORSDOF 9
ENDMDL
MODEL 4
REMARK VINA RESULT:      -8.8      5.059      8.754
REMARK  Name = 
REMARK  11 active torsions:
REMARK  status: ('A' for Active; 'I' for Inactive)
REMARK    1  A    between atoms: C_1  and  C_2
REMARK    2  A    between atoms: C_3  and  C_4
REMARK    3  A    between atoms: C_4  and  O_5
REMARK    4  A    between atoms: O_5  and  C_6
REMARK    5  A    between atoms: C_11  and  C_12
REMARK    6  A    between atoms: C_12  and  N_13
REMARK    7  A    between atoms: C_14  and  N_15
REMARK    8  A    between atoms: N_15  and  C_16
REMARK    9  A    between atoms: C_16  and  C_17
REMARK   10  A    between atoms: C_16  and  C_18
REMARK   11  A    between atoms: C_29  and  C_30
REMARK                            x       y       z     vdW  Elec       q    Type
REMARK                         _______ _______ _______ _____ _____    ______ ____
ROOT
ATOM      1  C   UNL     1       7.567   7.906  17.691  0.00  0.00    +0.000 A 
ATOM      2  C   UNL     1       8.422   7.267  18.674  0.00  0.00    +0.000 A 
ATOM      3  C   UNL     1       8.134   6.057  19.179  0.00  0.00    +0.000 A 
ATOM      4  C   UNL     1       6.949   5.387  18.769  0.00  0.00    +0.000 A 
ATOM      5  N   UNL     1       6.484   4.223  19.153  0.00  0.00    +0.000 NA
ATOM      6  C   UNL     1       5.270   4.091  18.526  0.00  0.00    +0.000 A 
ATOM      7  C   UNL     1       4.988   5.194  17.720  0.00  0.00    +0.000 A 
ATOM      8  N   UNL     1       6.109   6.029  17.849  0.00  0.00    +0.000 N 
ATOM      9  C   UNL     1       6.426   7.288  17.310  0.00  0.00    +0.000 A 
ENDROOT
BRANCH   7  10
ATOM     10  N   UNL     1       3.792   5.472  17.120  0.00  0.00    +0.000 N 
ATOM     11  H   UNL     1       3.877   5.797  16.154  0.00  0.00    +0.000 HD
BRANCH  10  12
ATOM     12  C   UNL     1       2.552   5.915  17.744  0.00  0.00    +0.000 C 
ATOM     13  C   UNL     1       2.903   7.165  18.567  0.00  0.00    +0.000 C 
BRANCH  12  14
ATOM     14  C   UNL     1       1.911   4.881  18.681  0.00  0.00    +0.000 A 
ATOM     15  C   UNL     1       1.287   3.708  18.227  0.00  0.00    +0.000 A 
ATOM     16  C   UNL     1       0.767   2.774  19.130  0.00  0.00    +0.000 A 
ATOM     17  C   UNL     1       0.867   2.988  20.503  0.00  0.00    +0.000 A 
ATOM     18  C   UNL     1       1.496   4.134  20.974  0.00  0.00    +0.000 A 
ATOM     19  C   UNL     1       2.019   5.067  20.073  0.00  0.00    +0.000 A 
ENDBRANCH  12  14
ENDBRANCH  10  12
ENDBRANCH   7  10
BRANCH   1  20
ATOM     20  O   UNL     1       8.073   9.114  17.287  0.00  0.00    +0.000 OA
BRANCH  20  21
ATOM     21  C   UNL     1       7.668  10.277  17.996  0.00  0.00    +0.000 C 
BRANCH  21  24
ATOM     22  C   UNL     1       7.724  13.146  17.154  0.00  0.00    +0.000 C 
ATOM     23  C   UNL     1       8.903  12.559  17.896  0.00  0.00    +0.000 A 
ATOM     24  C   UNL     1       8.882  11.167  18.221  0.00  0.00    +0.000 A 
ATOM     25  C   UNL     1      10.027  10.568  18.766  0.00  0.00    +0.000 A 
ATOM     26  C   UNL     1      11.144  11.330  19.073  0.00  0.00    +0.000 A 
ATOM     27  C   UNL     1      11.125  12.707  18.858  0.00  0.00    +0.000 A 
ATOM     28  C   UNL     1      10.024  13.367  18.269  0.00  0.00    +0.000 A 
BRANCH  28  29
ATOM     29  C   UNL     1      10.107  14.853  18.082  0.00  0.00    +0.000 A 
ATOM     30  C   UNL     1      10.940  15.423  17.095  0.00  0.00    +0.000 A 
ATOM     31  C   UNL     1      11.045  16.811  16.922  0.00  0.00    +0.000 A 
ATOM     32  C   UNL     1      10.291  17.671  17.709  0.00  0.00    +0.000 A 
ATOM     33  C   UNL     1       9.467  17.145  18.695  0.00  0.00    +0.000 A 
ATOM     34  C   UNL     1       9.409  15.760  18.899  0.00  0.00    +0.000 A 
ENDBRANCH  28  29
ENDBRANCH  21  24
ENDBRANCH  20  21
ENDBRANCH   1  20
BRANCH   6  35
ATOM     35  C   UNL     1       4.463   2.858  18.774  0.00  0.00    +0.000 C 
BRANCH  35  36
ATOM     36  N   UNL     1       4.895   2.189  20.006  0.00  0.00    +0.000 NA
ATOM     37  H   UNL     1       5.035   1.204  19.778  0.00  0.00    +0.000 HD
ATOM     38  H   UNL     1       4.117   2.209  20.662  0.00  0.00    +0.000 HD
ENDBRANCH  35  36
ENDBRANCH   6  35
TORSDOF 9
ENDMDL
MODEL 5
REMARK VINA RESULT:      -8.7      1.413      1.961
REMARK  Name = 
REMARK  11 active torsions:
REMARK  status: ('A' for Active; 'I' for Inactive)
REMARK    1  A    between atoms: C_1  and  C_2
REMARK    2  A    between atoms: C_3  and  C_4
REMARK    3  A    between atoms: C_4  and  O_5
REMARK    4  A    between atoms: O_5  and  C_6
REMARK    5  A    between atoms: C_11  and  C_12
REMARK    6  A    between atoms: C_12  and  N_13
REMARK    7  A    between atoms: C_14  and  N_15
REMARK    8  A    between atoms: N_15  and  C_16
REMARK    9  A    between atoms: C_16  and  C_17
REMARK   10  A    between atoms: C_16  and  C_18
REMARK   11  A    between atoms: C_29  and  C_30
REMARK                            x       y       z     vdW  Elec       q    Type
REMARK                         _______ _______ _______ _____ _____    ______ ____
ROOT
ATOM      1  C   UNL     1       2.062   7.658  19.037  0.00  0.00    +0.000 A 
ATOM      2  C   UNL     1       1.544   7.225  20.322  0.00  0.00    +0.000 A 
ATOM      3  C   UNL     1       1.790   5.997  20.803  0.00  0.00    +0.000 A 
ATOM      4  C   UNL     1       2.553   5.078  20.033  0.00  0.00    +0.000 A 
ATOM      5  N   UNL     1       2.884   3.840  20.313  0.00  0.00    +0.000 NA
ATOM      6  C   UNL     1       3.539   3.377  19.199  0.00  0.00    +0.000 A 
ATOM      7  C   UNL     1       3.629   4.360  18.214  0.00  0.00    +0.000 A 
ATOM      8  N   UNL     1       3.016   5.490  18.776  0.00  0.00    +0.000 N 
ATOM      9  C   UNL     1       2.771   6.784  18.285  0.00  0.00    +0.000 A 
ENDROOT
BRANCH   7  10
ATOM     10  N   UNL     1       4.038   4.175  16.923  0.00  0.00    +0.000 N 
ATOM     11  H   UNL     1       3.905   3.222  16.577  0.00  0.00    +0.000 HD
BRANCH  10  12
ATOM     12  C   UNL     1       5.086   4.883  16.199  0.00  0.00    +0.000 C 
ATOM     13  C   UNL     1       5.806   3.831  15.339  0.00  0.00    +0.000 C 
BRANCH  12  14
ATOM     14  C   UNL     1       6.126   5.566  17.100  0.00  0.00    +0.000 A 
ATOM     15  C   UNL     1       6.893   4.878  18.054  0.00  0.00    +0.000 A 
ATOM     16  C   UNL     1       7.865   5.543  18.811  0.00  0.00    +0.000 A 
ATOM     17  C   UNL     1       8.095   6.904  18.624  0.00  0.00    +0.000 A 
ATOM     18  C   UNL     1       7.359   7.601  17.673  0.00  0.00    +0.000 A 
ATOM     19  C   UNL     1       6.389   6.937  16.914  0.00  0.00    +0.000 A 
ENDBRANCH  12  14
ENDBRANCH  10  12
ENDBRANCH   7  10
BRANCH   1  20
ATOM     20  O   UNL     1       1.722   8.957  18.764  0.00  0.00    +0.000 OA
BRANCH  20  21
ATOM     21  C   UNL     1       1.256   9.764  19.836  0.00  0.00    +0.000 C 
BRANCH  21  24
ATOM     22  C   UNL     1      -0.340  11.453  21.718  0.00  0.00    +0.000 C 
ATOM     23  C   UNL     1      -0.791  11.298  20.284  0.00  0.00    +0.000 A 
ATOM     24  C   UNL     1      -0.051  10.427  19.425  0.00  0.00    +0.000 A 
ATOM     25  C   UNL     1      -0.540  10.145  18.141  0.00  0.00    +0.000 A 
ATOM     26  C   UNL     1      -1.682  10.772  17.666  0.00  0.00    +0.000 A 
ATOM     27  C   UNL     1      -2.342  11.706  18.463  0.00  0.00    +0.000 A 
ATOM     28  C   UNL     1      -1.932  12.001  19.783  0.00  0.00    +0.000 A 
BRANCH  28  29
ATOM     29  C   UNL     1      -2.714  13.023  20.554  0.00  0.00    +0.000 A 
ATOM     30  C   UNL     1      -2.298  14.370  20.620  0.00  0.00    +0.000 A 
ATOM     31  C   UNL     1      -3.006  15.332  21.355  0.00  0.00    +0.000 A 
ATOM     32  C   UNL     1      -4.175  14.981  22.018  0.00  0.00    +0.000 A 
ATOM     33  C   UNL     1      -4.610  13.663  21.981  0.00  0.00    +0.000 A 
ATOM     34  C   UNL     1      -3.867  12.696  21.291  0.00  0.00    +0.000 A 
ENDBRANCH  28  29
ENDBRANCH  21  24
ENDBRANCH  20  21
ENDBRANCH   1  20
BRANCH   6  35
ATOM     35  C   UNL     1       4.036   1.969  19.192  0.00  0.00    +0.000 C 
BRANCH  35  36
ATOM     36  N   UNL     1       5.148   1.802  20.133  0.00  0.00    +0.000 NA
ATOM     37  H   UNL     1       4.857   1.105  20.821  0.00  0.00    +0.000 HD
ATOM     38  H   UNL     1       5.252   2.671  20.654  0.00  0.00    +0.000 HD
ENDBRANCH  35  36
ENDBRANCH   6  35
TORSDOF 9
ENDMDL
MODEL 6
REMARK VINA RESULT:      -8.7      1.364      1.920
REMARK  Name = 
REMARK  11 active torsions:
REMARK  status: ('A' for Active; 'I' for Inactive)
REMARK    1  A    between atoms: C_1  and  C_2
REMARK    2  A    between atoms: C_3  and  C_4
REMARK    3  A    between atoms: C_4  and  O_5
REMARK    4  A    between atoms: O_5  and  C_6
REMARK    5  A    between atoms: C_11  and  C_12
REMARK    6  A    between atoms: C_12  and  N_13
REMARK    7  A    between atoms: C_14  and  N_15
REMARK    8  A    between atoms: N_15  and  C_16
REMARK    9  A    between atoms: C_16  and  C_17
REMARK   10  A    between atoms: C_16  and  C_18
REMARK   11  A    between atoms: C_29  and  C_30
REMARK                            x       y       z     vdW  Elec       q    Type
REMARK                         _______ _______ _______ _____ _____    ______ ____
ROOT
ATOM      1  C   UNL     1       2.487   8.088  18.455  0.00  0.00    +0.000 A 
ATOM      2  C   UNL     1       1.854   7.847  19.738  0.00  0.00    +0.000 A 
ATOM      3  C   UNL     1       1.950   6.662  20.360  0.00  0.00    +0.000 A 
ATOM      4  C   UNL     1       2.664   5.598  19.743  0.00  0.00    +0.000 A 
ATOM      5  N   UNL     1       2.856   4.374  20.172  0.00  0.00    +0.000 NA
ATOM      6  C   UNL     1       3.528   3.735  19.160  0.00  0.00    +0.000 A 
ATOM      7  C   UNL     1       3.772   4.592  18.087  0.00  0.00    +0.000 A 
ATOM      8  N   UNL     1       3.239   5.828  18.486  0.00  0.00    +0.000 N 
ATOM      9  C   UNL     1       3.150   7.077  17.848  0.00  0.00    +0.000 A 
ENDROOT
BRANCH   7  10
ATOM     10  N   UNL     1       4.237   4.231  16.853  0.00  0.00    +0.000 N 
ATOM     11  H   UNL     1       4.085   3.246  16.623  0.00  0.00    +0.000 HD
BRANCH  10  12
ATOM     12  C   UNL     1       5.345   4.807  16.104  0.00  0.00    +0.000 C 
ATOM     13  C   UNL     1       6.068   3.632  15.426  0.00  0.00    +0.000 C 
BRANCH  12  14
ATOM     14  C   UNL     1       6.363   5.570  16.965  0.00  0.00    +0.000 A 
ATOM     15  C   UNL     1       6.621   6.943  16.822  0.00  0.00    +0.000 A 
ATOM     16  C   UNL     1       7.521   7.598  17.672  0.00  0.00    +0.000 A 
ATOM     17  C   UNL     1       8.173   6.897  18.684  0.00  0.00    +0.000 A 
ATOM     18  C   UNL     1       7.918   5.542  18.854  0.00  0.00    +0.000 A 
ATOM     19  C   UNL     1       7.018   4.887  18.007  0.00  0.00    +0.000 A 
ENDBRANCH  12  14
ENDBRANCH  10  12
ENDBRANCH   7  10
BRANCH   1  20
ATOM     20  O   UNL     1       2.291   9.375  18.026  0.00  0.00    +0.000 OA
BRANCH  20  21
ATOM     21  C   UNL     1       0.955   9.824  17.849  0.00  0.00    +0.000 C 
BRANCH  21  24
ATOM     22  C   UNL     1      -1.700  10.268  19.152  0.00  0.00    +0.000 C 
ATOM     23  C   UNL     1      -0.541  11.180  19.482  0.00  0.00    +0.000 A 
ATOM     24  C   UNL     1       0.696  10.992  18.790  0.00  0.00    +0.000 A 
ATOM     25  C   UNL     1       1.733  11.921  18.963  0.00  0.00    +0.000 A 
ATOM     26  C   UNL     1       1.601  12.966  19.864  0.00  0.00    +0.000 A 
ATOM     27  C   UNL     1       0.436  13.087  20.620  0.00  0.00    +0.000 A 
ATOM     28  C   UNL     1      -0.665  12.215  20.462  0.00  0.00    +0.000 A 
BRANCH  28  29
ATOM     29  C   UNL     1      -1.871  12.435  21.327  0.00  0.00    +0.000 A 
ATOM     30  C   UNL     1      -3.003  13.127  20.846  0.00  0.00    +0.000 A 
ATOM     31  C   UNL     1      -4.129  13.359  21.649  0.00  0.00    +0.000 A 
ATOM     32  C   UNL     1      -4.171  12.872  22.948  0.00  0.00    +0.000 A 
ATOM     33  C   UNL     1      -3.072  12.193  23.457  0.00  0.00    +0.000 A 
ATOM     34  C   UNL     1      -1.928  12.013  22.667  0.00  0.00    +0.000 A 
ENDBRANCH  28  29
ENDBRANCH  21  24
ENDBRANCH  20  21
ENDBRANCH   1  20
BRANCH   6  35
ATOM     35  C   UNL     1       3.886   2.295  19.332  0.00  0.00    +0.000 C 
BRANCH  35  36
ATOM     36  N   UNL     1       3.237   1.468  18.310  0.00  0.00    +0.000 NA
ATOM     37  H   UNL     1       3.938   0.810  17.968  0.00  0.00    +0.000 HD
ATOM     38  H   UNL     1       3.016   2.067  17.516  0.00  0.00    +0.000 HD
ENDBRANCH  35  36
ENDBRANCH   6  35
TORSDOF 9
ENDMDL
MODEL 7
REMARK VINA RESULT:      -8.7      0.473      1.234
REMARK  Name = 
REMARK  11 active torsions:
REMARK  status: ('A' for Active; 'I' for Inactive)
REMARK    1  A    between atoms: C_1  and  C_2
REMARK    2  A    between atoms: C_3  and  C_4
REMARK    3  A    between atoms: C_4  and  O_5
REMARK    4  A    between atoms: O_5  and  C_6
REMARK    5  A    between atoms: C_11  and  C_12
REMARK    6  A    between atoms: C_12  and  N_13
REMARK    7  A    between atoms: C_14  and  N_15
REMARK    8  A    between atoms: N_15  and  C_16
REMARK    9  A    between atoms: C_16  and  C_17
REMARK   10  A    between atoms: C_16  and  C_18
REMARK   11  A    between atoms: C_29  and  C_30
REMARK                            x       y       z     vdW  Elec       q    Type
REMARK                         _______ _______ _______ _____ _____    ______ ____
ROOT
ATOM      1  C   UNL     1       2.133   7.343  19.592  0.00  0.00    +0.000 A 
ATOM      2  C   UNL     1       1.722   6.511  20.708  0.00  0.00    +0.000 A 
ATOM      3  C   UNL     1       2.060   5.215  20.783  0.00  0.00    +0.000 A 
ATOM      4  C   UNL     1       2.817   4.622  19.736  0.00  0.00    +0.000 A 
ATOM      5  N   UNL     1       3.227   3.383  19.612  0.00  0.00    +0.000 NA
ATOM      6  C   UNL     1       3.831   3.320  18.381  0.00  0.00    +0.000 A 
ATOM      7  C   UNL     1       3.808   4.557  17.737  0.00  0.00    +0.000 A 
ATOM      8  N   UNL     1       3.176   5.422  18.643  0.00  0.00    +0.000 N 
ATOM      9  C   UNL     1       2.835   6.784  18.579  0.00  0.00    +0.000 A 
ENDROOT
BRANCH   7  10
ATOM     10  N   UNL     1       4.142   4.795  16.433  0.00  0.00    +0.000 N 
ATOM     11  H   UNL     1       3.585   4.266  15.758  0.00  0.00    +0.000 HD
BRANCH  10  12
ATOM     12  C   UNL     1       5.435   5.191  15.891  0.00  0.00    +0.000 C 
ATOM     13  C   UNL     1       6.073   3.916  15.317  0.00  0.00    +0.000 C 
BRANCH  12  14
ATOM     14  C   UNL     1       6.398   5.791  16.927  0.00  0.00    +0.000 A 
ATOM     15  C   UNL     1       7.037   5.029  17.919  0.00  0.00    +0.000 A 
ATOM     16  C   UNL     1       7.946   5.620  18.805  0.00  0.00    +0.000 A 
ATOM     17  C   UNL     1       8.242   6.978  18.710  0.00  0.00    +0.000 A 
ATOM     18  C   UNL     1       7.634   7.746  17.725  0.00  0.00    +0.000 A 
ATOM     19  C   UNL     1       6.726   7.157  16.838  0.00  0.00    +0.000 A 
ENDBRANCH  12  14
ENDBRANCH  10  12
ENDBRANCH   7  10
BRANCH   1  20
ATOM     20  O   UNL     1       1.712   8.638  19.742  0.00  0.00    +0.000 OA
BRANCH  20  21
ATOM     21  C   UNL     1       1.215   9.035  21.012  0.00  0.00    +0.000 C 
BRANCH  21  24
ATOM     22  C   UNL     1      -0.418  10.114  23.273  0.00  0.00    +0.000 C 
ATOM     23  C   UNL     1      -0.548  10.724  21.897  0.00  0.00    +0.000 A 
ATOM     24  C   UNL     1       0.188  10.142  20.819  0.00  0.00    +0.000 A 
ATOM     25  C   UNL     1      -0.036  10.589  19.508  0.00  0.00    +0.000 A 
ATOM     26  C   UNL     1      -0.897  11.648  19.261  0.00  0.00    +0.000 A 
ATOM     27  C   UNL     1      -1.532  12.288  20.324  0.00  0.00    +0.000 A 
ATOM     28  C   UNL     1      -1.388  11.859  21.663  0.00  0.00    +0.000 A 
BRANCH  28  29
ATOM     29  C   UNL     1      -2.116  12.619  22.731  0.00  0.00    +0.000 A 
ATOM     30  C   UNL     1      -1.542  13.751  23.349  0.00  0.00    +0.000 A 
ATOM     31  C   UNL     1      -2.200  14.459  24.364  0.00  0.00    +0.000 A 
ATOM     32  C   UNL     1      -3.473  14.077  24.767  0.00  0.00    +0.000 A 
ATOM     33  C   UNL     1      -4.066  12.963  24.187  0.00  0.00    +0.000 A 
ATOM     34  C   UNL     1      -3.378  12.228  23.212  0.00  0.00    +0.000 A 
ENDBRANCH  28  29
ENDBRANCH  21  24
ENDBRANCH  20  21
ENDBRANCH   1  20
BRANCH   6  35
ATOM     35  C   UNL     1       4.398   2.015  17.924  0.00  0.00    +0.000 C 
BRANCH  35  36
ATOM     36  N   UNL     1       3.642   0.891  18.486  0.00  0.00    +0.000 NA
ATOM     37  H   UNL     1       3.740   0.942  19.501  0.00  0.00    +0.000 HD
ATOM     38  H   UNL     1       4.110   0.030  18.211  0.00  0.00    +0.000 HD
ENDBRANCH  35  36
ENDBRANCH   6  35
TORSDOF 9
ENDMDL
MODEL 8
REMARK VINA RESULT:      -8.6      1.647      4.035
REMARK  Name = 
REMARK  11 active torsions:
REMARK  status: ('A' for Active; 'I' for Inactive)
REMARK    1  A    between atoms: C_1  and  C_2
REMARK    2  A    between atoms: C_3  and  C_4
REMARK    3  A    between atoms: C_4  and  O_5
REMARK    4  A    between atoms: O_5  and  C_6
REMARK    5  A    between atoms: C_11  and  C_12
REMARK    6  A    between atoms: C_12  and  N_13
REMARK    7  A    between atoms: C_14  and  N_15
REMARK    8  A    between atoms: N_15  and  C_16
REMARK    9  A    between atoms: C_16  and  C_17
REMARK   10  A    between atoms: C_16  and  C_18
REMARK   11  A    between atoms: C_29  and  C_30
REMARK                            x       y       z     vdW  Elec       q    Type
REMARK                         _______ _______ _______ _____ _____    ______ ____
ROOT
ATOM      1  C   UNL     1       2.442   7.358  18.983  0.00  0.00    +0.000 A 
ATOM      2  C   UNL     1       2.852   8.302  17.959  0.00  0.00    +0.000 A 
ATOM      3  C   UNL     1       3.840   8.020  17.096  0.00  0.00    +0.000 A 
ATOM      4  C   UNL     1       4.530   6.781  17.195  0.00  0.00    +0.000 A 
ATOM      5  N   UNL     1       5.525   6.329  16.470  0.00  0.00    +0.000 NA
ATOM      6  C   UNL     1       5.875   5.130  17.038  0.00  0.00    +0.000 A 
ATOM      7  C   UNL     1       5.063   4.826  18.132  0.00  0.00    +0.000 A 
ATOM      8  N   UNL     1       4.154   5.892  18.211  0.00  0.00    +0.000 N 
ATOM      9  C   UNL     1       3.105   6.185  19.100  0.00  0.00    +0.000 A 
ENDROOT
BRANCH   7  10
ATOM     10  N   UNL     1       5.265   3.818  19.033  0.00  0.00    +0.000 N 
ATOM     11  H   UNL     1       6.228   3.749  19.371  0.00  0.00    +0.000 HD
BRANCH  10  12
ATOM     12  C   UNL     1       4.549   2.555  19.147  0.00  0.00    +0.000 C 
ATOM     13  C   UNL     1       4.409   2.005  17.718  0.00  0.00    +0.000 C 
BRANCH  12  14
ATOM     14  C   UNL     1       3.145   2.677  19.759  0.00  0.00    +0.000 A 
ATOM     15  C   UNL     1       2.916   2.886  21.129  0.00  0.00    +0.000 A 
ATOM     16  C   UNL     1       1.616   3.043  21.625  0.00  0.00    +0.000 A 
ATOM     17  C   UNL     1       0.523   3.003  20.762  0.00  0.00    +0.000 A 
ATOM     18  C   UNL     1       0.729   2.814  19.401  0.00  0.00    +0.000 A 
ATOM     19  C   UNL     1       2.027   2.659  18.904  0.00  0.00    +0.000 A 
ENDBRANCH  12  14
ENDBRANCH  10  12
ENDBRANCH   7  10
BRANCH   1  20
ATOM     20  O   UNL     1       1.392   7.836  19.723  0.00  0.00    +0.000 OA
BRANCH  20  21
ATOM     21  C   UNL     1       1.029   9.200  19.562  0.00  0.00    +0.000 C 
BRANCH  21  24
ATOM     22  C   UNL     1      -0.226  11.905  19.788  0.00  0.00    +0.000 C 
ATOM     23  C   UNL     1      -0.257  10.962  20.969  0.00  0.00    +0.000 A 
ATOM     24  C   UNL     1       0.414   9.705  20.859  0.00  0.00    +0.000 A 
ATOM     25  C   UNL     1       0.533   8.885  21.990  0.00  0.00    +0.000 A 
ATOM     26  C   UNL     1      -0.069   9.240  23.187  0.00  0.00    +0.000 A 
ATOM     27  C   UNL     1      -0.818  10.413  23.265  0.00  0.00    +0.000 A 
ATOM     28  C   UNL     1      -0.939  11.309  22.179  0.00  0.00    +0.000 A 
BRANCH  28  29
ATOM     29  C   UNL     1      -1.768  12.544  22.371  0.00  0.00    +0.000 A 
ATOM     30  C   UNL     1      -1.233  13.701  22.977  0.00  0.00    +0.000 A 
ATOM     31  C   UNL     1      -2.001  14.856  23.183  0.00  0.00    +0.000 A 
ATOM     32  C   UNL     1      -3.321  14.901  22.753  0.00  0.00    +0.000 A 
ATOM     33  C   UNL     1      -3.883  13.779  22.160  0.00  0.00    +0.000 A 
ATOM     34  C   UNL     1      -3.125  12.610  22.008  0.00  0.00    +0.000 A 
ENDBRANCH  28  29
ENDBRANCH  21  24
ENDBRANCH  20  21
ENDBRANCH   1  20
BRANCH   6  35
ATOM     35  C   UNL     1       7.009   4.358  16.447  0.00  0.00    +0.000 C 
BRANCH  35  36
ATOM     36  N   UNL     1       8.045   4.097  17.451  0.00  0.00    +0.000 NA
ATOM     37  H   UNL     1       7.704   3.338  18.043  0.00  0.00    +0.000 HD
ATOM     38  H   UNL     1       8.103   4.912  18.059  0.00  0.00    +0.000 HD
ENDBRANCH  35  36
ENDBRANCH   6  35
TORSDOF 9
ENDMDL
MODEL 9
REMARK VINA RESULT:      -8.6      2.217      3.226
REMARK  Name = 
REMARK  11 active torsions:
REMARK  status: ('A' for Active; 'I' for Inactive)
REMARK    1  A    between atoms: C_1  and  C_2
REMARK    2  A    between atoms: C_3  and  C_4
REMARK    3  A    between atoms: C_4  and  O_5
REMARK    4  A    between atoms: O_5  and  C_6
REMARK    5  A    between atoms: C_11  and  C_12
REMARK    6  A    between atoms: C_12  and  N_13
REMARK    7  A    between atoms: C_14  and  N_15
REMARK    8  A    between atoms: N_15  and  C_16
REMARK    9  A    between atoms: C_16  and  C_17
REMARK   10  A    between atoms: C_16  and  C_18
REMARK   11  A    between atoms: C_29  and  C_30
REMARK                            x       y       z     vdW  Elec       q    Type
REMARK                         _______ _______ _______ _____ _____    ______ ____
ROOT
ATOM      1  C   UNL     1       2.130   8.025  18.915  0.00  0.00    +0.000 A 
ATOM      2  C   UNL     1       1.691   7.638  20.243  0.00  0.00    +0.000 A 
ATOM      3  C   UNL     1       1.966   6.427  20.751  0.00  0.00    +0.000 A 
ATOM      4  C   UNL     1       2.681   5.480  19.968  0.00  0.00    +0.000 A 
ATOM      5  N   UNL     1       3.029   4.252  20.271  0.00  0.00    +0.000 NA
ATOM      6  C   UNL     1       3.615   3.750  19.136  0.00  0.00    +0.000 A 
ATOM      7  C   UNL     1       3.646   4.698  18.113  0.00  0.00    +0.000 A 
ATOM      8  N   UNL     1       3.067   5.848  18.672  0.00  0.00    +0.000 N 
ATOM      9  C   UNL     1       2.792   7.125  18.153  0.00  0.00    +0.000 A 
ENDROOT
BRANCH   7  10
ATOM     10  N   UNL     1       3.976   4.468  16.807  0.00  0.00    +0.000 N 
ATOM     11  H   UNL     1       3.577   3.609  16.422  0.00  0.00    +0.000 HD
BRANCH  10  12
ATOM     12  C   UNL     1       5.175   4.887  16.093  0.00  0.00    +0.000 C 
ATOM     13  C   UNL     1       5.805   3.609  15.516  0.00  0.00    +0.000 C 
BRANCH  12  14
ATOM     14  C   UNL     1       6.222   5.588  16.972  0.00  0.00    +0.000 A 
ATOM     15  C   UNL     1       6.458   6.972  16.935  0.00  0.00    +0.000 A 
ATOM     16  C   UNL     1       7.388   7.566  17.798  0.00  0.00    +0.000 A 
ATOM     17  C   UNL     1       8.091   6.791  18.718  0.00  0.00    +0.000 A 
ATOM     18  C   UNL     1       7.860   5.423  18.782  0.00  0.00    +0.000 A 
ATOM     19  C   UNL     1       6.930   4.829  17.923  0.00  0.00    +0.000 A 
ENDBRANCH  12  14
ENDBRANCH  10  12
ENDBRANCH   7  10
BRANCH   1  20
ATOM     20  O   UNL     1       1.774   9.315  18.619  0.00  0.00    +0.000 OA
BRANCH  20  21
ATOM     21  C   UNL     1       0.650   9.519  17.774  0.00  0.00    +0.000 C 
BRANCH  21  24
ATOM     22  C   UNL     1      -2.184   9.906  16.901  0.00  0.00    +0.000 C 
ATOM     23  C   UNL     1      -1.636  10.716  18.054  0.00  0.00    +0.000 A 
ATOM     24  C   UNL     1      -0.259  10.565  18.403  0.00  0.00    +0.000 A 
ATOM     25  C   UNL     1       0.309  11.418  19.361  0.00  0.00    +0.000 A 
ATOM     26  C   UNL     1      -0.474  12.343  20.035  0.00  0.00    +0.000 A 
ATOM     27  C   UNL     1      -1.841  12.416  19.774  0.00  0.00    +0.000 A 
ATOM     28  C   UNL     1      -2.468  11.621  18.788  0.00  0.00    +0.000 A 
BRANCH  28  29
ATOM     29  C   UNL     1      -3.946  11.779  18.587  0.00  0.00    +0.000 A 
ATOM     30  C   UNL     1      -4.843  11.744  19.676  0.00  0.00    +0.000 A 
ATOM     31  C   UNL     1      -6.229  11.868  19.502  0.00  0.00    +0.000 A 
ATOM     32  C   UNL     1      -6.757  12.069  18.234  0.00  0.00    +0.000 A 
ATOM     33  C   UNL     1      -5.905  12.101  17.138  0.00  0.00    +0.000 A 
ATOM     34  C   UNL     1      -4.527  11.921  17.314  0.00  0.00    +0.000 A 
ENDBRANCH  28  29
ENDBRANCH  21  24
ENDBRANCH  20  21
ENDBRANCH   1  20
BRANCH   6  35
ATOM     35  C   UNL     1       4.112   2.341  19.147  0.00  0.00    +0.000 C 
BRANCH  35  36
ATOM     36  N   UNL     1       3.366   1.516  18.192  0.00  0.00    +0.000 NA
ATOM     37  H   UNL     1       3.966   1.385  17.376  0.00  0.00    +0.000 HD
ATOM     38  H   UNL     1       2.572   2.060  17.860  0.00  0.00    +0.000 HD
ENDBRANCH  35  36
ENDBRANCH   6  35
TORSDOF 9
ENDMDL
