MODEL 1
REMARK VINA RESULT:      -7.6      0.000      0.000
REMARK  Name = 
REMARK  14 active torsions:
REMARK  status: ('A' for Active; 'I' for Inactive)
REMARK    1  A    between atoms: C_1  and  C_2
REMARK    2  A    between atoms: C_2  and  O_3
REMARK    3  A    between atoms: O_3  and  C_4
REMARK    4  A    between atoms: C_4  and  C_6
REMARK    5  A    between atoms: C_9  and  C_10
REMARK    6  A    between atoms: C_12  and  S_13
REMARK    7  A    between atoms: S_13  and  N_16
REMARK    8  A    between atoms: N_16  and  C_17
REMARK    9  A    between atoms: N_16  and  C_18
REMARK   10  A    between atoms: C_18  and  C_19
REMARK   11  A    between atoms: C_18  and  C_20
REMARK   12  A    between atoms: C_23  and  O_24
REMARK   13  A    between atoms: O_24  and  C_25
REMARK   14  A    between atoms: C_25  and  C_26
REMARK                            x       y       z     vdW  Elec       q    Type
REMARK                         _______ _______ _______ _____ _____    ______ ____
ROOT
ATOM      1  C   UNL     1       2.544   7.054  18.914  0.00  0.00    +0.000 A 
ATOM      2  C   UNL     1       2.121   8.335  18.501  0.00  0.00    +0.000 A 
ATOM      3  C   UNL     1       1.300   9.127  19.299  0.00  0.00    +0.000 A 
ATOM      4  C   UNL     1       0.828   8.628  20.511  0.00  0.00    +0.000 A 
ATOM      5  C   UNL     1       1.217   7.346  20.923  0.00  0.00    +0.000 A 
ATOM      6  C   UNL     1       2.104   6.558  20.163  0.00  0.00    +0.000 A 
ENDROOT
BRANCH   1  10
ATOM      7  C   UNL     1       5.526   5.164  16.571  0.00  0.00    +0.000 A 
ATOM      8  C   UNL     1       4.377   4.565  16.918  0.00  0.00    +0.000 A 
ATOM      9  N   UNL     1       3.328   5.167  17.568  0.00  0.00    +0.000 NA
ATOM     10  C   UNL     1       3.507   6.369  18.007  0.00  0.00    +0.000 A 
ATOM     11  N   UNL     1       4.637   7.086  17.680  0.00  0.00    +0.000 N 
ATOM     12  C   UNL     1       5.638   6.583  16.894  0.00  0.00    +0.000 A 
ATOM     13  O   UNL     1       6.540   7.320  16.498  0.00  0.00    +0.000 OA
ATOM     14  H   UNL     1       4.760   8.056  17.925  0.00  0.00    +0.000 HD
BRANCH   7  15
ATOM     15  C   UNL     1       6.595   4.338  15.985  0.00  0.00    +0.000 C 
ATOM     16  O   UNL     1       7.754   4.393  16.347  0.00  0.00    +0.000 OA
BRANCH  15  17
ATOM     17  O   UNL     1       6.143   3.686  14.885  0.00  0.00    +0.000 OA
BRANCH  17  19
ATOM     18  C   UNL     1       5.999   3.390  12.526  0.00  0.00    +0.000 C 
ATOM     19  C   UNL     1       6.561   4.258  13.638  0.00  0.00    +0.000 C 
ENDBRANCH  17  19
ENDBRANCH  15  17
ENDBRANCH   7  15
ENDBRANCH   1  10
BRANCH   3  20
ATOM     20  S   UNL     1       1.131  10.852  18.876  0.00  0.00    +0.000 S 
ATOM     21  O   UNL     1       2.300  11.234  18.122  0.00  0.00    +0.000 OA
ATOM     22  O   UNL     1      -0.196  10.985  18.301  0.00  0.00    +0.000 OA
BRANCH  20  23
ATOM     23  N   UNL     1       1.160  11.746  20.368  0.00  0.00    +0.000 NA
ATOM     24  C   UNL     1       2.039  12.951  20.297  0.00  0.00    +0.000 C 
BRANCH  23  25
ATOM     25  C   UNL     1      -0.245  12.154  20.838  0.00  0.00    +0.000 C 
ATOM     26  C   UNL     1      -0.628  11.571  22.201  0.00  0.00    +0.000 C 
ATOM     27  C   UNL     1      -0.379  13.679  20.949  0.00  0.00    +0.000 C 
ENDBRANCH  23  25
ENDBRANCH  20  23
ENDBRANCH   3  20
BRANCH   6  28
ATOM     28  O   UNL     1       2.430   5.390  20.816  0.00  0.00    +0.000 OA
BRANCH  28  29
ATOM     29  C   UNL     1       1.509   4.309  20.714  0.00  0.00    +0.000 C 
ATOM     30  C   UNL     1       1.903   3.134  21.586  0.00  0.00    +0.000 C 
ENDBRANCH  28  29
ENDBRANCH   6  28
TORSDOF 9
ENDMDL
MODEL 2
REMARK VINA RESULT:      -7.5      0.857      1.379
REMARK  Name = 
REMARK  14 active torsions:
REMARK  status: ('A' for Active; 'I' for Inactive)
REMARK    1  A    between atoms: C_1  and  C_2
REMARK    2  A    between atoms: C_2  and  O_3
REMARK    3  A    between atoms: O_3  and  C_4
REMARK    4  A    between atoms: C_4  and  C_6
REMARK    5  A    between atoms: C_9  and  C_10
REMARK    6  A    between atoms: C_12  and  S_13
REMARK    7  A    between atoms: S_13  and  N_16
REMARK    8  A    between atoms: N_16  and  C_17
REMARK    9  A    between atoms: N_16  and  C_18
REMARK   10  A    between atoms: C_18  and  C_19
REMARK   11  A    between atoms: C_18  and  C_20
REMARK   12  A    between atoms: C_23  and  O_24
REMARK   13  A    between atoms: O_24  and  C_25
REMARK   14  A    between atoms: C_25  and  C_26
REMARK                            x       y       z     vdW  Elec       q    Type
REMARK                         _______ _______ _______ _____ _____    ______ ____
ROOT
ATOM      1  C   UNL     1       2.743   7.033  18.776  0.00  0.00    +0.000 A 
ATOM      2  C   UNL     1       2.239   8.308  18.442  0.00  0.00    +0.000 A 
ATOM      3  C   UNL     1       1.345   8.981  19.270  0.00  0.00    +0.000 A 
ATOM      4  C   UNL     1       0.883   8.365  20.430  0.00  0.00    +0.000 A 
ATOM      5  C   UNL     1       1.353   7.086  20.762  0.00  0.00    +0.000 A 
ATOM      6  C   UNL     1       2.312   6.418  19.974  0.00  0.00    +0.000 A 
ENDROOT
BRANCH   1  10
ATOM      7  C   UNL     1       5.417   5.322  15.968  0.00  0.00    +0.000 A 
ATOM      8  C   UNL     1       5.372   6.637  16.231  0.00  0.00    +0.000 A 
ATOM      9  N   UNL     1       4.616   7.229  17.213  0.00  0.00    +0.000 NA
ATOM     10  C   UNL     1       3.774   6.484  17.849  0.00  0.00    +0.000 A 
ATOM     11  N   UNL     1       3.760   5.117  17.679  0.00  0.00    +0.000 N 
ATOM     12  C   UNL     1       4.610   4.463  16.830  0.00  0.00    +0.000 A 
ATOM     13  O   UNL     1       4.668   3.234  16.841  0.00  0.00    +0.000 OA
ATOM     14  H   UNL     1       3.184   4.502  18.231  0.00  0.00    +0.000 HD
BRANCH   7  15
ATOM     15  C   UNL     1       6.190   4.870  14.799  0.00  0.00    +0.000 C 
ATOM     16  O   UNL     1       7.348   5.183  14.605  0.00  0.00    +0.000 OA
BRANCH  15  17
ATOM     17  O   UNL     1       5.380   4.248  13.905  0.00  0.00    +0.000 OA
BRANCH  17  19
ATOM     18  C   UNL     1       5.026   3.150  11.822  0.00  0.00    +0.000 C 
ATOM     19  C   UNL     1       6.070   3.588  12.835  0.00  0.00    +0.000 C 
ENDBRANCH  17  19
ENDBRANCH  15  17
ENDBRANCH   7  15
ENDBRANCH   1  10
BRANCH   3  20
ATOM     20  S   UNL     1       1.063  10.715  18.964  0.00  0.00    +0.000 S 
ATOM     21  O   UNL     1       2.203  11.223  18.241  0.00  0.00    +0.000 OA
ATOM     22  O   UNL     1      -0.271  10.800  18.397  0.00  0.00    +0.000 OA
BRANCH  20  23
ATOM     23  N   UNL     1       1.037  11.507  20.514  0.00  0.00    +0.000 NA
ATOM     24  C   UNL     1       1.768  12.809  20.505  0.00  0.00    +0.000 C 
BRANCH  23  25
ATOM     25  C   UNL     1      -0.390  11.714  21.045  0.00  0.00    +0.000 C 
ATOM     26  C   UNL     1      -0.611  11.138  22.446  0.00  0.00    +0.000 C 
ATOM     27  C   UNL     1      -0.753  13.204  21.111  0.00  0.00    +0.000 C 
ENDBRANCH  23  25
ENDBRANCH  20  23
ENDBRANCH   3  20
BRANCH   6  28
ATOM     28  O   UNL     1       2.705   5.233  20.552  0.00  0.00    +0.000 OA
BRANCH  28  29
ATOM     29  C   UNL     1       1.794   4.140  20.481  0.00  0.00    +0.000 C 
ATOM     30  C   UNL     1       1.898   3.226  21.685  0.00  0.00    +0.000 C 
ENDBRANCH  28  29
ENDBRANCH   6  28
TORSDOF 9
ENDMDL
MODEL 3
REMARK VINA RESULT:      -7.5      1.654      2.220
REMARK  Name = 
REMARK  14 active torsions:
REMARK  status: ('A' for Active; 'I' for Inactive)
REMARK    1  A    between atoms: C_1  and  C_2
REMARK    2  A    between atoms: C_2  and  O_3
REMARK    3  A    between atoms: O_3  and  C_4
REMARK    4  A    between atoms: C_4  and  C_6
REMARK    5  A    between atoms: C_9  and  C_10
REMARK    6  A    between atoms: C_12  and  S_13
REMARK    7  A    between atoms: S_13  and  N_16
REMARK    8  A    between atoms: N_16  and  C_17
REMARK    9  A    between atoms: N_16  and  C_18
REMARK   10  A    between atoms: C_18  and  C_19
REMARK   11  A    between atoms: C_18  and  C_20
REMARK   12  A    between atoms: C_23  and  O_24
REMARK   13  A    between atoms: O_24  and  C_25
REMARK   14  A    between atoms: C_25  and  C_26
REMARK                            x       y       z     vdW  Elec       q    Type
REMARK                         _______ _______ _______ _____ _____    ______ ____
ROOT
ATOM      1  C   UNL     1       2.723   6.708  19.028  0.00  0.00    +0.000 A 
ATOM      2  C   UNL     1       2.185   7.998  18.836  0.00  0.00    +0.000 A 
ATOM      3  C   UNL     1       1.287   8.558  19.739  0.00  0.00    +0.000 A 
ATOM      4  C   UNL     1       0.854   7.812  20.833  0.00  0.00    +0.000 A 
ATOM      5  C   UNL     1       1.358   6.518  21.023  0.00  0.00    +0.000 A 
ATOM      6  C   UNL     1       2.322   5.960  20.159  0.00  0.00    +0.000 A 
ENDROOT
BRANCH   1  10
ATOM      7  C   UNL     1       5.405   5.336  16.048  0.00  0.00    +0.000 A 
ATOM      8  C   UNL     1       5.250   6.634  16.354  0.00  0.00    +0.000 A 
ATOM      9  N   UNL     1       4.491   7.123  17.389  0.00  0.00    +0.000 NA
ATOM     10  C   UNL     1       3.754   6.285  18.039  0.00  0.00    +0.000 A 
ATOM     11  N   UNL     1       3.860   4.928  17.825  0.00  0.00    +0.000 N 
ATOM     12  C   UNL     1       4.725   4.381  16.918  0.00  0.00    +0.000 A 
ATOM     13  O   UNL     1       4.899   3.163  16.887  0.00  0.00    +0.000 OA
ATOM     14  H   UNL     1       3.372   4.246  18.384  0.00  0.00    +0.000 HD
BRANCH   7  15
ATOM     15  C   UNL     1       6.160   4.992  14.831  0.00  0.00    +0.000 C 
ATOM     16  O   UNL     1       7.284   5.395  14.608  0.00  0.00    +0.000 OA
BRANCH  15  17
ATOM     17  O   UNL     1       5.360   4.353  13.941  0.00  0.00    +0.000 OA
BRANCH  17  19
ATOM     18  C   UNL     1       5.043   3.186  11.889  0.00  0.00    +0.000 C 
ATOM     19  C   UNL     1       6.061   3.614  12.931  0.00  0.00    +0.000 C 
ENDBRANCH  17  19
ENDBRANCH  15  17
ENDBRANCH   7  15
ENDBRANCH   1  10
BRANCH   3  20
ATOM     20  S   UNL     1       0.959  10.308  19.621  0.00  0.00    +0.000 S 
ATOM     21  O   UNL     1       1.377  10.915  20.861  0.00  0.00    +0.000 OA
ATOM     22  O   UNL     1       1.540  10.729  18.359  0.00  0.00    +0.000 OA
BRANCH  20  23
ATOM     23  N   UNL     1      -0.766  10.495  19.506  0.00  0.00    +0.000 NA
ATOM     24  C   UNL     1      -1.279  11.619  20.347  0.00  0.00    +0.000 C 
BRANCH  23  25
ATOM     25  C   UNL     1      -1.244  10.671  18.056  0.00  0.00    +0.000 C 
ATOM     26  C   UNL     1      -2.457   9.806  17.702  0.00  0.00    +0.000 C 
ATOM     27  C   UNL     1      -1.633  12.127  17.766  0.00  0.00    +0.000 C 
ENDBRANCH  23  25
ENDBRANCH  20  23
ENDBRANCH   3  20
BRANCH   6  28
ATOM     28  O   UNL     1       2.750   4.731  20.606  0.00  0.00    +0.000 OA
BRANCH  28  29
ATOM     29  C   UNL     1       1.757   3.832  21.091  0.00  0.00    +0.000 C 
ATOM     30  C   UNL     1       1.019   3.131  19.968  0.00  0.00    +0.000 C 
ENDBRANCH  28  29
ENDBRANCH   6  28
TORSDOF 9
ENDMDL
MODEL 4
REMARK VINA RESULT:      -7.4      3.161      6.128
REMARK  Name = 
REMARK  14 active torsions:
REMARK  status: ('A' for Active; 'I' for Inactive)
REMARK    1  A    between atoms: C_1  and  C_2
REMARK    2  A    between atoms: C_2  and  O_3
REMARK    3  A    between atoms: O_3  and  C_4
REMARK    4  A    between atoms: C_4  and  C_6
REMARK    5  A    between atoms: C_9  and  C_10
REMARK    6  A    between atoms: C_12  and  S_13
REMARK    7  A    between atoms: S_13  and  N_16
REMARK    8  A    between atoms: N_16  and  C_17
REMARK    9  A    between atoms: N_16  and  C_18
REMARK   10  A    between atoms: C_18  and  C_19
REMARK   11  A    between atoms: C_18  and  C_20
REMARK   12  A    between atoms: C_23  and  O_24
REMARK   13  A    between atoms: O_24  and  C_25
REMARK   14  A    between atoms: C_25  and  C_26
REMARK                            x       y       z     vdW  Elec       q    Type
REMARK                         _______ _______ _______ _____ _____    ______ ____
ROOT
ATOM      1  C   UNL     1       3.747   5.824  18.657  0.00  0.00    +0.000 A 
ATOM      2  C   UNL     1       3.586   4.638  19.405  0.00  0.00    +0.000 A 
ATOM      3  C   UNL     1       2.640   4.537  20.421  0.00  0.00    +0.000 A 
ATOM      4  C   UNL     1       1.868   5.646  20.757  0.00  0.00    +0.000 A 
ATOM      5  C   UNL     1       2.035   6.840  20.041  0.00  0.00    +0.000 A 
ATOM      6  C   UNL     1       2.937   6.941  18.963  0.00  0.00    +0.000 A 
ENDROOT
BRANCH   1  10
ATOM      7  C   UNL     1       6.505   5.268  15.488  0.00  0.00    +0.000 A 
ATOM      8  C   UNL     1       5.372   5.977  15.359  0.00  0.00    +0.000 A 
ATOM      9  N   UNL     1       4.507   6.290  16.379  0.00  0.00    +0.000 NA
ATOM     10  C   UNL     1       4.722   5.749  17.532  0.00  0.00    +0.000 A 
ATOM     11  N   UNL     1       5.871   5.031  17.780  0.00  0.00    +0.000 N 
ATOM     12  C   UNL     1       6.843   4.830  16.839  0.00  0.00    +0.000 A 
ATOM     13  O   UNL     1       7.919   4.328  17.160  0.00  0.00    +0.000 OA
ATOM     14  H   UNL     1       6.111   4.681  18.694  0.00  0.00    +0.000 HD
BRANCH   7  15
ATOM     15  C   UNL     1       7.253   4.921  14.268  0.00  0.00    +0.000 C 
ATOM     16  O   UNL     1       8.039   5.676  13.730  0.00  0.00    +0.000 OA
BRANCH  15  17
ATOM     17  O   UNL     1       6.793   3.757  13.744  0.00  0.00    +0.000 OA
BRANCH  17  19
ATOM     18  C   UNL     1       5.176   3.395  12.033  0.00  0.00    +0.000 C 
ATOM     19  C   UNL     1       6.619   3.772  12.320  0.00  0.00    +0.000 C 
ENDBRANCH  17  19
ENDBRANCH  15  17
ENDBRANCH   7  15
ENDBRANCH   1  10
BRANCH   3  20
ATOM     20  S   UNL     1       2.250   2.911  21.045  0.00  0.00    +0.000 S 
ATOM     21  O   UNL     1       3.417   2.416  21.733  0.00  0.00    +0.000 OA
ATOM     22  O   UNL     1       0.985   3.054  21.742  0.00  0.00    +0.000 OA
BRANCH  20  23
ATOM     23  N   UNL     1       1.988   1.886  19.664  0.00  0.00    +0.000 NA
ATOM     24  C   UNL     1       0.672   2.139  19.003  0.00  0.00    +0.000 C 
BRANCH  23  25
ATOM     25  C   UNL     1       3.119   1.993  18.628  0.00  0.00    +0.000 C 
ATOM     26  C   UNL     1       4.043   0.773  18.603  0.00  0.00    +0.000 C 
ATOM     27  C   UNL     1       2.564   2.164  17.207  0.00  0.00    +0.000 C 
ENDBRANCH  23  25
ENDBRANCH  20  23
ENDBRANCH   3  20
BRANCH   6  28
ATOM     28  O   UNL     1       2.849   8.167  18.342  0.00  0.00    +0.000 OA
BRANCH  28  29
ATOM     29  C   UNL     1       1.899   9.092  18.863  0.00  0.00    +0.000 C 
ATOM     30  C   UNL     1       0.922   9.567  17.806  0.00  0.00    +0.000 C 
ENDBRANCH  28  29
ENDBRANCH   6  28
TORSDOF 9
ENDMDL
MODEL 5
REMARK VINA RESULT:      -7.3      2.947      7.993
REMARK  Name = 
REMARK  14 active torsions:
REMARK  status: ('A' for Active; 'I' for Inactive)
REMARK    1  A    between atoms: C_1  and  C_2
REMARK    2  A    between atoms: C_2  and  O_3
REMARK    3  A    between atoms: O_3  and  C_4
REMARK    4  A    between atoms: C_4  and  C_6
REMARK    5  A    between atoms: C_9  and  C_10
REMARK    6  A    between atoms: C_12  and  S_13
REMARK    7  A    between atoms: S_13  and  N_16
REMARK    8  A    between atoms: N_16  and  C_17
REMARK    9  A    between atoms: N_16  and  C_18
REMARK   10  A    between atoms: C_18  and  C_19
REMARK   11  A    between atoms: C_18  and  C_20
REMARK   12  A    between atoms: C_23  and  O_24
REMARK   13  A    between atoms: O_24  and  C_25
REMARK   14  A    between atoms: C_25  and  C_26
REMARK                            x       y       z     vdW  Elec       q    Type
REMARK                         _______ _______ _______ _____ _____    ______ ____
ROOT
ATOM      1  C   UNL     1       3.629   6.583  17.749  0.00  0.00    +0.000 A 
ATOM      2  C   UNL     1       3.008   5.321  17.863  0.00  0.00    +0.000 A 
ATOM      3  C   UNL     1       3.712   4.138  17.661  0.00  0.00    +0.000 A 
ATOM      4  C   UNL     1       5.050   4.190  17.277  0.00  0.00    +0.000 A 
ATOM      5  C   UNL     1       5.675   5.437  17.133  0.00  0.00    +0.000 A 
ATOM      6  C   UNL     1       4.998   6.644  17.402  0.00  0.00    +0.000 A 
ENDROOT
BRANCH   1  10
ATOM      7  C   UNL     1       1.404   9.956  19.027  0.00  0.00    +0.000 A 
ATOM      8  C   UNL     1       1.973   9.869  17.814  0.00  0.00    +0.000 A 
ATOM      9  N   UNL     1       2.597   8.757  17.305  0.00  0.00    +0.000 NA
ATOM     10  C   UNL     1       2.777   7.755  18.100  0.00  0.00    +0.000 A 
ATOM     11  N   UNL     1       2.207   7.729  19.354  0.00  0.00    +0.000 N 
ATOM     12  C   UNL     1       1.437   8.747  19.844  0.00  0.00    +0.000 A 
ATOM     13  O   UNL     1       0.819   8.600  20.898  0.00  0.00    +0.000 OA
ATOM     14  H   UNL     1       2.249   6.922  19.957  0.00  0.00    +0.000 HD
BRANCH   7  15
ATOM     15  C   UNL     1       0.883  11.263  19.461  0.00  0.00    +0.000 C 
ATOM     16  O   UNL     1       1.238  11.815  20.484  0.00  0.00    +0.000 OA
BRANCH  15  17
ATOM     17  O   UNL     1      -0.162  11.641  18.683  0.00  0.00    +0.000 OA
BRANCH  17  19
ATOM     18  C   UNL     1      -2.288  11.123  17.743  0.00  0.00    +0.000 C 
ATOM     19  C   UNL     1      -1.389  10.950  18.955  0.00  0.00    +0.000 C 
ENDBRANCH  17  19
ENDBRANCH  15  17
ENDBRANCH   7  15
ENDBRANCH   1  10
BRANCH   3  20
ATOM     20  S   UNL     1       2.957   2.611  18.190  0.00  0.00    +0.000 S 
ATOM     21  O   UNL     1       2.314   2.021  17.042  0.00  0.00    +0.000 OA
ATOM     22  O   UNL     1       3.993   1.892  18.908  0.00  0.00    +0.000 OA
BRANCH  20  23
ATOM     23  N   UNL     1       1.708   3.029  19.327  0.00  0.00    +0.000 NA
ATOM     24  C   UNL     1       0.581   2.050  19.326  0.00  0.00    +0.000 C 
BRANCH  23  25
ATOM     25  C   UNL     1       2.247   3.202  20.756  0.00  0.00    +0.000 C 
ATOM     26  C   UNL     1       2.287   4.659  21.224  0.00  0.00    +0.000 C 
ATOM     27  C   UNL     1       1.396   2.428  21.773  0.00  0.00    +0.000 C 
ENDBRANCH  23  25
ENDBRANCH  20  23
ENDBRANCH   3  20
BRANCH   6  28
ATOM     28  O   UNL     1       5.839   7.729  17.303  0.00  0.00    +0.000 OA
BRANCH  28  29
ATOM     29  C   UNL     1       7.238   7.478  17.398  0.00  0.00    +0.000 C 
ATOM     30  C   UNL     1       8.013   8.704  17.837  0.00  0.00    +0.000 C 
ENDBRANCH  28  29
ENDBRANCH   6  28
TORSDOF 9
ENDMDL
MODEL 6
REMARK VINA RESULT:      -7.3      2.886      8.154
REMARK  Name = 
REMARK  14 active torsions:
REMARK  status: ('A' for Active; 'I' for Inactive)
REMARK    1  A    between atoms: C_1  and  C_2
REMARK    2  A    between atoms: C_2  and  O_3
REMARK    3  A    between atoms: O_3  and  C_4
REMARK    4  A    between atoms: C_4  and  C_6
REMARK    5  A    between atoms: C_9  and  C_10
REMARK    6  A    between atoms: C_12  and  S_13
REMARK    7  A    between atoms: S_13  and  N_16
REMARK    8  A    between atoms: N_16  and  C_17
REMARK    9  A    between atoms: N_16  and  C_18
REMARK   10  A    between atoms: C_18  and  C_19
REMARK   11  A    between atoms: C_18  and  C_20
REMARK   12  A    between atoms: C_23  and  O_24
REMARK   13  A    between atoms: O_24  and  C_25
REMARK   14  A    between atoms: C_25  and  C_26
REMARK                            x       y       z     vdW  Elec       q    Type
REMARK                         _______ _______ _______ _____ _____    ______ ____
ROOT
ATOM      1  C   UNL     1       3.635   6.161  17.918  0.00  0.00    +0.000 A 
ATOM      2  C   UNL     1       3.042   4.883  17.999  0.00  0.00    +0.000 A 
ATOM      3  C   UNL     1       3.694   3.743  17.538  0.00  0.00    +0.000 A 
ATOM      4  C   UNL     1       4.939   3.862  16.924  0.00  0.00    +0.000 A 
ATOM      5  C   UNL     1       5.529   5.129  16.810  0.00  0.00    +0.000 A 
ATOM      6  C   UNL     1       4.917   6.285  17.335  0.00  0.00    +0.000 A 
ENDROOT
BRANCH   1  10
ATOM      7  C   UNL     1       1.232   9.299  19.447  0.00  0.00    +0.000 A 
ATOM      8  C   UNL     1       1.522   8.189  20.145  0.00  0.00    +0.000 A 
ATOM      9  N   UNL     1       2.390   7.202  19.749  0.00  0.00    +0.000 NA
ATOM     10  C   UNL     1       2.866   7.270  18.550  0.00  0.00    +0.000 A 
ATOM     11  N   UNL     1       2.657   8.381  17.762  0.00  0.00    +0.000 N 
ATOM     12  C   UNL     1       1.933   9.464  18.178  0.00  0.00    +0.000 A 
ATOM     13  O   UNL     1       1.919  10.492  17.502  0.00  0.00    +0.000 OA
ATOM     14  H   UNL     1       3.096   8.505  16.863  0.00  0.00    +0.000 HD
BRANCH   7  15
ATOM     15  C   UNL     1       0.186  10.196  19.966  0.00  0.00    +0.000 C 
ATOM     16  O   UNL     1      -0.868  10.392  19.393  0.00  0.00    +0.000 OA
BRANCH  15  17
ATOM     17  O   UNL     1       0.648  10.899  21.030  0.00  0.00    +0.000 OA
BRANCH  17  19
ATOM     18  C   UNL     1      -0.449   9.929  22.908  0.00  0.00    +0.000 C 
ATOM     19  C   UNL     1      -0.336  11.169  22.039  0.00  0.00    +0.000 C 
ENDBRANCH  17  19
ENDBRANCH  15  17
ENDBRANCH   7  15
ENDBRANCH   1  10
BRANCH   3  20
ATOM     20  S   UNL     1       3.045   2.153  18.019  0.00  0.00    +0.000 S 
ATOM     21  O   UNL     1       1.700   2.056  17.507  0.00  0.00    +0.000 OA
ATOM     22  O   UNL     1       4.055   1.185  17.631  0.00  0.00    +0.000 OA
BRANCH  20  23
ATOM     23  N   UNL     1       2.941   2.151  19.756  0.00  0.00    +0.000 NA
ATOM     24  C   UNL     1       4.282   2.195  20.411  0.00  0.00    +0.000 C 
BRANCH  23  25
ATOM     25  C   UNL     1       2.061   3.291  20.294  0.00  0.00    +0.000 C 
ATOM     26  C   UNL     1       0.563   3.062  20.079  0.00  0.00    +0.000 C 
ATOM     27  C   UNL     1       2.271   3.499  21.800  0.00  0.00    +0.000 C 
ENDBRANCH  23  25
ENDBRANCH  20  23
ENDBRANCH   3  20
BRANCH   6  28
ATOM     28  O   UNL     1       5.729   7.389  17.208  0.00  0.00    +0.000 OA
BRANCH  28  29
ATOM     29  C   UNL     1       7.132   7.185  17.345  0.00  0.00    +0.000 C 
ATOM     30  C   UNL     1       7.867   8.463  17.692  0.00  0.00    +0.000 C 
ENDBRANCH  28  29
ENDBRANCH   6  28
TORSDOF 9
ENDMDL
MODEL 7
REMARK VINA RESULT:      -7.3      2.921      7.929
REMARK  Name = 
REMARK  14 active torsions:
REMARK  status: ('A' for Active; 'I' for Inactive)
REMARK    1  A    between atoms: C_1  and  C_2
REMARK    2  A    between atoms: C_2  and  O_3
REMARK    3  A    between atoms: O_3  and  C_4
REMARK    4  A    between atoms: C_4  and  C_6
REMARK    5  A    between atoms: C_9  and  C_10
REMARK    6  A    between atoms: C_12  and  S_13
REMARK    7  A    between atoms: S_13  and  N_16
REMARK    8  A    between atoms: N_16  and  C_17
REMARK    9  A    between atoms: N_16  and  C_18
REMARK   10  A    between atoms: C_18  and  C_19
REMARK   11  A    between atoms: C_18  and  C_20
REMARK   12  A    between atoms: C_23  and  O_24
REMARK   13  A    between atoms: O_24  and  C_25
REMARK   14  A    between atoms: C_25  and  C_26
REMARK                            x       y       z     vdW  Elec       q    Type
REMARK                         _______ _______ _______ _____ _____    ______ ____
ROOT
ATOM      1  C   UNL     1       3.362   6.393  17.938  0.00  0.00    +0.000 A 
ATOM      2  C   UNL     1       2.668   5.172  18.072  0.00  0.00    +0.000 A 
ATOM      3  C   UNL     1       3.229   3.964  17.667  0.00  0.00    +0.000 A 
ATOM      4  C   UNL     1       4.482   3.955  17.058  0.00  0.00    +0.000 A 
ATOM      5  C   UNL     1       5.172   5.164  16.893  0.00  0.00    +0.000 A 
ATOM      6  C   UNL     1       4.653   6.388  17.361  0.00  0.00    +0.000 A 
ENDROOT
BRANCH   1  10
ATOM      7  C   UNL     1       1.229   9.793  19.296  0.00  0.00    +0.000 A 
ATOM      8  C   UNL     1       1.351   8.668  20.017  0.00  0.00    +0.000 A 
ATOM      9  N   UNL     1       2.129   7.587  19.682  0.00  0.00    +0.000 NA
ATOM     10  C   UNL     1       2.682   7.587  18.515  0.00  0.00    +0.000 A 
ATOM     11  N   UNL     1       2.645   8.704  17.709  0.00  0.00    +0.000 N 
ATOM     12  C   UNL     1       2.021   9.865  18.072  0.00  0.00    +0.000 A 
ATOM     13  O   UNL     1       2.161  10.880  17.391  0.00  0.00    +0.000 OA
ATOM     14  H   UNL     1       3.150   8.768  16.839  0.00  0.00    +0.000 HD
BRANCH   7  15
ATOM     15  C   UNL     1       0.257  10.806  19.743  0.00  0.00    +0.000 C 
ATOM     16  O   UNL     1       0.577  11.825  20.322  0.00  0.00    +0.000 OA
BRANCH  15  17
ATOM     17  O   UNL     1      -1.010  10.345  19.597  0.00  0.00    +0.000 OA
BRANCH  17  19
ATOM     18  C   UNL     1      -2.635  11.694  18.495  0.00  0.00    +0.000 C 
ATOM     19  C   UNL     1      -1.595  10.602  18.313  0.00  0.00    +0.000 C 
ENDBRANCH  17  19
ENDBRANCH  15  17
ENDBRANCH   7  15
ENDBRANCH   1  10
BRANCH   3  20
ATOM     20  S   UNL     1       2.453   2.454  18.214  0.00  0.00    +0.000 S 
ATOM     21  O   UNL     1       1.029   2.607  18.042  0.00  0.00    +0.000 OA
ATOM     22  O   UNL     1       3.167   1.382  17.544  0.00  0.00    +0.000 OA
BRANCH  20  23
ATOM     23  N   UNL     1       2.757   2.315  19.921  0.00  0.00    +0.000 NA
ATOM     24  C   UNL     1       4.147   2.718  20.290  0.00  0.00    +0.000 C 
BRANCH  23  25
ATOM     25  C   UNL     1       1.744   3.105  20.765  0.00  0.00    +0.000 C 
ATOM     26  C   UNL     1       1.267   2.353  22.010  0.00  0.00    +0.000 C 
ATOM     27  C   UNL     1       2.334   4.438  21.246  0.00  0.00    +0.000 C 
ENDBRANCH  23  25
ENDBRANCH  20  23
ENDBRANCH   3  20
BRANCH   6  28
ATOM     28  O   UNL     1       5.551   7.417  17.191  0.00  0.00    +0.000 OA
BRANCH  28  29
ATOM     29  C   UNL     1       6.935   7.082  17.212  0.00  0.00    +0.000 C 
ATOM     30  C   UNL     1       7.799   8.242  17.665  0.00  0.00    +0.000 C 
ENDBRANCH  28  29
ENDBRANCH   6  28
TORSDOF 9
ENDMDL
MODEL 8
REMARK VINA RESULT:      -7.3      2.871      8.003
REMARK  Name = 
REMARK  14 active torsions:
REMARK  status: ('A' for Active; 'I' for Inactive)
REMARK    1  A    between atoms: C_1  and  C_2
REMARK    2  A    between atoms: C_2  and  O_3
REMARK    3  A    between atoms: O_3  and  C_4
REMARK    4  A    between atoms: C_4  and  C_6
REMARK    5  A    between atoms: C_9  and  C_10
REMARK    6  A    between atoms: C_12  and  S_13
REMARK    7  A    between atoms: S_13  and  N_16
REMARK    8  A    between atoms: N_16  and  C_17
REMARK    9  A    between atoms: N_16  and  C_18
REMARK   10  A    between atoms: C_18  and  C_19
REMARK   11  A    between atoms: C_18  and  C_20
REMARK   12  A    between atoms: C_23  and  O_24
REMARK   13  A    between atoms: O_24  and  C_25
REMARK   14  A    between atoms: C_25  and  C_26
REMARK                            x       y       z     vdW  Elec       q    Type
REMARK                         _______ _______ _______ _____ _____    ______ ____
ROOT
ATOM      1  C   UNL     1       3.438   6.406  17.775  0.00  0.00    +0.000 A 
ATOM      2  C   UNL     1       2.781   5.164  17.902  0.00  0.00    +0.000 A 
ATOM      3  C   UNL     1       3.437   3.961  17.658  0.00  0.00    +0.000 A 
ATOM      4  C   UNL     1       4.759   3.974  17.220  0.00  0.00    +0.000 A 
ATOM      5  C   UNL     1       5.418   5.202  17.063  0.00  0.00    +0.000 A 
ATOM      6  C   UNL     1       4.793   6.426  17.372  0.00  0.00    +0.000 A 
ENDROOT
BRANCH   1  10
ATOM      7  C   UNL     1       1.389   9.844  19.169  0.00  0.00    +0.000 A 
ATOM      8  C   UNL     1       1.857   9.726  17.916  0.00  0.00    +0.000 A 
ATOM      9  N   UNL     1       2.416   8.594  17.378  0.00  0.00    +0.000 NA
ATOM     10  C   UNL     1       2.640   7.601  18.173  0.00  0.00    +0.000 A 
ATOM     11  N   UNL     1       2.172   7.606  19.469  0.00  0.00    +0.000 N 
ATOM     12  C   UNL     1       1.464   8.647  20.002  0.00  0.00    +0.000 A 
ATOM     13  O   UNL     1       0.929   8.529  21.103  0.00  0.00    +0.000 OA
ATOM     14  H   UNL     1       2.246   6.808  20.080  0.00  0.00    +0.000 HD
BRANCH   7  15
ATOM     15  C   UNL     1       0.930  11.168  19.621  0.00  0.00    +0.000 C 
ATOM     16  O   UNL     1      -0.135  11.350  20.176  0.00  0.00    +0.000 OA
BRANCH  15  17
ATOM     17  O   UNL     1       1.754  12.141  19.156  0.00  0.00    +0.000 OA
BRANCH  17  19
ATOM     18  C   UNL     1       3.102  14.029  19.694  0.00  0.00    +0.000 C 
ATOM     19  C   UNL     1       1.775  13.335  19.950  0.00  0.00    +0.000 C 
ENDBRANCH  17  19
ENDBRANCH  15  17
ENDBRANCH   7  15
ENDBRANCH   1  10
BRANCH   3  20
ATOM     20  S   UNL     1       2.655   2.453  18.203  0.00  0.00    +0.000 S 
ATOM     21  O   UNL     1       1.239   2.584  17.961  0.00  0.00    +0.000 OA
ATOM     22  O   UNL     1       3.413   1.377  17.592  0.00  0.00    +0.000 OA
BRANCH  20  23
ATOM     23  N   UNL     1       2.880   2.357  19.925  0.00  0.00    +0.000 NA
ATOM     24  C   UNL     1       4.243   2.794  20.351  0.00  0.00    +0.000 C 
BRANCH  23  25
ATOM     25  C   UNL     1       1.814   3.145  20.703  0.00  0.00    +0.000 C 
ATOM     26  C   UNL     1       1.292   2.411  21.941  0.00  0.00    +0.000 C 
ATOM     27  C   UNL     1       2.356   4.500  21.181  0.00  0.00    +0.000 C 
ENDBRANCH  23  25
ENDBRANCH  20  23
ENDBRANCH   3  20
BRANCH   6  28
ATOM     28  O   UNL     1       5.664   7.484  17.250  0.00  0.00    +0.000 OA
BRANCH  28  29
ATOM     29  C   UNL     1       7.055   7.199  17.368  0.00  0.00    +0.000 C 
ATOM     30  C   UNL     1       7.866   8.429  17.720  0.00  0.00    +0.000 C 
ENDBRANCH  28  29
ENDBRANCH   6  28
TORSDOF 9
ENDMDL
MODEL 9
REMARK VINA RESULT:      -7.3      2.929      7.903
REMARK  Name = 
REMARK  14 active torsions:
REMARK  status: ('A' for Active; 'I' for Inactive)
REMARK    1  A    between atoms: C_1  and  C_2
REMARK    2  A    between atoms: C_2  and  O_3
REMARK    3  A    between atoms: O_3  and  C_4
REMARK    4  A    between atoms: C_4  and  C_6
REMARK    5  A    between atoms: C_9  and  C_10
REMARK    6  A    between atoms: C_12  and  S_13
REMARK    7  A    between atoms: S_13  and  N_16
REMARK    8  A    between atoms: N_16  and  C_17
REMARK    9  A    between atoms: N_16  and  C_18
REMARK   10  A    between atoms: C_18  and  C_19
REMARK   11  A    between atoms: C_18  and  C_20
REMARK   12  A    between atoms: C_23  and  O_24
REMARK   13  A    between atoms: O_24  and  C_25
REMARK   14  A    between atoms: C_25  and  C_26
REMARK                            x       y       z     vdW  Elec       q    Type
REMARK                         _______ _______ _______ _____ _____    ______ ____
ROOT
ATOM      1  C   UNL     1       3.461   6.424  17.762  0.00  0.00    +0.000 A 
ATOM      2  C   UNL     1       2.794   5.187  17.887  0.00  0.00    +0.000 A 
ATOM      3  C   UNL     1       3.445   3.979  17.658  0.00  0.00    +0.000 A 
ATOM      4  C   UNL     1       4.773   3.980  17.235  0.00  0.00    +0.000 A 
ATOM      5  C   UNL     1       5.441   5.203  17.080  0.00  0.00    +0.000 A 
ATOM      6  C   UNL     1       4.821   6.433  17.375  0.00  0.00    +0.000 A 
ENDROOT
BRANCH   1  10
ATOM      7  C   UNL     1       1.415   9.878  19.119  0.00  0.00    +0.000 A 
ATOM      8  C   UNL     1       1.923   9.765  17.881  0.00  0.00    +0.000 A 
ATOM      9  N   UNL     1       2.485   8.630  17.351  0.00  0.00    +0.000 NA
ATOM     10  C   UNL     1       2.668   7.627  18.144  0.00  0.00    +0.000 A 
ATOM     11  N   UNL     1       2.157   7.627  19.423  0.00  0.00    +0.000 N 
ATOM     12  C   UNL     1       1.445   8.673  19.942  0.00  0.00    +0.000 A 
ATOM     13  O   UNL     1       0.872   8.553  21.024  0.00  0.00    +0.000 OA
ATOM     14  H   UNL     1       2.198   6.823  20.029  0.00  0.00    +0.000 HD
BRANCH   7  15
ATOM     15  C   UNL     1       0.960  11.205  19.568  0.00  0.00    +0.000 C 
ATOM     16  O   UNL     1       1.294  11.701  20.626  0.00  0.00    +0.000 OA
BRANCH  15  17
ATOM     17  O   UNL     1      -0.012  11.677  18.747  0.00  0.00    +0.000 OA
BRANCH  17  19
ATOM     18  C   UNL     1      -2.098  11.186  17.708  0.00  0.00    +0.000 C 
ATOM     19  C   UNL     1      -1.322  11.155  19.013  0.00  0.00    +0.000 C 
ENDBRANCH  17  19
ENDBRANCH  15  17
ENDBRANCH   7  15
ENDBRANCH   1  10
BRANCH   3  20
ATOM     20  S   UNL     1       2.646   2.479  18.202  0.00  0.00    +0.000 S 
ATOM     21  O   UNL     1       1.231   2.626  17.962  0.00  0.00    +0.000 OA
ATOM     22  O   UNL     1       3.391   1.395  17.588  0.00  0.00    +0.000 OA
BRANCH  20  23
ATOM     23  N   UNL     1       2.872   2.378  19.924  0.00  0.00    +0.000 NA
ATOM     24  C   UNL     1       4.236   2.812  20.350  0.00  0.00    +0.000 C 
BRANCH  23  25
ATOM     25  C   UNL     1       1.808   3.166  20.704  0.00  0.00    +0.000 C 
ATOM     26  C   UNL     1       1.287   2.430  21.942  0.00  0.00    +0.000 C 
ATOM     27  C   UNL     1       2.352   4.519  21.184  0.00  0.00    +0.000 C 
ENDBRANCH  23  25
ENDBRANCH  20  23
ENDBRANCH   3  20
BRANCH   6  28
ATOM     28  O   UNL     1       5.702   7.485  17.257  0.00  0.00    +0.000 OA
BRANCH  28  29
ATOM     29  C   UNL     1       7.070   7.164  17.025  0.00  0.00    +0.000 C 
ATOM     30  C   UNL     1       7.918   7.332  18.270  0.00  0.00    +0.000 C 
ENDBRANCH  28  29
ENDBRANCH   6  28
TORSDOF 9
ENDMDL
