MODEL 1
REMARK VINA RESULT:      -6.1      0.000      0.000
REMARK  Name = 
REMARK  5 active torsions:
REMARK  status: ('A' for Active; 'I' for Inactive)
REMARK    1  A    between atoms: C_1  and  C_2
REMARK    2  A    between atoms: C_4  and  C_5
REMARK    3  A    between atoms: N_10  and  C_11
REMARK    4  A    between atoms: C_11  and  C_12
REMARK    5  A    between atoms: C_12  and  O_14
REMARK                            x       y       z     vdW  Elec       q    Type
REMARK                         _______ _______ _______ _____ _____    ______ ____
ROOT
ATOM      1  C   UNL     1       7.139   4.736  13.375  0.00  0.00    +0.000 C 
ATOM      2  C   UNL     1       6.624   5.197  14.687  0.00  0.00    +0.000 A 
ATOM      3  C   UNL     1       5.279   5.327  15.089  0.00  0.00    +0.000 A 
ATOM      4  C   UNL     1       5.323   5.843  16.366  0.00  0.00    +0.000 A 
ATOM      5  N   UNL     1       6.656   6.015  16.647  0.00  0.00    +0.000 N 
ATOM      6  N   UNL     1       7.463   5.538  15.672  0.00  0.00    +0.000 NA
ENDROOT
BRANCH   4   7
ATOM      7  C   UNL     1       4.246   6.139  17.254  0.00  0.00    +0.000 A 
ATOM      8  C   UNL     1       3.554   5.270  18.081  0.00  0.00    +0.000 A 
ATOM      9  C   UNL     1       2.579   6.033  18.766  0.00  0.00    +0.000 A 
ATOM     10  C   UNL     1       2.727   7.322  18.317  0.00  0.00    +0.000 A 
ATOM     11  O   UNL     1       3.736   7.397  17.414  0.00  0.00    +0.000 OA
ENDBRANCH   4   7
BRANCH   5  12
ATOM     12  C   UNL     1       7.269   6.488  17.876  0.00  0.00    +0.000 C 
BRANCH  12  13
ATOM     13  C   UNL     1       7.590   5.384  18.848  0.00  0.00    +0.000 C 
ATOM     14  O   UNL     1       7.586   5.549  20.064  0.00  0.00    +0.000 OA
BRANCH  13  15
ATOM     15  O   UNL     1       7.990   4.209  18.304  0.00  0.00    +0.000 OA
ATOM     16  H   UNL     1       8.045   4.204  17.325  0.00  0.00    +0.000 HD
ENDBRANCH  13  15
ENDBRANCH  12  13
ENDBRANCH   5  12
TORSDOF 4
ENDMDL
MODEL 2
REMARK VINA RESULT:      -5.9      1.728      2.106
REMARK  Name = 
REMARK  5 active torsions:
REMARK  status: ('A' for Active; 'I' for Inactive)
REMARK    1  A    between atoms: C_1  and  C_2
REMARK    2  A    between atoms: C_4  and  C_5
REMARK    3  A    between atoms: N_10  and  C_11
REMARK    4  A    between atoms: C_11  and  C_12
REMARK    5  A    between atoms: C_12  and  O_14
REMARK                            x       y       z     vdW  Elec       q    Type
REMARK                         _______ _______ _______ _____ _____    ______ ____
ROOT
ATOM      1  C   UNL     1       7.195   4.469  13.040  0.00  0.00    +0.000 C 
ATOM      2  C   UNL     1       6.711   4.573  14.437  0.00  0.00    +0.000 A 
ATOM      3  C   UNL     1       5.405   4.347  14.918  0.00  0.00    +0.000 A 
ATOM      4  C   UNL     1       5.454   4.626  16.267  0.00  0.00    +0.000 A 
ATOM      5  N   UNL     1       6.746   5.019  16.514  0.00  0.00    +0.000 N 
ATOM      6  N   UNL     1       7.547   4.901  15.430  0.00  0.00    +0.000 NA
ENDROOT
BRANCH   4   7
ATOM      7  C   UNL     1       4.419   4.529  17.244  0.00  0.00    +0.000 A 
ATOM      8  C   UNL     1       3.516   5.504  17.635  0.00  0.00    +0.000 A 
ATOM      9  C   UNL     1       2.689   4.933  18.630  0.00  0.00    +0.000 A 
ATOM     10  C   UNL     1       3.134   3.644  18.795  0.00  0.00    +0.000 A 
ATOM     11  O   UNL     1       4.169   3.389  17.956  0.00  0.00    +0.000 OA
ENDBRANCH   4   7
BRANCH   5  12
ATOM     12  C   UNL     1       7.356   5.384  17.781  0.00  0.00    +0.000 C 
BRANCH  12  13
ATOM     13  C   UNL     1       7.596   6.863  17.926  0.00  0.00    +0.000 C 
ATOM     14  O   UNL     1       7.123   7.690  17.153  0.00  0.00    +0.000 OA
BRANCH  13  15
ATOM     15  O   UNL     1       8.457   7.235  18.904  0.00  0.00    +0.000 OA
ATOM     16  H   UNL     1       8.360   6.744  19.747  0.00  0.00    +0.000 HD
ENDBRANCH  13  15
ENDBRANCH  12  13
ENDBRANCH   5  12
TORSDOF 4
ENDMDL
MODEL 3
REMARK VINA RESULT:      -5.9      1.848      2.134
REMARK  Name = 
REMARK  5 active torsions:
REMARK  status: ('A' for Active; 'I' for Inactive)
REMARK    1  A    between atoms: C_1  and  C_2
REMARK    2  A    between atoms: C_4  and  C_5
REMARK    3  A    between atoms: N_10  and  C_11
REMARK    4  A    between atoms: C_11  and  C_12
REMARK    5  A    between atoms: C_12  and  O_14
REMARK                            x       y       z     vdW  Elec       q    Type
REMARK                         _______ _______ _______ _____ _____    ______ ____
ROOT
ATOM      1  C   UNL     1       6.470   3.977  13.623  0.00  0.00    +0.000 C 
ATOM      2  C   UNL     1       6.220   4.295  15.050  0.00  0.00    +0.000 A 
ATOM      3  C   UNL     1       5.006   4.189  15.759  0.00  0.00    +0.000 A 
ATOM      4  C   UNL     1       5.277   4.653  17.028  0.00  0.00    +0.000 A 
ATOM      5  N   UNL     1       6.598   5.028  17.008  0.00  0.00    +0.000 N 
ATOM      6  N   UNL     1       7.211   4.727  15.839  0.00  0.00    +0.000 NA
ENDROOT
BRANCH   4   7
ATOM      7  C   UNL     1       4.413   4.735  18.159  0.00  0.00    +0.000 A 
ATOM      8  C   UNL     1       3.714   5.837  18.626  0.00  0.00    +0.000 A 
ATOM      9  C   UNL     1       2.998   5.421  19.773  0.00  0.00    +0.000 A 
ATOM     10  C   UNL     1       3.300   4.093  19.945  0.00  0.00    +0.000 A 
ATOM     11  O   UNL     1       4.143   3.668  18.971  0.00  0.00    +0.000 OA
ENDBRANCH   4   7
BRANCH   5  12
ATOM     12  C   UNL     1       7.410   5.544  18.096  0.00  0.00    +0.000 C 
BRANCH  12  13
ATOM     13  C   UNL     1       7.756   7.001  17.945  0.00  0.00    +0.000 C 
ATOM     14  O   UNL     1       8.467   7.601  18.746  0.00  0.00    +0.000 OA
BRANCH  13  15
ATOM     15  O   UNL     1       7.152   7.655  16.923  0.00  0.00    +0.000 OA
ATOM     16  H   UNL     1       6.709   8.493  17.174  0.00  0.00    +0.000 HD
ENDBRANCH  13  15
ENDBRANCH  12  13
ENDBRANCH   5  12
TORSDOF 4
ENDMDL
MODEL 4
REMARK VINA RESULT:      -5.9      2.156      3.944
REMARK  Name = 
REMARK  5 active torsions:
REMARK  status: ('A' for Active; 'I' for Inactive)
REMARK    1  A    between atoms: C_1  and  C_2
REMARK    2  A    between atoms: C_4  and  C_5
REMARK    3  A    between atoms: N_10  and  C_11
REMARK    4  A    between atoms: C_11  and  C_12
REMARK    5  A    between atoms: C_12  and  O_14
REMARK                            x       y       z     vdW  Elec       q    Type
REMARK                         _______ _______ _______ _____ _____    ______ ____
ROOT
ATOM      1  C   UNL     1       6.165   3.571  12.668  0.00  0.00    +0.000 C 
ATOM      2  C   UNL     1       6.079   4.101  14.050  0.00  0.00    +0.000 A 
ATOM      3  C   UNL     1       7.119   4.643  14.833  0.00  0.00    +0.000 A 
ATOM      4  C   UNL     1       6.548   4.937  16.053  0.00  0.00    +0.000 A 
ATOM      5  N   UNL     1       5.237   4.542  15.950  0.00  0.00    +0.000 N 
ATOM      6  N   UNL     1       4.913   4.120  14.706  0.00  0.00    +0.000 NA
ENDROOT
BRANCH   4   7
ATOM      7  C   UNL     1       7.143   5.536  17.203  0.00  0.00    +0.000 A 
ATOM      8  C   UNL     1       7.507   6.859  17.389  0.00  0.00    +0.000 A 
ATOM      9  C   UNL     1       8.054   6.963  18.689  0.00  0.00    +0.000 A 
ATOM     10  C   UNL     1       7.997   5.700  19.224  0.00  0.00    +0.000 A 
ATOM     11  O   UNL     1       7.439   4.836  18.339  0.00  0.00    +0.000 OA
ENDBRANCH   4   7
BRANCH   5  12
ATOM     12  C   UNL     1       4.174   4.665  16.932  0.00  0.00    +0.000 C 
BRANCH  12  13
ATOM     13  C   UNL     1       3.492   3.359  17.241  0.00  0.00    +0.000 C 
ATOM     14  O   UNL     1       2.304   3.160  17.007  0.00  0.00    +0.000 OA
BRANCH  13  15
ATOM     15  O   UNL     1       4.238   2.435  17.894  0.00  0.00    +0.000 OA
ATOM     16  H   UNL     1       4.417   2.640  18.835  0.00  0.00    +0.000 HD
ENDBRANCH  13  15
ENDBRANCH  12  13
ENDBRANCH   5  12
TORSDOF 4
ENDMDL
MODEL 5
REMARK VINA RESULT:      -5.9      2.322      3.778
REMARK  Name = 
REMARK  5 active torsions:
REMARK  status: ('A' for Active; 'I' for Inactive)
REMARK    1  A    between atoms: C_1  and  C_2
REMARK    2  A    between atoms: C_4  and  C_5
REMARK    3  A    between atoms: N_10  and  C_11
REMARK    4  A    between atoms: C_11  and  C_12
REMARK    5  A    between atoms: C_12  and  O_14
REMARK                            x       y       z     vdW  Elec       q    Type
REMARK                         _______ _______ _______ _____ _____    ______ ____
ROOT
ATOM      1  C   UNL     1       8.227   7.357  18.460  0.00  0.00    +0.000 C 
ATOM      2  C   UNL     1       7.106   6.603  17.850  0.00  0.00    +0.000 A 
ATOM      3  C   UNL     1       6.084   5.889  18.509  0.00  0.00    +0.000 A 
ATOM      4  C   UNL     1       5.325   5.321  17.509  0.00  0.00    +0.000 A 
ATOM      5  N   UNL     1       5.930   5.691  16.333  0.00  0.00    +0.000 N 
ATOM      6  N   UNL     1       6.959   6.550  16.521  0.00  0.00    +0.000 NA
ENDROOT
BRANCH   4   7
ATOM      7  C   UNL     1       4.148   4.523  17.617  0.00  0.00    +0.000 A 
ATOM      8  C   UNL     1       2.839   4.945  17.782  0.00  0.00    +0.000 A 
ATOM      9  C   UNL     1       2.030   3.786  17.835  0.00  0.00    +0.000 A 
ATOM     10  C   UNL     1       2.888   2.722  17.704  0.00  0.00    +0.000 A 
ATOM     11  O   UNL     1       4.164   3.157  17.562  0.00  0.00    +0.000 OA
ENDBRANCH   4   7
BRANCH   5  12
ATOM     12  C   UNL     1       5.516   5.402  14.971  0.00  0.00    +0.000 C 
BRANCH  12  13
ATOM     13  C   UNL     1       6.581   4.721  14.154  0.00  0.00    +0.000 C 
ATOM     14  O   UNL     1       6.423   3.615  13.648  0.00  0.00    +0.000 OA
BRANCH  13  15
ATOM     15  O   UNL     1       7.779   5.353  14.090  0.00  0.00    +0.000 OA
ATOM     16  H   UNL     1       8.279   5.204  13.261  0.00  0.00    +0.000 HD
ENDBRANCH  13  15
ENDBRANCH  12  13
ENDBRANCH   5  12
TORSDOF 4
ENDMDL
MODEL 6
REMARK VINA RESULT:      -5.8      2.304      3.443
REMARK  Name = 
REMARK  5 active torsions:
REMARK  status: ('A' for Active; 'I' for Inactive)
REMARK    1  A    between atoms: C_1  and  C_2
REMARK    2  A    between atoms: C_4  and  C_5
REMARK    3  A    between atoms: N_10  and  C_11
REMARK    4  A    between atoms: C_11  and  C_12
REMARK    5  A    between atoms: C_12  and  O_14
REMARK                            x       y       z     vdW  Elec       q    Type
REMARK                         _______ _______ _______ _____ _____    ______ ____
ROOT
ATOM      1  C   UNL     1       6.139   3.447  12.705  0.00  0.00    +0.000 C 
ATOM      2  C   UNL     1       6.073   4.115  14.026  0.00  0.00    +0.000 A 
ATOM      3  C   UNL     1       7.083   4.858  14.670  0.00  0.00    +0.000 A 
ATOM      4  C   UNL     1       6.557   5.219  15.891  0.00  0.00    +0.000 A 
ATOM      5  N   UNL     1       5.300   4.666  15.927  0.00  0.00    +0.000 N 
ATOM      6  N   UNL     1       4.955   4.071  14.761  0.00  0.00    +0.000 NA
ENDROOT
BRANCH   4   7
ATOM      7  C   UNL     1       7.142   6.007  16.926  0.00  0.00    +0.000 A 
ATOM      8  C   UNL     1       7.587   5.594  18.171  0.00  0.00    +0.000 A 
ATOM      9  C   UNL     1       8.086   6.738  18.837  0.00  0.00    +0.000 A 
ATOM     10  C   UNL     1       7.914   7.785  17.966  0.00  0.00    +0.000 A 
ATOM     11  O   UNL     1       7.356   7.352  16.808  0.00  0.00    +0.000 OA
ENDBRANCH   4   7
BRANCH   5  12
ATOM     12  C   UNL     1       4.292   4.773  16.968  0.00  0.00    +0.000 C 
BRANCH  12  13
ATOM     13  C   UNL     1       4.352   3.657  17.976  0.00  0.00    +0.000 C 
ATOM     14  O   UNL     1       4.439   3.858  19.184  0.00  0.00    +0.000 OA
BRANCH  13  15
ATOM     15  O   UNL     1       4.411   2.400  17.472  0.00  0.00    +0.000 OA
ATOM     16  H   UNL     1       4.888   1.753  18.033  0.00  0.00    +0.000 HD
ENDBRANCH  13  15
ENDBRANCH  12  13
ENDBRANCH   5  12
TORSDOF 4
ENDMDL
MODEL 7
REMARK VINA RESULT:      -5.8      1.324      1.617
REMARK  Name = 
REMARK  5 active torsions:
REMARK  status: ('A' for Active; 'I' for Inactive)
REMARK    1  A    between atoms: C_1  and  C_2
REMARK    2  A    between atoms: C_4  and  C_5
REMARK    3  A    between atoms: N_10  and  C_11
REMARK    4  A    between atoms: C_11  and  C_12
REMARK    5  A    between atoms: C_12  and  O_14
REMARK                            x       y       z     vdW  Elec       q    Type
REMARK                         _______ _______ _______ _____ _____    ______ ____
ROOT
ATOM      1  C   UNL     1       7.255   4.949  12.998  0.00  0.00    +0.000 C 
ATOM      2  C   UNL     1       6.826   4.798  14.409  0.00  0.00    +0.000 A 
ATOM      3  C   UNL     1       5.510   4.763  14.914  0.00  0.00    +0.000 A 
ATOM      4  C   UNL     1       5.640   4.666  16.282  0.00  0.00    +0.000 A 
ATOM      5  N   UNL     1       6.992   4.674  16.524  0.00  0.00    +0.000 N 
ATOM      6  N   UNL     1       7.728   4.657  15.388  0.00  0.00    +0.000 NA
ENDROOT
BRANCH   4   7
ATOM      7  C   UNL     1       4.624   4.563  17.277  0.00  0.00    +0.000 A 
ATOM      8  C   UNL     1       3.886   3.446  17.637  0.00  0.00    +0.000 A 
ATOM      9  C   UNL     1       3.004   3.843  18.669  0.00  0.00    +0.000 A 
ATOM     10  C   UNL     1       3.248   5.178  18.880  0.00  0.00    +0.000 A 
ATOM     11  O   UNL     1       4.230   5.617  18.054  0.00  0.00    +0.000 OA
ENDBRANCH   4   7
BRANCH   5  12
ATOM     12  C   UNL     1       7.686   4.549  17.794  0.00  0.00    +0.000 C 
BRANCH  12  13
ATOM     13  C   UNL     1       7.465   5.720  18.714  0.00  0.00    +0.000 C 
ATOM     14  O   UNL     1       7.914   6.838  18.484  0.00  0.00    +0.000 OA
BRANCH  13  15
ATOM     15  O   UNL     1       6.823   5.451  19.877  0.00  0.00    +0.000 OA
ATOM     16  H   UNL     1       7.406   5.375  20.662  0.00  0.00    +0.000 HD
ENDBRANCH  13  15
ENDBRANCH  12  13
ENDBRANCH   5  12
TORSDOF 4
ENDMDL
MODEL 8
REMARK VINA RESULT:      -5.8      1.192      1.494
REMARK  Name = 
REMARK  5 active torsions:
REMARK  status: ('A' for Active; 'I' for Inactive)
REMARK    1  A    between atoms: C_1  and  C_2
REMARK    2  A    between atoms: C_4  and  C_5
REMARK    3  A    between atoms: N_10  and  C_11
REMARK    4  A    between atoms: C_11  and  C_12
REMARK    5  A    between atoms: C_12  and  O_14
REMARK                            x       y       z     vdW  Elec       q    Type
REMARK                         _______ _______ _______ _____ _____    ______ ____
ROOT
ATOM      1  C   UNL     1       6.430   3.908  13.434  0.00  0.00    +0.000 C 
ATOM      2  C   UNL     1       6.155   4.562  14.735  0.00  0.00    +0.000 A 
ATOM      3  C   UNL     1       4.976   4.492  15.505  0.00  0.00    +0.000 A 
ATOM      4  C   UNL     1       5.194   5.311  16.592  0.00  0.00    +0.000 A 
ATOM      5  N   UNL     1       6.450   5.836  16.409  0.00  0.00    +0.000 N 
ATOM      6  N   UNL     1       7.085   5.316  15.333  0.00  0.00    +0.000 NA
ENDROOT
BRANCH   4   7
ATOM      7  C   UNL     1       4.340   5.579  17.702  0.00  0.00    +0.000 A 
ATOM      8  C   UNL     1       3.464   6.639  17.872  0.00  0.00    +0.000 A 
ATOM      9  C   UNL     1       2.842   6.468  19.132  0.00  0.00    +0.000 A 
ATOM     10  C   UNL     1       3.374   5.318  19.661  0.00  0.00    +0.000 A 
ATOM     11  O   UNL     1       4.269   4.770  18.801  0.00  0.00    +0.000 OA
ENDBRANCH   4   7
BRANCH   5  12
ATOM     12  C   UNL     1       7.194   6.728  17.281  0.00  0.00    +0.000 C 
BRANCH  12  13
ATOM     13  C   UNL     1       7.846   6.023  18.441  0.00  0.00    +0.000 C 
ATOM     14  O   UNL     1       7.728   4.818  18.636  0.00  0.00    +0.000 OA
BRANCH  13  15
ATOM     15  O   UNL     1       8.496   6.813  19.330  0.00  0.00    +0.000 OA
ATOM     16  H   UNL     1       9.139   6.346  19.904  0.00  0.00    +0.000 HD
ENDBRANCH  13  15
ENDBRANCH  12  13
ENDBRANCH   5  12
TORSDOF 4
ENDMDL
MODEL 9
REMARK VINA RESULT:      -5.8      1.197      1.400
REMARK  Name = 
REMARK  5 active torsions:
REMARK  status: ('A' for Active; 'I' for Inactive)
REMARK    1  A    between atoms: C_1  and  C_2
REMARK    2  A    between atoms: C_4  and  C_5
REMARK    3  A    between atoms: N_10  and  C_11
REMARK    4  A    between atoms: C_11  and  C_12
REMARK    5  A    between atoms: C_12  and  O_14
REMARK                            x       y       z     vdW  Elec       q    Type
REMARK                         _______ _______ _______ _____ _____    ______ ____
ROOT
ATOM      1  C   UNL     1       7.574   5.036  13.482  0.00  0.00    +0.000 C 
ATOM      2  C   UNL     1       6.847   5.044  14.774  0.00  0.00    +0.000 A 
ATOM      3  C   UNL     1       5.529   5.481  15.020  0.00  0.00    +0.000 A 
ATOM      4  C   UNL     1       5.341   5.340  16.378  0.00  0.00    +0.000 A 
ATOM      5  N   UNL     1       6.532   4.863  16.867  0.00  0.00    +0.000 N 
ATOM      6  N   UNL     1       7.427   4.588  15.890  0.00  0.00    +0.000 NA
ENDROOT
BRANCH   4   7
ATOM      7  C   UNL     1       4.175   5.603  17.157  0.00  0.00    +0.000 A 
ATOM      8  C   UNL     1       3.764   6.808  17.704  0.00  0.00    +0.000 A 
ATOM      9  C   UNL     1       2.550   6.564  18.387  0.00  0.00    +0.000 A 
ATOM     10  C   UNL     1       2.288   5.226  18.224  0.00  0.00    +0.000 A 
ATOM     11  O   UNL     1       3.257   4.642  17.475  0.00  0.00    +0.000 OA
ENDBRANCH   4   7
BRANCH   5  12
ATOM     12  C   UNL     1       6.870   4.496  18.231  0.00  0.00    +0.000 C 
BRANCH  12  13
ATOM     13  C   UNL     1       7.518   5.610  19.008  0.00  0.00    +0.000 C 
ATOM     14  O   UNL     1       7.654   5.577  20.227  0.00  0.00    +0.000 OA
BRANCH  13  15
ATOM     15  O   UNL     1       7.856   6.714  18.298  0.00  0.00    +0.000 OA
ATOM     16  H   UNL     1       8.814   6.921  18.290  0.00  0.00    +0.000 HD
ENDBRANCH  13  15
ENDBRANCH  12  13
ENDBRANCH   5  12
TORSDOF 4
ENDMDL
