MODEL 1
REMARK VINA RESULT:      -7.1      0.000      0.000
REMARK  Name = 
REMARK  4 active torsions:
REMARK  status: ('A' for Active; 'I' for Inactive)
REMARK    1  A    between atoms: C_2  and  C_12
REMARK    2  A    between atoms: N_3  and  O_4
REMARK    3  A    between atoms: O_4  and  C_5
REMARK    4  A    between atoms: C_5  and  C_7
REMARK                            x       y       z     vdW  Elec       q    Type
REMARK                         _______ _______ _______ _____ _____    ______ ____
ROOT
ATOM      1  N   UNL     1       4.428   3.055  17.640  0.00  0.00    +0.000 NA
ATOM      2  C   UNL     1       4.235   4.280  17.255  0.00  0.00    +0.000 C 
ATOM      3  N   UNL     1       4.687   4.747  16.041  0.00  0.00    +0.000 N 
ATOM      4  H   UNL     1       4.916   2.575  16.876  0.00  0.00    +0.000 HD
ATOM      5  H   UNL     1       4.793   5.763  15.960  0.00  0.00    +0.000 HD
ENDROOT
BRANCH   2   6
ATOM      6  C   UNL     1       3.490   5.205  18.164  0.00  0.00    +0.000 A 
ATOM      7  C   UNL     1       3.378   6.562  17.833  0.00  0.00    +0.000 A 
ATOM      8  C   UNL     1       2.684   7.436  18.672  0.00  0.00    +0.000 A 
ATOM      9  C   UNL     1       2.110   6.955  19.848  0.00  0.00    +0.000 A 
ATOM     10 BR   UNL     1       1.182   8.137  20.994  0.00  0.00    +0.000 Br
ATOM     11  C   UNL     1       2.225   5.609  20.192  0.00  0.00    +0.000 A 
ATOM     12  C   UNL     1       2.915   4.731  19.350  0.00  0.00    +0.000 A 
ENDBRANCH   2   6
BRANCH   3  13
ATOM     13  O   UNL     1       5.837   4.064  15.578  0.00  0.00    +0.000 OA
BRANCH  13  14
ATOM     14  C   UNL     1       6.945   4.887  15.563  0.00  0.00    +0.000 C 
ATOM     15  O   UNL     1       7.524   5.201  14.527  0.00  0.00    +0.000 OA
BRANCH  14  16
ATOM     16  C   UNL     1       7.334   5.341  16.881  0.00  0.00    +0.000 A 
ATOM     17  C   UNL     1       7.376   6.657  17.426  0.00  0.00    +0.000 A 
ATOM     18  C   UNL     1       7.822   6.530  18.721  0.00  0.00    +0.000 A 
ATOM     19  O   UNL     1       8.057   5.227  19.014  0.00  0.00    +0.000 OA
ATOM     20  C   UNL     1       7.762   4.512  17.898  0.00  0.00    +0.000 A 
ENDBRANCH  14  16
ENDBRANCH  13  14
ENDBRANCH   3  13
TORSDOF 4
ENDMDL
MODEL 2
REMARK VINA RESULT:      -6.9      0.376      1.201
REMARK  Name = 
REMARK  4 active torsions:
REMARK  status: ('A' for Active; 'I' for Inactive)
REMARK    1  A    between atoms: C_2  and  C_12
REMARK    2  A    between atoms: N_3  and  O_4
REMARK    3  A    between atoms: O_4  and  C_5
REMARK    4  A    between atoms: C_5  and  C_7
REMARK                            x       y       z     vdW  Elec       q    Type
REMARK                         _______ _______ _______ _____ _____    ______ ____
ROOT
ATOM      1  N   UNL     1       3.778   3.377  17.334  0.00  0.00    +0.000 NA
ATOM      2  C   UNL     1       3.897   4.660  17.178  0.00  0.00    +0.000 C 
ATOM      3  N   UNL     1       4.619   5.210  16.142  0.00  0.00    +0.000 N 
ATOM      4  H   UNL     1       4.275   2.934  16.554  0.00  0.00    +0.000 HD
ATOM      5  H   UNL     1       4.937   6.174  16.275  0.00  0.00    +0.000 HD
ENDROOT
BRANCH   2   6
ATOM      6  C   UNL     1       3.217   5.565  18.155  0.00  0.00    +0.000 A 
ATOM      7  C   UNL     1       2.732   5.043  19.362  0.00  0.00    +0.000 A 
ATOM      8  C   UNL     1       2.097   5.877  20.285  0.00  0.00    +0.000 A 
ATOM      9  C   UNL     1       1.936   7.232  19.996  0.00  0.00    +0.000 A 
ATOM     10 BR   UNL     1       1.064   8.361  21.234  0.00  0.00    +0.000 Br
ATOM     11  C   UNL     1       2.405   7.759  18.793  0.00  0.00    +0.000 A 
ATOM     12  C   UNL     1       3.047   6.926  17.871  0.00  0.00    +0.000 A 
ENDBRANCH   2   6
BRANCH   3  13
ATOM     13  O   UNL     1       5.668   4.372  15.693  0.00  0.00    +0.000 OA
BRANCH  13  14
ATOM     14  C   UNL     1       6.877   5.040  15.672  0.00  0.00    +0.000 C 
ATOM     15  O   UNL     1       7.486   5.275  14.631  0.00  0.00    +0.000 OA
BRANCH  14  16
ATOM     16  C   UNL     1       7.331   5.435  16.987  0.00  0.00    +0.000 A 
ATOM     17  C   UNL     1       7.492   6.733  17.554  0.00  0.00    +0.000 A 
ATOM     18  C   UNL     1       7.957   6.545  18.834  0.00  0.00    +0.000 A 
ATOM     19  O   UNL     1       8.093   5.222  19.098  0.00  0.00    +0.000 OA
ATOM     20  C   UNL     1       7.716   4.555  17.978  0.00  0.00    +0.000 A 
ENDBRANCH  14  16
ENDBRANCH  13  14
ENDBRANCH   3  13
TORSDOF 4
ENDMDL
MODEL 3
REMARK VINA RESULT:      -6.8      2.859      4.693
REMARK  Name = 
REMARK  4 active torsions:
REMARK  status: ('A' for Active; 'I' for Inactive)
REMARK    1  A    between atoms: C_2  and  C_12
REMARK    2  A    between atoms: N_3  and  O_4
REMARK    3  A    between atoms: O_4  and  C_5
REMARK    4  A    between atoms: C_5  and  C_7
REMARK                            x       y       z     vdW  Elec       q    Type
REMARK                         _______ _______ _______ _____ _____    ______ ____
ROOT
ATOM      1  N   UNL     1       4.405   4.668  17.128  0.00  0.00    +0.000 NA
ATOM      2  C   UNL     1       4.272   5.125  18.336  0.00  0.00    +0.000 C 
ATOM      3  N   UNL     1       4.901   4.542  19.414  0.00  0.00    +0.000 N 
ATOM      4  H   UNL     1       5.054   3.875  17.178  0.00  0.00    +0.000 HD
ATOM      5  H   UNL     1       4.496   4.739  20.333  0.00  0.00    +0.000 HD
ENDROOT
BRANCH   2   6
ATOM      6  C   UNL     1       3.412   6.328  18.554  0.00  0.00    +0.000 A 
ATOM      7  C   UNL     1       3.378   7.342  17.586  0.00  0.00    +0.000 A 
ATOM      8  C   UNL     1       2.577   8.470  17.777  0.00  0.00    +0.000 A 
ATOM      9  C   UNL     1       1.818   8.590  18.940  0.00  0.00    +0.000 A 
ATOM     10 BR   UNL     1       0.745  10.122  19.209  0.00  0.00    +0.000 Br
ATOM     11  C   UNL     1       1.853   7.593  19.914  0.00  0.00    +0.000 A 
ATOM     12  C   UNL     1       2.650   6.459  19.722  0.00  0.00    +0.000 A 
ENDBRANCH   2   6
BRANCH   3  13
ATOM     13  O   UNL     1       5.140   3.158  19.235  0.00  0.00    +0.000 OA
BRANCH  13  14
ATOM     14  C   UNL     1       4.554   2.409  20.235  0.00  0.00    +0.000 C 
ATOM     15  O   UNL     1       5.201   1.683  20.985  0.00  0.00    +0.000 OA
BRANCH  14  16
ATOM     16  C   UNL     1       3.119   2.581  20.308  0.00  0.00    +0.000 A 
ATOM     17  C   UNL     1       2.306   3.097  21.359  0.00  0.00    +0.000 A 
ATOM     18  C   UNL     1       1.006   3.036  20.914  0.00  0.00    +0.000 A 
ATOM     19  O   UNL     1       0.960   2.519  19.660  0.00  0.00    +0.000 OA
ATOM     20  C   UNL     1       2.239   2.244  19.299  0.00  0.00    +0.000 A 
ENDBRANCH  14  16
ENDBRANCH  13  14
ENDBRANCH   3  13
TORSDOF 4
ENDMDL
MODEL 4
REMARK VINA RESULT:      -6.8      3.767      6.187
REMARK  Name = 
REMARK  4 active torsions:
REMARK  status: ('A' for Active; 'I' for Inactive)
REMARK    1  A    between atoms: C_2  and  C_12
REMARK    2  A    between atoms: N_3  and  O_4
REMARK    3  A    between atoms: O_4  and  C_5
REMARK    4  A    between atoms: C_5  and  C_7
REMARK                            x       y       z     vdW  Elec       q    Type
REMARK                         _______ _______ _______ _____ _____    ______ ____
ROOT
ATOM      1  N   UNL     1       5.596   3.534  19.038  0.00  0.00    +0.000 NA
ATOM      2  C   UNL     1       5.404   4.582  18.296  0.00  0.00    +0.000 C 
ATOM      3  N   UNL     1       4.856   5.744  18.793  0.00  0.00    +0.000 N 
ATOM      4  H   UNL     1       5.300   3.784  19.989  0.00  0.00    +0.000 HD
ATOM      5  H   UNL     1       4.439   6.376  18.104  0.00  0.00    +0.000 HD
ENDROOT
BRANCH   2   6
ATOM      6  C   UNL     1       5.801   4.519  16.856  0.00  0.00    +0.000 A 
ATOM      7  C   UNL     1       7.085   4.928  16.471  0.00  0.00    +0.000 A 
ATOM      8  C   UNL     1       7.468   4.872  15.129  0.00  0.00    +0.000 A 
ATOM      9  C   UNL     1       6.565   4.417  14.170  0.00  0.00    +0.000 A 
ATOM     10 BR   UNL     1       7.074   4.353  12.352  0.00  0.00    +0.000 Br
ATOM     11  C   UNL     1       5.281   4.018  14.541  0.00  0.00    +0.000 A 
ATOM     12  C   UNL     1       4.897   4.067  15.885  0.00  0.00    +0.000 A 
ENDBRANCH   2   6
BRANCH   3  13
ATOM     13  O   UNL     1       3.989   5.522  19.890  0.00  0.00    +0.000 OA
BRANCH  13  14
ATOM     14  C   UNL     1       2.675   5.790  19.560  0.00  0.00    +0.000 C 
ATOM     15  O   UNL     1       2.220   6.930  19.526  0.00  0.00    +0.000 OA
BRANCH  14  16
ATOM     16  C   UNL     1       1.911   4.601  19.253  0.00  0.00    +0.000 A 
ATOM     17  C   UNL     1       1.240   3.688  20.118  0.00  0.00    +0.000 A 
ATOM     18  C   UNL     1       0.673   2.730  19.312  0.00  0.00    +0.000 A 
ATOM     19  O   UNL     1       0.945   2.988  18.008  0.00  0.00    +0.000 OA
ATOM     20  C   UNL     1       1.695   4.118  17.977  0.00  0.00    +0.000 A 
ENDBRANCH  14  16
ENDBRANCH  13  14
ENDBRANCH   3  13
TORSDOF 4
ENDMDL
MODEL 5
REMARK VINA RESULT:      -6.8      2.826      4.759
REMARK  Name = 
REMARK  4 active torsions:
REMARK  status: ('A' for Active; 'I' for Inactive)
REMARK    1  A    between atoms: C_2  and  C_12
REMARK    2  A    between atoms: N_3  and  O_4
REMARK    3  A    between atoms: O_4  and  C_5
REMARK    4  A    between atoms: C_5  and  C_7
REMARK                            x       y       z     vdW  Elec       q    Type
REMARK                         _______ _______ _______ _____ _____    ______ ____
ROOT
ATOM      1  N   UNL     1       4.461   5.141  17.034  0.00  0.00    +0.000 NA
ATOM      2  C   UNL     1       4.224   5.461  18.270  0.00  0.00    +0.000 C 
ATOM      3  N   UNL     1       4.788   4.780  19.326  0.00  0.00    +0.000 N 
ATOM      4  H   UNL     1       5.128   4.362  17.050  0.00  0.00    +0.000 HD
ATOM      5  H   UNL     1       4.308   4.866  20.227  0.00  0.00    +0.000 HD
ENDROOT
BRANCH   2   6
ATOM      6  C   UNL     1       3.313   6.614  18.547  0.00  0.00    +0.000 A 
ATOM      7  C   UNL     1       2.591   6.656  19.748  0.00  0.00    +0.000 A 
ATOM      8  C   UNL     1       1.739   7.728  20.020  0.00  0.00    +0.000 A 
ATOM      9  C   UNL     1       1.599   8.753  19.085  0.00  0.00    +0.000 A 
ATOM     10 BR   UNL     1       0.434  10.199  19.442  0.00  0.00    +0.000 Br
ATOM     11  C   UNL     1       2.303   8.716  17.882  0.00  0.00    +0.000 A 
ATOM     12  C   UNL     1       3.162   7.646  17.611  0.00  0.00    +0.000 A 
ENDBRANCH   2   6
BRANCH   3  13
ATOM     13  O   UNL     1       5.082   3.429  19.020  0.00  0.00    +0.000 OA
BRANCH  13  14
ATOM     14  C   UNL     1       4.484   2.564  19.915  0.00  0.00    +0.000 C 
ATOM     15  O   UNL     1       5.127   1.786  20.614  0.00  0.00    +0.000 OA
BRANCH  14  16
ATOM     16  C   UNL     1       3.043   2.683  19.945  0.00  0.00    +0.000 A 
ATOM     17  C   UNL     1       2.179   3.145  20.980  0.00  0.00    +0.000 A 
ATOM     18  C   UNL     1       0.897   3.049  20.492  0.00  0.00    +0.000 A 
ATOM     19  O   UNL     1       0.909   2.561  19.226  0.00  0.00    +0.000 OA
ATOM     20  C   UNL     1       2.208   2.340  18.900  0.00  0.00    +0.000 A 
ENDBRANCH  14  16
ENDBRANCH  13  14
ENDBRANCH   3  13
TORSDOF 4
ENDMDL
MODEL 6
REMARK VINA RESULT:      -6.8      3.873      6.219
REMARK  Name = 
REMARK  4 active torsions:
REMARK  status: ('A' for Active; 'I' for Inactive)
REMARK    1  A    between atoms: C_2  and  C_12
REMARK    2  A    between atoms: N_3  and  O_4
REMARK    3  A    between atoms: O_4  and  C_5
REMARK    4  A    between atoms: C_5  and  C_7
REMARK                            x       y       z     vdW  Elec       q    Type
REMARK                         _______ _______ _______ _____ _____    ______ ____
ROOT
ATOM      1  N   UNL     1       5.596   3.548  18.991  0.00  0.00    +0.000 NA
ATOM      2  C   UNL     1       5.427   4.600  18.248  0.00  0.00    +0.000 C 
ATOM      3  N   UNL     1       4.909   5.774  18.746  0.00  0.00    +0.000 N 
ATOM      4  H   UNL     1       5.308   3.805  19.942  0.00  0.00    +0.000 HD
ATOM      5  H   UNL     1       4.506   6.417  18.058  0.00  0.00    +0.000 HD
ENDROOT
BRANCH   2   6
ATOM      6  C   UNL     1       5.820   4.526  16.807  0.00  0.00    +0.000 A 
ATOM      7  C   UNL     1       4.908   4.032  15.864  0.00  0.00    +0.000 A 
ATOM      8  C   UNL     1       5.262   3.960  14.515  0.00  0.00    +0.000 A 
ATOM      9  C   UNL     1       6.531   4.371  14.110  0.00  0.00    +0.000 A 
ATOM     10 BR   UNL     1       7.019   4.261  12.287  0.00  0.00    +0.000 Br
ATOM     11  C   UNL     1       7.449   4.854  15.042  0.00  0.00    +0.000 A 
ATOM     12  C   UNL     1       7.095   4.933  16.392  0.00  0.00    +0.000 A 
ENDBRANCH   2   6
BRANCH   3  13
ATOM     13  O   UNL     1       4.038   5.574  19.844  0.00  0.00    +0.000 OA
BRANCH  13  14
ATOM     14  C   UNL     1       2.722   5.803  19.497  0.00  0.00    +0.000 C 
ATOM     15  O   UNL     1       2.271   6.931  19.316  0.00  0.00    +0.000 OA
BRANCH  14  16
ATOM     16  C   UNL     1       1.950   4.588  19.361  0.00  0.00    +0.000 A 
ATOM     17  C   UNL     1       1.720   3.766  18.220  0.00  0.00    +0.000 A 
ATOM     18  C   UNL     1       0.912   2.734  18.637  0.00  0.00    +0.000 A 
ATOM     19  O   UNL     1       0.627   2.861  19.957  0.00  0.00    +0.000 OA
ATOM     20  C   UNL     1       1.255   3.983  20.390  0.00  0.00    +0.000 A 
ENDBRANCH  14  16
ENDBRANCH  13  14
ENDBRANCH   3  13
TORSDOF 4
ENDMDL
MODEL 7
REMARK VINA RESULT:      -6.7      2.299      3.423
REMARK  Name = 
REMARK  4 active torsions:
REMARK  status: ('A' for Active; 'I' for Inactive)
REMARK    1  A    between atoms: C_2  and  C_12
REMARK    2  A    between atoms: N_3  and  O_4
REMARK    3  A    between atoms: O_4  and  C_5
REMARK    4  A    between atoms: C_5  and  C_7
REMARK                            x       y       z     vdW  Elec       q    Type
REMARK                         _______ _______ _______ _____ _____    ______ ____
ROOT
ATOM      1  N   UNL     1       2.923   5.558  20.326  0.00  0.00    +0.000 NA
ATOM      2  C   UNL     1       2.915   6.252  19.228  0.00  0.00    +0.000 C 
ATOM      3  N   UNL     1       3.548   5.822  18.083  0.00  0.00    +0.000 N 
ATOM      4  H   UNL     1       3.433   4.690  20.127  0.00  0.00    +0.000 HD
ATOM      5  H   UNL     1       3.778   6.545  17.396  0.00  0.00    +0.000 HD
ENDROOT
BRANCH   2   6
ATOM      6  C   UNL     1       2.187   7.558  19.215  0.00  0.00    +0.000 A 
ATOM      7  C   UNL     1       2.098   8.291  18.023  0.00  0.00    +0.000 A 
ATOM      8  C   UNL     1       1.419   9.511  17.997  0.00  0.00    +0.000 A 
ATOM      9  C   UNL     1       0.838  10.004  19.165  0.00  0.00    +0.000 A 
ATOM     10 BR   UNL     1      -0.069  11.662  19.137  0.00  0.00    +0.000 Br
ATOM     11  C   UNL     1       0.931   9.288  20.358  0.00  0.00    +0.000 A 
ATOM     12  C   UNL     1       1.605   8.063  20.385  0.00  0.00    +0.000 A 
ENDBRANCH   2   6
BRANCH   3  13
ATOM     13  O   UNL     1       4.655   4.980  18.345  0.00  0.00    +0.000 OA
BRANCH  13  14
ATOM     14  C   UNL     1       4.767   3.979  17.400  0.00  0.00    +0.000 C 
ATOM     15  O   UNL     1       4.112   2.942  17.453  0.00  0.00    +0.000 OA
BRANCH  14  16
ATOM     16  C   UNL     1       5.716   4.289  16.353  0.00  0.00    +0.000 A 
ATOM     17  C   UNL     1       5.535   4.373  14.942  0.00  0.00    +0.000 A 
ATOM     18  C   UNL     1       6.761   4.696  14.409  0.00  0.00    +0.000 A 
ATOM     19  O   UNL     1       7.686   4.819  15.393  0.00  0.00    +0.000 OA
ATOM     20  C   UNL     1       7.051   4.571  16.566  0.00  0.00    +0.000 A 
ENDBRANCH  14  16
ENDBRANCH  13  14
ENDBRANCH   3  13
TORSDOF 4
ENDMDL
MODEL 8
REMARK VINA RESULT:      -6.7      0.651      1.499
REMARK  Name = 
REMARK  4 active torsions:
REMARK  status: ('A' for Active; 'I' for Inactive)
REMARK    1  A    between atoms: C_2  and  C_12
REMARK    2  A    between atoms: N_3  and  O_4
REMARK    3  A    between atoms: O_4  and  C_5
REMARK    4  A    between atoms: C_5  and  C_7
REMARK                            x       y       z     vdW  Elec       q    Type
REMARK                         _______ _______ _______ _____ _____    ______ ____
ROOT
ATOM      1  N   UNL     1       4.334   2.911  18.286  0.00  0.00    +0.000 NA
ATOM      2  C   UNL     1       4.094   4.068  17.748  0.00  0.00    +0.000 C 
ATOM      3  N   UNL     1       4.492   4.379  16.466  0.00  0.00    +0.000 N 
ATOM      4  H   UNL     1       4.810   2.344  17.575  0.00  0.00    +0.000 HD
ATOM      5  H   UNL     1       4.566   5.376  16.246  0.00  0.00    +0.000 HD
ENDROOT
BRANCH   2   6
ATOM      6  C   UNL     1       3.354   5.089  18.552  0.00  0.00    +0.000 A 
ATOM      7  C   UNL     1       2.760   4.720  19.766  0.00  0.00    +0.000 A 
ATOM      8  C   UNL     1       2.068   5.664  20.527  0.00  0.00    +0.000 A 
ATOM      9  C   UNL     1       1.960   6.976  20.068  0.00  0.00    +0.000 A 
ATOM     10 BR   UNL     1       1.011   8.255  21.087  0.00  0.00    +0.000 Br
ATOM     11  C   UNL     1       2.538   7.352  18.856  0.00  0.00    +0.000 A 
ATOM     12  C   UNL     1       3.237   6.409  18.096  0.00  0.00    +0.000 A 
ENDBRANCH   2   6
BRANCH   3  13
ATOM     13  O   UNL     1       5.645   3.667  16.056  0.00  0.00    +0.000 OA
BRANCH  13  14
ATOM     14  C   UNL     1       6.700   4.518  15.794  0.00  0.00    +0.000 C 
ATOM     15  O   UNL     1       7.174   4.658  14.670  0.00  0.00    +0.000 OA
BRANCH  14  16
ATOM     16  C   UNL     1       7.168   5.221  16.968  0.00  0.00    +0.000 A 
ATOM     17  C   UNL     1       7.632   4.719  18.218  0.00  0.00    +0.000 A 
ATOM     18  C   UNL     1       7.952   5.815  18.985  0.00  0.00    +0.000 A 
ATOM     19  O   UNL     1       7.719   6.959  18.295  0.00  0.00    +0.000 OA
ATOM     20  C   UNL     1       7.244   6.596  17.077  0.00  0.00    +0.000 A 
ENDBRANCH  14  16
ENDBRANCH  13  14
ENDBRANCH   3  13
TORSDOF 4
ENDMDL
MODEL 9
REMARK VINA RESULT:      -6.6      2.978      4.888
REMARK  Name = 
REMARK  4 active torsions:
REMARK  status: ('A' for Active; 'I' for Inactive)
REMARK    1  A    between atoms: C_2  and  C_12
REMARK    2  A    between atoms: N_3  and  O_4
REMARK    3  A    between atoms: O_4  and  C_5
REMARK    4  A    between atoms: C_5  and  C_7
REMARK                            x       y       z     vdW  Elec       q    Type
REMARK                         _______ _______ _______ _____ _____    ______ ____
ROOT
ATOM      1  N   UNL     1       4.841   4.240  17.268  0.00  0.00    +0.000 NA
ATOM      2  C   UNL     1       4.603   4.779  18.425  0.00  0.00    +0.000 C 
ATOM      3  N   UNL     1       5.100   4.252  19.597  0.00  0.00    +0.000 N 
ATOM      4  H   UNL     1       5.453   3.433  17.435  0.00  0.00    +0.000 HD
ATOM      5  H   UNL     1       4.610   4.521  20.455  0.00  0.00    +0.000 HD
ENDROOT
BRANCH   2   6
ATOM      6  C   UNL     1       3.769   6.018  18.477  0.00  0.00    +0.000 A 
ATOM      7  C   UNL     1       2.845   6.190  19.516  0.00  0.00    +0.000 A 
ATOM      8  C   UNL     1       2.060   7.344  19.577  0.00  0.00    +0.000 A 
ATOM      9  C   UNL     1       2.192   8.322  18.591  0.00  0.00    +0.000 A 
ATOM     10 BR   UNL     1       1.122   9.878  18.661  0.00  0.00    +0.000 Br
ATOM     11  C   UNL     1       3.100   8.156  17.546  0.00  0.00    +0.000 A 
ATOM     12  C   UNL     1       3.891   7.004  17.488  0.00  0.00    +0.000 A 
ENDBRANCH   2   6
BRANCH   3  13
ATOM     13  O   UNL     1       5.306   2.853  19.531  0.00  0.00    +0.000 OA
BRANCH  13  14
ATOM     14  C   UNL     1       4.610   2.190  20.522  0.00  0.00    +0.000 C 
ATOM     15  O   UNL     1       5.160   1.469  21.349  0.00  0.00    +0.000 OA
BRANCH  14  16
ATOM     16  C   UNL     1       3.186   2.445  20.485  0.00  0.00    +0.000 A 
ATOM     17  C   UNL     1       2.253   2.304  19.416  0.00  0.00    +0.000 A 
ATOM     18  C   UNL     1       1.029   2.683  19.913  0.00  0.00    +0.000 A 
ATOM     19  O   UNL     1       1.140   3.048  21.215  0.00  0.00    +0.000 OA
ATOM     20  C   UNL     1       2.446   2.904  21.556  0.00  0.00    +0.000 A 
ENDBRANCH  14  16
ENDBRANCH  13  14
ENDBRANCH   3  13
TORSDOF 4
ENDMDL
