MODEL 1
REMARK VINA RESULT:      -6.2      0.000      0.000
REMARK  Name = 
REMARK  7 active torsions:
REMARK  status: ('A' for Active; 'I' for Inactive)
REMARK    1  A    between atoms: C_1  and  O_2
REMARK    2  A    between atoms: O_2  and  C_3
REMARK    3  A    between atoms: C_3  and  C_4
REMARK    4  A    between atoms: C_4  and  N_5
REMARK    5  A    between atoms: C_8  and  O_9
REMARK    6  A    between atoms: C_10  and  C_11
REMARK    7  A    between atoms: C_11  and  C_12
REMARK                            x       y       z     vdW  Elec       q    Type
REMARK                         _______ _______ _______ _____ _____    ______ ____
ROOT
ATOM      1  N   UNL     1       4.412   5.980  16.890  0.00  0.00    +0.000 NA
ATOM      2  C   UNL     1       5.292   5.893  15.711  0.00  0.00    +0.000 C 
ATOM      3  C   UNL     1       6.614   5.278  16.146  0.00  0.00    +0.000 C 
ATOM      4  C   UNL     1       6.538   5.219  17.660  0.00  0.00    +0.000 C 
ATOM      5  C   UNL     1       5.029   5.117  17.944  0.00  0.00    +0.000 C 
ENDROOT
BRANCH   4   6
ATOM      6  O   UNL     1       7.329   4.166  18.183  0.00  0.00    +0.000 OA
ATOM      7  H   UNL     1       7.884   3.802  17.473  0.00  0.00    +0.000 HD
ENDBRANCH   4   6
BRANCH   1   8
ATOM      8  C   UNL     1       4.247   7.370  17.361  0.00  0.00    +0.000 C 
BRANCH   8   9
ATOM      9  C   UNL     1       2.855   7.700  17.938  0.00  0.00    +0.000 C 
BRANCH   9  11
ATOM     10  C   UNL     1       1.279   9.488  18.112  0.00  0.00    +0.000 C 
ATOM     11  O   UNL     1       2.276   8.856  17.318  0.00  0.00    +0.000 OA
ENDBRANCH   9  11
ENDBRANCH   8   9
ENDBRANCH   1   8
BRANCH   5  12
ATOM     12  C   UNL     1       4.514   3.656  17.918  0.00  0.00    +0.000 C 
BRANCH  12  13
ATOM     13  C   UNL     1       3.170   3.475  18.585  0.00  0.00    +0.000 A 
ATOM     14  C   UNL     1       2.832   4.242  19.706  0.00  0.00    +0.000 A 
ATOM     15  C   UNL     1       1.612   4.049  20.355  0.00  0.00    +0.000 A 
ATOM     16  C   UNL     1       0.718   3.088  19.888  0.00  0.00    +0.000 A 
ATOM     17  C   UNL     1       1.034   2.333  18.761  0.00  0.00    +0.000 A 
ATOM     18  C   UNL     1       2.253   2.526  18.108  0.00  0.00    +0.000 A 
ENDBRANCH  12  13
ENDBRANCH   5  12
TORSDOF 6
ENDMDL
MODEL 2
REMARK VINA RESULT:      -6.1      2.018      4.663
REMARK  Name = 
REMARK  7 active torsions:
REMARK  status: ('A' for Active; 'I' for Inactive)
REMARK    1  A    between atoms: C_1  and  O_2
REMARK    2  A    between atoms: O_2  and  C_3
REMARK    3  A    between atoms: C_3  and  C_4
REMARK    4  A    between atoms: C_4  and  N_5
REMARK    5  A    between atoms: C_8  and  O_9
REMARK    6  A    between atoms: C_10  and  C_11
REMARK    7  A    between atoms: C_11  and  C_12
REMARK                            x       y       z     vdW  Elec       q    Type
REMARK                         _______ _______ _______ _____ _____    ______ ____
ROOT
ATOM      1  N   UNL     1       3.115   6.230  19.153  0.00  0.00    +0.000 NA
ATOM      2  C   UNL     1       2.553   5.316  20.164  0.00  0.00    +0.000 C 
ATOM      3  C   UNL     1       1.852   4.176  19.440  0.00  0.00    +0.000 C 
ATOM      4  C   UNL     1       1.844   4.587  17.980  0.00  0.00    +0.000 C 
ATOM      5  C   UNL     1       3.080   5.496  17.852  0.00  0.00    +0.000 C 
ENDROOT
BRANCH   4   6
ATOM      6  O   UNL     1       1.823   3.462  17.119  0.00  0.00    +0.000 OA
ATOM      7  H   UNL     1       1.129   3.585  16.451  0.00  0.00    +0.000 HD
ENDBRANCH   4   6
BRANCH   1   8
ATOM      8  C   UNL     1       2.366   7.502  19.074  0.00  0.00    +0.000 C 
BRANCH   8   9
ATOM      9  C   UNL     1       2.566   8.292  17.765  0.00  0.00    +0.000 C 
BRANCH   9  11
ATOM     10  C   UNL     1       0.766   9.778  18.280  0.00  0.00    +0.000 C 
ATOM     11  O   UNL     1       2.126   9.652  17.885  0.00  0.00    +0.000 OA
ENDBRANCH   9  11
ENDBRANCH   8   9
ENDBRANCH   1   8
BRANCH   5  12
ATOM     12  C   UNL     1       4.377   4.700  17.561  0.00  0.00    +0.000 C 
BRANCH  12  13
ATOM     13  C   UNL     1       5.641   5.487  17.820  0.00  0.00    +0.000 A 
ATOM     14  C   UNL     1       6.511   5.103  18.849  0.00  0.00    +0.000 A 
ATOM     15  C   UNL     1       7.656   5.851  19.124  0.00  0.00    +0.000 A 
ATOM     16  C   UNL     1       7.944   6.988  18.374  0.00  0.00    +0.000 A 
ATOM     17  C   UNL     1       7.097   7.369  17.335  0.00  0.00    +0.000 A 
ATOM     18  C   UNL     1       5.952   6.621  17.055  0.00  0.00    +0.000 A 
ENDBRANCH  12  13
ENDBRANCH   5  12
TORSDOF 6
ENDMDL
MODEL 3
REMARK VINA RESULT:      -6.1      1.144      1.294
REMARK  Name = 
REMARK  7 active torsions:
REMARK  status: ('A' for Active; 'I' for Inactive)
REMARK    1  A    between atoms: C_1  and  O_2
REMARK    2  A    between atoms: O_2  and  C_3
REMARK    3  A    between atoms: C_3  and  C_4
REMARK    4  A    between atoms: C_4  and  N_5
REMARK    5  A    between atoms: C_8  and  O_9
REMARK    6  A    between atoms: C_10  and  C_11
REMARK    7  A    between atoms: C_11  and  C_12
REMARK                            x       y       z     vdW  Elec       q    Type
REMARK                         _______ _______ _______ _____ _____    ______ ____
ROOT
ATOM      1  N   UNL     1       5.097   5.122  17.276  0.00  0.00    +0.000 NA
ATOM      2  C   UNL     1       6.364   4.680  16.666  0.00  0.00    +0.000 C 
ATOM      3  C   UNL     1       7.465   4.799  17.710  0.00  0.00    +0.000 C 
ATOM      4  C   UNL     1       6.822   5.534  18.871  0.00  0.00    +0.000 C 
ATOM      5  C   UNL     1       5.331   5.171  18.751  0.00  0.00    +0.000 C 
ENDROOT
BRANCH   4   6
ATOM      6  O   UNL     1       7.434   5.200  20.104  0.00  0.00    +0.000 OA
ATOM      7  H   UNL     1       7.453   5.987  20.674  0.00  0.00    +0.000 HD
ENDBRANCH   4   6
BRANCH   1   8
ATOM      8  C   UNL     1       4.657   6.434  16.757  0.00  0.00    +0.000 C 
BRANCH   8   9
ATOM      9  C   UNL     1       4.010   7.362  17.805  0.00  0.00    +0.000 C 
BRANCH   9  11
ATOM     10  C   UNL     1       1.931   8.541  17.835  0.00  0.00    +0.000 C 
ATOM     11  O   UNL     1       2.578   7.276  17.790  0.00  0.00    +0.000 OA
ENDBRANCH   9  11
ENDBRANCH   8   9
ENDBRANCH   1   8
BRANCH   5  12
ATOM     12  C   UNL     1       4.982   3.844  19.472  0.00  0.00    +0.000 C 
BRANCH  12  13
ATOM     13  C   UNL     1       3.496   3.583  19.573  0.00  0.00    +0.000 A 
ATOM     14  C   UNL     1       2.675   4.463  20.289  0.00  0.00    +0.000 A 
ATOM     15  C   UNL     1       1.311   4.205  20.426  0.00  0.00    +0.000 A 
ATOM     16  C   UNL     1       0.754   3.066  19.848  0.00  0.00    +0.000 A 
ATOM     17  C   UNL     1       1.558   2.195  19.116  0.00  0.00    +0.000 A 
ATOM     18  C   UNL     1       2.923   2.452  18.974  0.00  0.00    +0.000 A 
ENDBRANCH  12  13
ENDBRANCH   5  12
TORSDOF 6
ENDMDL
MODEL 4
REMARK VINA RESULT:      -6.1      1.999      4.524
REMARK  Name = 
REMARK  7 active torsions:
REMARK  status: ('A' for Active; 'I' for Inactive)
REMARK    1  A    between atoms: C_1  and  O_2
REMARK    2  A    between atoms: O_2  and  C_3
REMARK    3  A    between atoms: C_3  and  C_4
REMARK    4  A    between atoms: C_4  and  N_5
REMARK    5  A    between atoms: C_8  and  O_9
REMARK    6  A    between atoms: C_10  and  C_11
REMARK    7  A    between atoms: C_11  and  C_12
REMARK                            x       y       z     vdW  Elec       q    Type
REMARK                         _______ _______ _______ _____ _____    ______ ____
ROOT
ATOM      1  N   UNL     1       2.803   5.956  19.657  0.00  0.00    +0.000 NA
ATOM      2  C   UNL     1       1.925   5.316  20.653  0.00  0.00    +0.000 C 
ATOM      3  C   UNL     1       1.190   4.168  19.974  0.00  0.00    +0.000 C 
ATOM      4  C   UNL     1       1.516   4.315  18.500  0.00  0.00    +0.000 C 
ATOM      5  C   UNL     1       2.886   5.017  18.498  0.00  0.00    +0.000 C 
ENDROOT
BRANCH   4   6
ATOM      6  O   UNL     1       1.468   3.069  17.827  0.00  0.00    +0.000 OA
ATOM      7  H   UNL     1       2.371   2.726  17.728  0.00  0.00    +0.000 HD
ENDBRANCH   4   6
BRANCH   1   8
ATOM      8  C   UNL     1       2.300   7.282  19.241  0.00  0.00    +0.000 C 
BRANCH   8   9
ATOM      9  C   UNL     1       2.774   7.748  17.849  0.00  0.00    +0.000 C 
BRANCH   9  11
ATOM     10  C   UNL     1       1.091   9.435  18.034  0.00  0.00    +0.000 C 
ATOM     11  O   UNL     1       2.398   9.105  17.580  0.00  0.00    +0.000 OA
ENDBRANCH   9  11
ENDBRANCH   8   9
ENDBRANCH   1   8
BRANCH   5  12
ATOM     12  C   UNL     1       4.066   4.018  18.601  0.00  0.00    +0.000 C 
BRANCH  12  13
ATOM     13  C   UNL     1       5.115   4.207  17.528  0.00  0.00    +0.000 A 
ATOM     14  C   UNL     1       6.433   4.522  17.880  0.00  0.00    +0.000 A 
ATOM     15  C   UNL     1       7.396   4.743  16.895  0.00  0.00    +0.000 A 
ATOM     16  C   UNL     1       7.051   4.650  15.549  0.00  0.00    +0.000 A 
ATOM     17  C   UNL     1       5.747   4.317  15.186  0.00  0.00    +0.000 A 
ATOM     18  C   UNL     1       4.782   4.093  16.170  0.00  0.00    +0.000 A 
ENDBRANCH  12  13
ENDBRANCH   5  12
TORSDOF 6
ENDMDL
MODEL 5
REMARK VINA RESULT:      -6.1      0.614      1.316
REMARK  Name = 
REMARK  7 active torsions:
REMARK  status: ('A' for Active; 'I' for Inactive)
REMARK    1  A    between atoms: C_1  and  O_2
REMARK    2  A    between atoms: O_2  and  C_3
REMARK    3  A    between atoms: C_3  and  C_4
REMARK    4  A    between atoms: C_4  and  N_5
REMARK    5  A    between atoms: C_8  and  O_9
REMARK    6  A    between atoms: C_10  and  C_11
REMARK    7  A    between atoms: C_11  and  C_12
REMARK                            x       y       z     vdW  Elec       q    Type
REMARK                         _______ _______ _______ _____ _____    ______ ____
ROOT
ATOM      1  N   UNL     1       4.331   5.474  17.284  0.00  0.00    +0.000 NA
ATOM      2  C   UNL     1       4.967   5.044  16.025  0.00  0.00    +0.000 C 
ATOM      3  C   UNL     1       6.405   4.648  16.326  0.00  0.00    +0.000 C 
ATOM      4  C   UNL     1       6.634   5.077  17.763  0.00  0.00    +0.000 C 
ATOM      5  C   UNL     1       5.229   5.019  18.389  0.00  0.00    +0.000 C 
ENDROOT
BRANCH   4   6
ATOM      6  O   UNL     1       7.617   4.278  18.397  0.00  0.00    +0.000 OA
ATOM      7  H   UNL     1       8.499   4.594  18.139  0.00  0.00    +0.000 HD
ENDBRANCH   4   6
BRANCH   1   8
ATOM      8  C   UNL     1       4.120   6.936  17.330  0.00  0.00    +0.000 C 
BRANCH   8   9
ATOM      9  C   UNL     1       2.985   7.398  18.267  0.00  0.00    +0.000 C 
BRANCH   9  11
ATOM     10  C   UNL     1       1.919   9.503  17.881  0.00  0.00    +0.000 C 
ATOM     11  O   UNL     1       1.964   8.117  17.562  0.00  0.00    +0.000 OA
ENDBRANCH   9  11
ENDBRANCH   8   9
ENDBRANCH   1   8
BRANCH   5  12
ATOM     12  C   UNL     1       4.874   3.610  18.926  0.00  0.00    +0.000 C 
BRANCH  12  13
ATOM     13  C   UNL     1       3.415   3.449  19.286  0.00  0.00    +0.000 A 
ATOM     14  C   UNL     1       2.617   2.529  18.594  0.00  0.00    +0.000 A 
ATOM     15  C   UNL     1       1.259   2.406  18.889  0.00  0.00    +0.000 A 
ATOM     16  C   UNL     1       0.685   3.201  19.879  0.00  0.00    +0.000 A 
ATOM     17  C   UNL     1       1.473   4.106  20.588  0.00  0.00    +0.000 A 
ATOM     18  C   UNL     1       2.834   4.228  20.297  0.00  0.00    +0.000 A 
ENDBRANCH  12  13
ENDBRANCH   5  12
TORSDOF 6
ENDMDL
MODEL 6
REMARK VINA RESULT:      -6.0      2.394      3.266
REMARK  Name = 
REMARK  7 active torsions:
REMARK  status: ('A' for Active; 'I' for Inactive)
REMARK    1  A    between atoms: C_1  and  O_2
REMARK    2  A    between atoms: O_2  and  C_3
REMARK    3  A    between atoms: C_3  and  C_4
REMARK    4  A    between atoms: C_4  and  N_5
REMARK    5  A    between atoms: C_8  and  O_9
REMARK    6  A    between atoms: C_10  and  C_11
REMARK    7  A    between atoms: C_11  and  C_12
REMARK                            x       y       z     vdW  Elec       q    Type
REMARK                         _______ _______ _______ _____ _____    ______ ____
ROOT
ATOM      1  N   UNL     1       5.804   6.293  16.965  0.00  0.00    +0.000 NA
ATOM      2  C   UNL     1       6.046   5.760  15.612  0.00  0.00    +0.000 C 
ATOM      3  C   UNL     1       5.726   4.272  15.620  0.00  0.00    +0.000 C 
ATOM      4  C   UNL     1       5.502   3.930  17.081  0.00  0.00    +0.000 C 
ATOM      5  C   UNL     1       5.015   5.255  17.695  0.00  0.00    +0.000 C 
ENDROOT
BRANCH   4   6
ATOM      6  O   UNL     1       4.623   2.829  17.231  0.00  0.00    +0.000 OA
ATOM      7  H   UNL     1       4.850   2.349  18.045  0.00  0.00    +0.000 HD
ENDBRANCH   4   6
BRANCH   1   8
ATOM      8  C   UNL     1       7.062   6.610  17.673  0.00  0.00    +0.000 C 
BRANCH   8   9
ATOM      9  C   UNL     1       7.569   8.053  17.479  0.00  0.00    +0.000 C 
BRANCH   9  11
ATOM     10  C   UNL     1       8.795   9.830  18.508  0.00  0.00    +0.000 C 
ATOM     11  O   UNL     1       8.501   8.438  18.500  0.00  0.00    +0.000 OA
ENDBRANCH   9  11
ENDBRANCH   8   9
ENDBRANCH   1   8
BRANCH   5  12
ATOM     12  C   UNL     1       3.483   5.444  17.563  0.00  0.00    +0.000 C 
BRANCH  12  13
ATOM     13  C   UNL     1       2.696   4.817  18.691  0.00  0.00    +0.000 A 
ATOM     14  C   UNL     1       1.599   3.993  18.411  0.00  0.00    +0.000 A 
ATOM     15  C   UNL     1       0.840   3.447  19.446  0.00  0.00    +0.000 A 
ATOM     16  C   UNL     1       1.171   3.718  20.772  0.00  0.00    +0.000 A 
ATOM     17  C   UNL     1       2.273   4.519  21.064  0.00  0.00    +0.000 A 
ATOM     18  C   UNL     1       3.036   5.065  20.030  0.00  0.00    +0.000 A 
ENDBRANCH  12  13
ENDBRANCH   5  12
TORSDOF 6
ENDMDL
MODEL 7
REMARK VINA RESULT:      -6.0      2.044      4.698
REMARK  Name = 
REMARK  7 active torsions:
REMARK  status: ('A' for Active; 'I' for Inactive)
REMARK    1  A    between atoms: C_1  and  O_2
REMARK    2  A    between atoms: O_2  and  C_3
REMARK    3  A    between atoms: C_3  and  C_4
REMARK    4  A    between atoms: C_4  and  N_5
REMARK    5  A    between atoms: C_8  and  O_9
REMARK    6  A    between atoms: C_10  and  C_11
REMARK    7  A    between atoms: C_11  and  C_12
REMARK                            x       y       z     vdW  Elec       q    Type
REMARK                         _______ _______ _______ _____ _____    ______ ____
ROOT
ATOM      1  N   UNL     1       2.898   5.499  19.803  0.00  0.00    +0.000 NA
ATOM      2  C   UNL     1       2.190   4.846  20.919  0.00  0.00    +0.000 C 
ATOM      3  C   UNL     1       1.281   3.769  20.345  0.00  0.00    +0.000 C 
ATOM      4  C   UNL     1       1.330   3.978  18.843  0.00  0.00    +0.000 C 
ATOM      5  C   UNL     1       2.710   4.619  18.610  0.00  0.00    +0.000 C 
ENDROOT
BRANCH   4   6
ATOM      6  O   UNL     1       1.091   2.773  18.139  0.00  0.00    +0.000 OA
ATOM      7  H   UNL     1       1.358   2.886  17.212  0.00  0.00    +0.000 HD
ENDBRANCH   4   6
BRANCH   1   8
ATOM      8  C   UNL     1       2.395   6.865  19.548  0.00  0.00    +0.000 C 
BRANCH   8   9
ATOM      9  C   UNL     1       2.647   7.393  18.120  0.00  0.00    +0.000 C 
BRANCH   9  11
ATOM     10  C   UNL     1       1.329   9.378  17.927  0.00  0.00    +0.000 C 
ATOM     11  O   UNL     1       2.633   8.826  18.066  0.00  0.00    +0.000 OA
ENDBRANCH   9  11
ENDBRANCH   8   9
ENDBRANCH   1   8
BRANCH   5  12
ATOM     12  C   UNL     1       3.835   3.566  18.443  0.00  0.00    +0.000 C 
BRANCH  12  13
ATOM     13  C   UNL     1       4.984   4.038  17.582  0.00  0.00    +0.000 A 
ATOM     14  C   UNL     1       4.880   3.998  16.186  0.00  0.00    +0.000 A 
ATOM     15  C   UNL     1       5.952   4.389  15.384  0.00  0.00    +0.000 A 
ATOM     16  C   UNL     1       7.139   4.825  15.969  0.00  0.00    +0.000 A 
ATOM     17  C   UNL     1       7.247   4.889  17.357  0.00  0.00    +0.000 A 
ATOM     18  C   UNL     1       6.174   4.501  18.162  0.00  0.00    +0.000 A 
ENDBRANCH  12  13
ENDBRANCH   5  12
TORSDOF 6
ENDMDL
MODEL 8
REMARK VINA RESULT:      -6.0      2.582      5.625
REMARK  Name = 
REMARK  7 active torsions:
REMARK  status: ('A' for Active; 'I' for Inactive)
REMARK    1  A    between atoms: C_1  and  O_2
REMARK    2  A    between atoms: O_2  and  C_3
REMARK    3  A    between atoms: C_3  and  C_4
REMARK    4  A    between atoms: C_4  and  N_5
REMARK    5  A    between atoms: C_8  and  O_9
REMARK    6  A    between atoms: C_10  and  C_11
REMARK    7  A    between atoms: C_11  and  C_12
REMARK                            x       y       z     vdW  Elec       q    Type
REMARK                         _______ _______ _______ _____ _____    ______ ____
ROOT
ATOM      1  N   UNL     1       4.181   4.916  17.072  0.00  0.00    +0.000 NA
ATOM      2  C   UNL     1       4.271   5.741  18.291  0.00  0.00    +0.000 C 
ATOM      3  C   UNL     1       5.614   5.472  18.953  0.00  0.00    +0.000 C 
ATOM      4  C   UNL     1       6.197   4.299  18.188  0.00  0.00    +0.000 C 
ATOM      5  C   UNL     1       5.564   4.425  16.791  0.00  0.00    +0.000 C 
ENDROOT
BRANCH   4   6
ATOM      6  O   UNL     1       7.613   4.307  18.218  0.00  0.00    +0.000 OA
ATOM      7  H   UNL     1       7.946   3.515  17.765  0.00  0.00    +0.000 HD
ENDBRANCH   4   6
BRANCH   1   8
ATOM      8  C   UNL     1       3.233   3.794  17.228  0.00  0.00    +0.000 C 
BRANCH   8   9
ATOM      9  C   UNL     1       1.820   4.199  17.697  0.00  0.00    +0.000 C 
BRANCH   9  11
ATOM     10  C   UNL     1       0.793   2.391  18.876  0.00  0.00    +0.000 C 
ATOM     11  O   UNL     1       1.491   3.628  18.970  0.00  0.00    +0.000 OA
ENDBRANCH   9  11
ENDBRANCH   8   9
ENDBRANCH   1   8
BRANCH   5  12
ATOM     12  C   UNL     1       6.369   5.362  15.854  0.00  0.00    +0.000 C 
BRANCH  12  13
ATOM     13  C   UNL     1       6.508   4.835  14.445  0.00  0.00    +0.000 A 
ATOM     14  C   UNL     1       5.608   3.879  13.958  0.00  0.00    +0.000 A 
ATOM     15  C   UNL     1       5.757   3.353  12.675  0.00  0.00    +0.000 A 
ATOM     16  C   UNL     1       6.807   3.780  11.864  0.00  0.00    +0.000 A 
ATOM     17  C   UNL     1       7.697   4.745  12.329  0.00  0.00    +0.000 A 
ATOM     18  C   UNL     1       7.549   5.275  13.613  0.00  0.00    +0.000 A 
ENDBRANCH  12  13
ENDBRANCH   5  12
TORSDOF 6
ENDMDL
MODEL 9
REMARK VINA RESULT:      -6.0      2.464      5.675
REMARK  Name = 
REMARK  7 active torsions:
REMARK  status: ('A' for Active; 'I' for Inactive)
REMARK    1  A    between atoms: C_1  and  O_2
REMARK    2  A    between atoms: O_2  and  C_3
REMARK    3  A    between atoms: C_3  and  C_4
REMARK    4  A    between atoms: C_4  and  N_5
REMARK    5  A    between atoms: C_8  and  O_9
REMARK    6  A    between atoms: C_10  and  C_11
REMARK    7  A    between atoms: C_11  and  C_12
REMARK                            x       y       z     vdW  Elec       q    Type
REMARK                         _______ _______ _______ _____ _____    ______ ____
ROOT
ATOM      1  N   UNL     1       3.464   3.233  18.115  0.00  0.00    +0.000 NA
ATOM      2  C   UNL     1       2.145   3.225  17.456  0.00  0.00    +0.000 C 
ATOM      3  C   UNL     1       1.515   4.600  17.631  0.00  0.00    +0.000 C 
ATOM      4  C   UNL     1       2.427   5.325  18.603  0.00  0.00    +0.000 C 
ATOM      5  C   UNL     1       3.799   4.666  18.375  0.00  0.00    +0.000 C 
ENDROOT
BRANCH   4   6
ATOM      6  O   UNL     1       2.386   6.728  18.411  0.00  0.00    +0.000 OA
ATOM      7  H   UNL     1       3.204   7.121  18.758  0.00  0.00    +0.000 HD
ENDBRANCH   4   6
BRANCH   1   8
ATOM      8  C   UNL     1       3.467   2.443  19.363  0.00  0.00    +0.000 C 
BRANCH   8   9
ATOM      9  C   UNL     1       2.113   1.802  19.729  0.00  0.00    +0.000 C 
BRANCH   9  11
ATOM     10  C   UNL     1       2.040   3.096  21.738  0.00  0.00    +0.000 C 
ATOM     11  O   UNL     1       1.333   2.645  20.588  0.00  0.00    +0.000 OA
ENDBRANCH   9  11
ENDBRANCH   8   9
ENDBRANCH   1   8
BRANCH   5  12
ATOM     12  C   UNL     1       4.595   5.329  17.223  0.00  0.00    +0.000 C 
BRANCH  12  13
ATOM     13  C   UNL     1       5.895   5.957  17.668  0.00  0.00    +0.000 A 
ATOM     14  C   UNL     1       6.651   5.364  18.686  0.00  0.00    +0.000 A 
ATOM     15  C   UNL     1       7.829   5.962  19.134  0.00  0.00    +0.000 A 
ATOM     16  C   UNL     1       8.264   7.158  18.568  0.00  0.00    +0.000 A 
ATOM     17  C   UNL     1       7.531   7.747  17.540  0.00  0.00    +0.000 A 
ATOM     18  C   UNL     1       6.353   7.149  17.087  0.00  0.00    +0.000 A 
ENDBRANCH  12  13
ENDBRANCH   5  12
TORSDOF 6
ENDMDL
