MODEL 1
REMARK VINA RESULT:      -7.7      0.000      0.000
REMARK  Name = 
REMARK  6 active torsions:
REMARK  status: ('A' for Active; 'I' for Inactive)
REMARK    1  A    between atoms: C_2  and  C_3
REMARK    2  A    between atoms: C_3  and  O_4
REMARK    3  A    between atoms: O_4  and  C_5
REMARK    4  A    between atoms: C_5  and  C_7
REMARK    5  A    between atoms: C_11  and  C_13
REMARK    6  A    between atoms: N_22  and  C_23
REMARK                            x       y       z     vdW  Elec       q    Type
REMARK                         _______ _______ _______ _____ _____    ______ ____
ROOT
ATOM      1  C   UNL     1       2.747   3.118  19.881  0.00  0.00    +0.000 C 
ATOM      2  O   UNL     1       2.755   2.535  20.965  0.00  0.00    +0.000 OA
ENDROOT
BRANCH   1   3
ATOM      3  C   UNL     1       1.557   3.928  19.386  0.00  0.00    +0.000 C 
ATOM      4  C   UNL     1       2.038   4.931  18.328  0.00  0.00    +0.000 C 
ATOM      5  C   UNL     1       2.892   6.004  18.993  0.00  0.00    +0.000 C 
ATOM      6  N   UNL     1       2.068   6.740  19.949  0.00  0.00    +0.000 N 
ATOM      7  C   UNL     1       1.817   8.085  19.654  0.00  0.00    +0.000 C 
ATOM      8  O   UNL     1       2.251   8.610  18.625  0.00  0.00    +0.000 OA
ATOM      9  C   UNL     1       1.479   5.919  21.012  0.00  0.00    +0.000 C 
ATOM     10  C   UNL     1       0.777   4.665  20.478  0.00  0.00    +0.000 C 
BRANCH   7  11
ATOM     11  C   UNL     1       0.990   8.957  20.527  0.00  0.00    +0.000 A 
ATOM     12  C   UNL     1       0.953   8.854  21.920  0.00  0.00    +0.000 A 
ATOM     13  C   UNL     1       0.136   9.708  22.667  0.00  0.00    +0.000 A 
ATOM     14  C   UNL     1      -0.585  10.718  22.030  0.00  0.00    +0.000 A 
ATOM     15 CL   UNL     1      -1.572  11.778  22.958  0.00  0.00    +0.000 Cl
ATOM     16  C   UNL     1      -0.497  10.884  20.652  0.00  0.00    +0.000 A 
ATOM     17  C   UNL     1       0.284  10.002  19.903  0.00  0.00    +0.000 A 
ENDBRANCH   7  11
ENDBRANCH   1   3
BRANCH   1  18
ATOM     18  O   UNL     1       3.820   3.175  19.059  0.00  0.00    +0.000 OA
BRANCH  18  19
ATOM     19  C   UNL     1       5.097   3.269  19.709  0.00  0.00    +0.000 C 
BRANCH  19  21
ATOM     20  O   UNL     1       6.723   5.076  19.788  0.00  0.00    +0.000 OA
ATOM     21  C   UNL     1       6.060   4.304  19.103  0.00  0.00    +0.000 C 
ATOM     22  N   UNL     1       6.066   4.332  17.723  0.00  0.00    +0.000 N 
ATOM     23  H   UNL     1       5.263   3.867  17.293  0.00  0.00    +0.000 HD
BRANCH  22  24
ATOM     24  C   UNL     1       6.725   5.372  16.944  0.00  0.00    +0.000 C 
ATOM     25  C   UNL     1       5.659   6.234  16.250  0.00  0.00    +0.000 C 
ATOM     26  C   UNL     1       5.168   5.412  15.068  0.00  0.00    +0.000 C 
ATOM     27  S   UNL     1       6.661   4.746  14.361  0.00  0.00    +0.000 S 
ATOM     28  O   UNL     1       7.165   5.707  13.401  0.00  0.00    +0.000 OA
ATOM     29  O   UNL     1       6.430   3.359  14.015  0.00  0.00    +0.000 OA
ATOM     30  C   UNL     1       7.654   4.845  15.842  0.00  0.00    +0.000 C 
ENDBRANCH  22  24
ENDBRANCH  19  21
ENDBRANCH  18  19
ENDBRANCH   1  18
TORSDOF 6
ENDMDL
MODEL 2
REMARK VINA RESULT:      -7.5      3.181      5.935
REMARK  Name = 
REMARK  6 active torsions:
REMARK  status: ('A' for Active; 'I' for Inactive)
REMARK    1  A    between atoms: C_2  and  C_3
REMARK    2  A    between atoms: C_3  and  O_4
REMARK    3  A    between atoms: O_4  and  C_5
REMARK    4  A    between atoms: C_5  and  C_7
REMARK    5  A    between atoms: C_11  and  C_13
REMARK    6  A    between atoms: N_22  and  C_23
REMARK                            x       y       z     vdW  Elec       q    Type
REMARK                         _______ _______ _______ _____ _____    ______ ____
ROOT
ATOM      1  C   UNL     1       0.532   9.656  18.100  0.00  0.00    +0.000 C 
ATOM      2  O   UNL     1      -0.524   9.881  17.509  0.00  0.00    +0.000 OA
ENDROOT
BRANCH   1   3
ATOM      3  C   UNL     1       1.107  10.592  19.153  0.00  0.00    +0.000 C 
ATOM      4  C   UNL     1       1.280   9.822  20.469  0.00  0.00    +0.000 C 
ATOM      5  C   UNL     1      -0.090   9.496  21.054  0.00  0.00    +0.000 C 
ATOM      6  N   UNL     1      -0.780  10.745  21.367  0.00  0.00    +0.000 N 
ATOM      7  C   UNL     1      -1.018  11.006  22.721  0.00  0.00    +0.000 C 
ATOM      8  O   UNL     1      -0.640  10.230  23.603  0.00  0.00    +0.000 OA
ATOM      9  C   UNL     1      -0.987  11.637  20.221  0.00  0.00    +0.000 C 
ATOM     10  C   UNL     1       0.290  11.863  19.403  0.00  0.00    +0.000 C 
BRANCH   7  11
ATOM     11  C   UNL     1      -1.702  12.238  23.193  0.00  0.00    +0.000 A 
ATOM     12  C   UNL     1      -1.086  13.489  23.270  0.00  0.00    +0.000 A 
ATOM     13  C   UNL     1      -1.800  14.597  23.739  0.00  0.00    +0.000 A 
ATOM     14  C   UNL     1      -3.153  14.472  24.056  0.00  0.00    +0.000 A 
ATOM     15 CL   UNL     1      -4.030  15.843  24.611  0.00  0.00    +0.000 Cl
ATOM     16  C   UNL     1      -3.800  13.250  23.909  0.00  0.00    +0.000 A 
ATOM     17  C   UNL     1      -3.075  12.135  23.484  0.00  0.00    +0.000 A 
ENDBRANCH   7  11
ENDBRANCH   1   3
BRANCH   1  18
ATOM     18  O   UNL     1       1.245   8.517  17.942  0.00  0.00    +0.000 OA
BRANCH  18  19
ATOM     19  C   UNL     1       2.637   8.690  17.637  0.00  0.00    +0.000 C 
BRANCH  19  21
ATOM     20  O   UNL     1       4.503   7.243  17.053  0.00  0.00    +0.000 OA
ATOM     21  C   UNL     1       3.484   7.409  17.717  0.00  0.00    +0.000 C 
ATOM     22  N   UNL     1       2.967   6.439  18.552  0.00  0.00    +0.000 N 
ATOM     23  H   UNL     1       1.984   6.580  18.796  0.00  0.00    +0.000 HD
BRANCH  22  24
ATOM     24  C   UNL     1       3.476   5.075  18.609  0.00  0.00    +0.000 C 
ATOM     25  C   UNL     1       2.822   4.246  17.493  0.00  0.00    +0.000 C 
ATOM     26  C   UNL     1       1.416   3.931  17.982  0.00  0.00    +0.000 C 
ATOM     27  S   UNL     1       1.649   3.473  19.687  0.00  0.00    +0.000 S 
ATOM     28  O   UNL     1       1.915   2.048  19.731  0.00  0.00    +0.000 OA
ATOM     29  O   UNL     1       0.603   4.087  20.478  0.00  0.00    +0.000 OA
ATOM     30  C   UNL     1       3.188   4.347  19.929  0.00  0.00    +0.000 C 
ENDBRANCH  22  24
ENDBRANCH  19  21
ENDBRANCH  18  19
ENDBRANCH   1  18
TORSDOF 6
ENDMDL
MODEL 3
REMARK VINA RESULT:      -7.3      2.828      4.880
REMARK  Name = 
REMARK  6 active torsions:
REMARK  status: ('A' for Active; 'I' for Inactive)
REMARK    1  A    between atoms: C_2  and  C_3
REMARK    2  A    between atoms: C_3  and  O_4
REMARK    3  A    between atoms: O_4  and  C_5
REMARK    4  A    between atoms: C_5  and  C_7
REMARK    5  A    between atoms: C_11  and  C_13
REMARK    6  A    between atoms: N_22  and  C_23
REMARK                            x       y       z     vdW  Elec       q    Type
REMARK                         _______ _______ _______ _____ _____    ______ ____
ROOT
ATOM      1  C   UNL     1       1.841   9.142  18.283  0.00  0.00    +0.000 C 
ATOM      2  O   UNL     1       2.966   9.080  17.786  0.00  0.00    +0.000 OA
ENDROOT
BRANCH   1   3
ATOM      3  C   UNL     1       0.896  10.311  18.047  0.00  0.00    +0.000 C 
ATOM      4  C   UNL     1       1.521  11.588  18.627  0.00  0.00    +0.000 C 
ATOM      5  C   UNL     1       1.539  11.502  20.149  0.00  0.00    +0.000 C 
ATOM      6  N   UNL     1       0.163  11.430  20.635  0.00  0.00    +0.000 N 
ATOM      7  C   UNL     1      -0.295  12.523  21.380  0.00  0.00    +0.000 C 
ATOM      8  O   UNL     1       0.422  13.504  21.592  0.00  0.00    +0.000 OA
ATOM      9  C   UNL     1      -0.607  10.287  20.134  0.00  0.00    +0.000 C 
ATOM     10  C   UNL     1      -0.515  10.126  18.612  0.00  0.00    +0.000 C 
BRANCH   7  11
ATOM     11  C   UNL     1      -1.672  12.596  21.933  0.00  0.00    +0.000 A 
ATOM     12  C   UNL     1      -2.018  12.177  23.220  0.00  0.00    +0.000 A 
ATOM     13  C   UNL     1      -3.344  12.270  23.658  0.00  0.00    +0.000 A 
ATOM     14  C   UNL     1      -4.310  12.852  22.838  0.00  0.00    +0.000 A 
ATOM     15 CL   UNL     1      -5.933  12.981  23.391  0.00  0.00    +0.000 Cl
ATOM     16  C   UNL     1      -3.965  13.345  21.584  0.00  0.00    +0.000 A 
ATOM     17  C   UNL     1      -2.651  13.212  21.132  0.00  0.00    +0.000 A 
ENDBRANCH   7  11
ENDBRANCH   1   3
BRANCH   1  18
ATOM     18  O   UNL     1       1.295   8.143  19.014  0.00  0.00    +0.000 OA
BRANCH  18  19
ATOM     19  C   UNL     1       2.207   7.409  19.845  0.00  0.00    +0.000 C 
BRANCH  19  21
ATOM     20  O   UNL     1       2.088   4.995  19.569  0.00  0.00    +0.000 OA
ATOM     21  C   UNL     1       2.648   6.048  19.280  0.00  0.00    +0.000 C 
ATOM     22  N   UNL     1       3.765   6.105  18.471  0.00  0.00    +0.000 N 
ATOM     23  H   UNL     1       4.300   6.972  18.560  0.00  0.00    +0.000 HD
BRANCH  22  24
ATOM     24  C   UNL     1       4.486   4.925  18.013  0.00  0.00    +0.000 C 
ATOM     25  C   UNL     1       5.526   4.528  19.071  0.00  0.00    +0.000 C 
ATOM     26  C   UNL     1       6.676   5.511  18.909  0.00  0.00    +0.000 C 
ATOM     27  S   UNL     1       6.901   5.619  17.146  0.00  0.00    +0.000 S 
ATOM     28  O   UNL     1       7.823   4.574  16.750  0.00  0.00    +0.000 OA
ATOM     29  O   UNL     1       7.111   7.007  16.791  0.00  0.00    +0.000 OA
ATOM     30  C   UNL     1       5.246   5.120  16.694  0.00  0.00    +0.000 C 
ENDBRANCH  22  24
ENDBRANCH  19  21
ENDBRANCH  18  19
ENDBRANCH   1  18
TORSDOF 6
ENDMDL
MODEL 4
REMARK VINA RESULT:      -7.2      3.347      5.528
REMARK  Name = 
REMARK  6 active torsions:
REMARK  status: ('A' for Active; 'I' for Inactive)
REMARK    1  A    between atoms: C_2  and  C_3
REMARK    2  A    between atoms: C_3  and  O_4
REMARK    3  A    between atoms: O_4  and  C_5
REMARK    4  A    between atoms: C_5  and  C_7
REMARK    5  A    between atoms: C_11  and  C_13
REMARK    6  A    between atoms: N_22  and  C_23
REMARK                            x       y       z     vdW  Elec       q    Type
REMARK                         _______ _______ _______ _____ _____    ______ ____
ROOT
ATOM      1  C   UNL     1       1.019   9.733  18.727  0.00  0.00    +0.000 C 
ATOM      2  O   UNL     1       0.242   9.690  17.773  0.00  0.00    +0.000 OA
ENDROOT
BRANCH   1   3
ATOM      3  C   UNL     1       1.190  10.968  19.600  0.00  0.00    +0.000 C 
ATOM      4  C   UNL     1       1.103  10.555  21.076  0.00  0.00    +0.000 C 
ATOM      5  C   UNL     1      -0.324  10.135  21.405  0.00  0.00    +0.000 C 
ATOM      6  N   UNL     1      -1.211  11.282  21.219  0.00  0.00    +0.000 N 
ATOM      7  C   UNL     1      -1.819  11.795  22.370  0.00  0.00    +0.000 C 
ATOM      8  O   UNL     1      -1.597  11.315  23.485  0.00  0.00    +0.000 OA
ATOM      9  C   UNL     1      -1.214  11.843  19.864  0.00  0.00    +0.000 C 
ATOM     10  C   UNL     1       0.197  12.099  19.322  0.00  0.00    +0.000 C 
BRANCH   7  11
ATOM     11  C   UNL     1      -2.738  12.962  22.340  0.00  0.00    +0.000 A 
ATOM     12  C   UNL     1      -2.315  14.290  22.437  0.00  0.00    +0.000 A 
ATOM     13  C   UNL     1      -3.249  15.330  22.412  0.00  0.00    +0.000 A 
ATOM     14  C   UNL     1      -4.600  15.050  22.211  0.00  0.00    +0.000 A 
ATOM     15 CL   UNL     1      -5.741  16.335  22.161  0.00  0.00    +0.000 Cl
ATOM     16  C   UNL     1      -5.028  13.738  22.033  0.00  0.00    +0.000 A 
ATOM     17  C   UNL     1      -4.100  12.698  22.103  0.00  0.00    +0.000 A 
ENDBRANCH   7  11
ENDBRANCH   1   3
BRANCH   1  18
ATOM     18  O   UNL     1       1.734   8.666  19.153  0.00  0.00    +0.000 OA
BRANCH  18  19
ATOM     19  C   UNL     1       2.467   7.962  18.139  0.00  0.00    +0.000 C 
BRANCH  19  21
ATOM     20  O   UNL     1       2.559   5.972  19.534  0.00  0.00    +0.000 OA
ATOM     21  C   UNL     1       2.989   6.577  18.558  0.00  0.00    +0.000 C 
ATOM     22  N   UNL     1       4.025   6.103  17.779  0.00  0.00    +0.000 N 
ATOM     23  H   UNL     1       4.480   6.820  17.208  0.00  0.00    +0.000 HD
BRANCH  22  24
ATOM     24  C   UNL     1       4.816   4.929  18.122  0.00  0.00    +0.000 C 
ATOM     25  C   UNL     1       5.819   5.302  19.224  0.00  0.00    +0.000 C 
ATOM     26  C   UNL     1       6.933   6.068  18.526  0.00  0.00    +0.000 C 
ATOM     27  S   UNL     1       7.239   5.124  17.048  0.00  0.00    +0.000 S 
ATOM     28  O   UNL     1       8.223   4.108  17.364  0.00  0.00    +0.000 OA
ATOM     29  O   UNL     1       7.409   6.042  15.940  0.00  0.00    +0.000 OA
ATOM     30  C   UNL     1       5.632   4.352  16.957  0.00  0.00    +0.000 C 
ENDBRANCH  22  24
ENDBRANCH  19  21
ENDBRANCH  18  19
ENDBRANCH   1  18
TORSDOF 6
ENDMDL
MODEL 5
REMARK VINA RESULT:      -7.1      4.336      8.552
REMARK  Name = 
REMARK  6 active torsions:
REMARK  status: ('A' for Active; 'I' for Inactive)
REMARK    1  A    between atoms: C_2  and  C_3
REMARK    2  A    between atoms: C_3  and  O_4
REMARK    3  A    between atoms: O_4  and  C_5
REMARK    4  A    between atoms: C_5  and  C_7
REMARK    5  A    between atoms: C_11  and  C_13
REMARK    6  A    between atoms: N_22  and  C_23
REMARK                            x       y       z     vdW  Elec       q    Type
REMARK                         _______ _______ _______ _____ _____    ______ ____
ROOT
ATOM      1  C   UNL     1       2.401   4.773  20.135  0.00  0.00    +0.000 C 
ATOM      2  O   UNL     1       2.253   4.759  21.356  0.00  0.00    +0.000 OA
ENDROOT
BRANCH   1   3
ATOM      3  C   UNL     1       3.042   3.628  19.365  0.00  0.00    +0.000 C 
ATOM      4  C   UNL     1       4.506   3.484  19.805  0.00  0.00    +0.000 C 
ATOM      5  C   UNL     1       5.308   4.681  19.309  0.00  0.00    +0.000 C 
ATOM      6  N   UNL     1       5.290   4.691  17.848  0.00  0.00    +0.000 N 
ATOM      7  C   UNL     1       6.514   4.468  17.207  0.00  0.00    +0.000 C 
ATOM      8  O   UNL     1       7.547   4.250  17.846  0.00  0.00    +0.000 OA
ATOM      9  C   UNL     1       3.954   4.773  17.250  0.00  0.00    +0.000 C 
ATOM     10  C   UNL     1       2.973   3.754  17.841  0.00  0.00    +0.000 C 
BRANCH   7  11
ATOM     11  C   UNL     1       6.651   4.441  15.727  0.00  0.00    +0.000 A 
ATOM     12  C   UNL     1       5.881   3.631  14.888  0.00  0.00    +0.000 A 
ATOM     13  C   UNL     1       6.084   3.658  13.505  0.00  0.00    +0.000 A 
ATOM     14  C   UNL     1       7.001   4.551  12.951  0.00  0.00    +0.000 A 
ATOM     15 CL   UNL     1       7.230   4.593  11.247  0.00  0.00    +0.000 Cl
ATOM     16  C   UNL     1       7.719   5.419  13.767  0.00  0.00    +0.000 A 
ATOM     17  C   UNL     1       7.548   5.359  15.152  0.00  0.00    +0.000 A 
ENDBRANCH   7  11
ENDBRANCH   1   3
BRANCH   1  18
ATOM     18  O   UNL     1       1.931   5.763  19.340  0.00  0.00    +0.000 OA
BRANCH  18  19
ATOM     19  C   UNL     1       2.376   7.088  19.668  0.00  0.00    +0.000 C 
BRANCH  19  21
ATOM     20  O   UNL     1       2.495   8.267  17.544  0.00  0.00    +0.000 OA
ATOM     21  C   UNL     1       1.981   8.175  18.654  0.00  0.00    +0.000 C 
ATOM     22  N   UNL     1       1.046   9.075  19.124  0.00  0.00    +0.000 N 
ATOM     23  H   UNL     1       0.934   9.069  20.140  0.00  0.00    +0.000 HD
BRANCH  22  24
ATOM     24  C   UNL     1       0.694  10.305  18.427  0.00  0.00    +0.000 C 
ATOM     25  C   UNL     1       1.638  11.428  18.879  0.00  0.00    +0.000 C 
ATOM     26  C   UNL     1       1.143  11.857  20.252  0.00  0.00    +0.000 C 
ATOM     27  S   UNL     1      -0.626  11.929  20.066  0.00  0.00    +0.000 S 
ATOM     28  O   UNL     1      -0.970  13.257  19.599  0.00  0.00    +0.000 OA
ATOM     29  O   UNL     1      -1.239  11.342  21.239  0.00  0.00    +0.000 OA
ATOM     30  C   UNL     1      -0.736  10.795  18.690  0.00  0.00    +0.000 C 
ENDBRANCH  22  24
ENDBRANCH  19  21
ENDBRANCH  18  19
ENDBRANCH   1  18
TORSDOF 6
ENDMDL
MODEL 6
REMARK VINA RESULT:      -7.1      2.967      5.174
REMARK  Name = 
REMARK  6 active torsions:
REMARK  status: ('A' for Active; 'I' for Inactive)
REMARK    1  A    between atoms: C_2  and  C_3
REMARK    2  A    between atoms: C_3  and  O_4
REMARK    3  A    between atoms: O_4  and  C_5
REMARK    4  A    between atoms: C_5  and  C_7
REMARK    5  A    between atoms: C_11  and  C_13
REMARK    6  A    between atoms: N_22  and  C_23
REMARK                            x       y       z     vdW  Elec       q    Type
REMARK                         _______ _______ _______ _____ _____    ______ ____
ROOT
ATOM      1  C   UNL     1       0.492   9.667  18.188  0.00  0.00    +0.000 C 
ATOM      2  O   UNL     1      -0.390   9.997  17.396  0.00  0.00    +0.000 OA
ENDROOT
BRANCH   1   3
ATOM      3  C   UNL     1       1.063  10.614  19.233  0.00  0.00    +0.000 C 
ATOM      4  C   UNL     1       1.223   9.860  20.560  0.00  0.00    +0.000 C 
ATOM      5  C   UNL     1      -0.152   9.547  21.139  0.00  0.00    +0.000 C 
ATOM      6  N   UNL     1      -0.840  10.803  21.431  0.00  0.00    +0.000 N 
ATOM      7  C   UNL     1      -1.086  11.082  22.780  0.00  0.00    +0.000 C 
ATOM      8  O   UNL     1      -0.718  10.316  23.674  0.00  0.00    +0.000 OA
ATOM      9  C   UNL     1      -1.034  11.680  20.272  0.00  0.00    +0.000 C 
ATOM     10  C   UNL     1       0.249  11.891  19.461  0.00  0.00    +0.000 C 
BRANCH   7  11
ATOM     11  C   UNL     1      -1.769  12.322  23.231  0.00  0.00    +0.000 A 
ATOM     12  C   UNL     1      -1.139  13.565  23.332  0.00  0.00    +0.000 A 
ATOM     13  C   UNL     1      -1.853  14.682  23.778  0.00  0.00    +0.000 A 
ATOM     14  C   UNL     1      -3.217  14.575  24.049  0.00  0.00    +0.000 A 
ATOM     15 CL   UNL     1      -4.093  15.957  24.578  0.00  0.00    +0.000 Cl
ATOM     16  C   UNL     1      -3.876  13.362  23.878  0.00  0.00    +0.000 A 
ATOM     17  C   UNL     1      -3.152  12.239  23.475  0.00  0.00    +0.000 A 
ENDBRANCH   7  11
ENDBRANCH   1   3
BRANCH   1  18
ATOM     18  O   UNL     1       0.983   8.408  18.273  0.00  0.00    +0.000 OA
BRANCH  18  19
ATOM     19  C   UNL     1       2.333   8.235  17.817  0.00  0.00    +0.000 C 
BRANCH  19  21
ATOM     20  O   UNL     1       2.390   6.025  18.832  0.00  0.00    +0.000 OA
ATOM     21  C   UNL     1       2.961   6.872  18.153  0.00  0.00    +0.000 C 
ATOM     22  N   UNL     1       4.247   6.708  17.678  0.00  0.00    +0.000 N 
ATOM     23  H   UNL     1       4.705   7.581  17.404  0.00  0.00    +0.000 HD
BRANCH  22  24
ATOM     24  C   UNL     1       5.111   5.599  18.062  0.00  0.00    +0.000 C 
ATOM     25  C   UNL     1       6.468   6.154  18.519  0.00  0.00    +0.000 C 
ATOM     26  C   UNL     1       7.213   6.524  17.245  0.00  0.00    +0.000 C 
ATOM     27  S   UNL     1       6.908   5.149  16.156  0.00  0.00    +0.000 S 
ATOM     28  O   UNL     1       7.937   4.157  16.394  0.00  0.00    +0.000 OA
ATOM     29  O   UNL     1       6.622   5.662  14.833  0.00  0.00    +0.000 OA
ATOM     30  C   UNL     1       5.397   4.599  16.934  0.00  0.00    +0.000 C 
ENDBRANCH  22  24
ENDBRANCH  19  21
ENDBRANCH  18  19
ENDBRANCH   1  18
TORSDOF 6
ENDMDL
MODEL 7
REMARK VINA RESULT:      -7.1      3.525      6.237
REMARK  Name = 
REMARK  6 active torsions:
REMARK  status: ('A' for Active; 'I' for Inactive)
REMARK    1  A    between atoms: C_2  and  C_3
REMARK    2  A    between atoms: C_3  and  O_4
REMARK    3  A    between atoms: O_4  and  C_5
REMARK    4  A    between atoms: C_5  and  C_7
REMARK    5  A    between atoms: C_11  and  C_13
REMARK    6  A    between atoms: N_22  and  C_23
REMARK                            x       y       z     vdW  Elec       q    Type
REMARK                         _______ _______ _______ _____ _____    ______ ____
ROOT
ATOM      1  C   UNL     1       0.491  10.522  18.282  0.00  0.00    +0.000 C 
ATOM      2  O   UNL     1      -0.426   9.821  17.855  0.00  0.00    +0.000 OA
ENDROOT
BRANCH   1   3
ATOM      3  C   UNL     1       0.293  11.966  18.721  0.00  0.00    +0.000 C 
ATOM      4  C   UNL     1       1.032  12.194  20.046  0.00  0.00    +0.000 C 
ATOM      5  C   UNL     1       0.329  11.429  21.162  0.00  0.00    +0.000 C 
ATOM      6  N   UNL     1      -1.023  11.959  21.320  0.00  0.00    +0.000 N 
ATOM      7  C   UNL     1      -1.300  12.618  22.523  0.00  0.00    +0.000 C 
ATOM      8  O   UNL     1      -0.436  12.763  23.392  0.00  0.00    +0.000 OA
ATOM      9  C   UNL     1      -1.863  11.868  20.121  0.00  0.00    +0.000 C 
ATOM     10  C   UNL     1      -1.167  12.404  18.864  0.00  0.00    +0.000 C 
BRANCH   7  11
ATOM     11  C   UNL     1      -2.627  13.216  22.824  0.00  0.00    +0.000 A 
ATOM     12  C   UNL     1      -3.037  14.471  22.367  0.00  0.00    +0.000 A 
ATOM     13  C   UNL     1      -4.301  14.965  22.708  0.00  0.00    +0.000 A 
ATOM     14  C   UNL     1      -5.186  14.173  23.439  0.00  0.00    +0.000 A 
ATOM     15 CL   UNL     1      -6.745  14.778  23.837  0.00  0.00    +0.000 Cl
ATOM     16  C   UNL     1      -4.821  12.890  23.833  0.00  0.00    +0.000 A 
ATOM     17  C   UNL     1      -3.543  12.416  23.531  0.00  0.00    +0.000 A 
ENDBRANCH   7  11
ENDBRANCH   1   3
BRANCH   1  18
ATOM     18  O   UNL     1       1.746  10.061  18.490  0.00  0.00    +0.000 OA
BRANCH  18  19
ATOM     19  C   UNL     1       2.088   8.853  17.794  0.00  0.00    +0.000 C 
BRANCH  19  21
ATOM     20  O   UNL     1       2.134   7.599  19.878  0.00  0.00    +0.000 OA
ATOM     21  C   UNL     1       2.462   7.666  18.697  0.00  0.00    +0.000 C 
ATOM     22  N   UNL     1       3.251   6.713  18.084  0.00  0.00    +0.000 N 
ATOM     23  H   UNL     1       3.695   7.033  17.220  0.00  0.00    +0.000 HD
BRANCH  22  24
ATOM     24  C   UNL     1       3.904   5.627  18.803  0.00  0.00    +0.000 C 
ATOM     25  C   UNL     1       5.034   5.057  17.934  0.00  0.00    +0.000 C 
ATOM     26  C   UNL     1       4.352   4.189  16.886  0.00  0.00    +0.000 C 
ATOM     27  S   UNL     1       3.126   3.288  17.809  0.00  0.00    +0.000 S 
ATOM     28  O   UNL     1       3.748   2.079  18.312  0.00  0.00    +0.000 OA
ATOM     29  O   UNL     1       1.897   3.261  17.044  0.00  0.00    +0.000 OA
ATOM     30  C   UNL     1       2.979   4.454  19.154  0.00  0.00    +0.000 C 
ENDBRANCH  22  24
ENDBRANCH  19  21
ENDBRANCH  18  19
ENDBRANCH   1  18
TORSDOF 6
ENDMDL
MODEL 8
REMARK VINA RESULT:      -7.0      3.116      5.505
REMARK  Name = 
REMARK  6 active torsions:
REMARK  status: ('A' for Active; 'I' for Inactive)
REMARK    1  A    between atoms: C_2  and  C_3
REMARK    2  A    between atoms: C_3  and  O_4
REMARK    3  A    between atoms: O_4  and  C_5
REMARK    4  A    between atoms: C_5  and  C_7
REMARK    5  A    between atoms: C_11  and  C_13
REMARK    6  A    between atoms: N_22  and  C_23
REMARK                            x       y       z     vdW  Elec       q    Type
REMARK                         _______ _______ _______ _____ _____    ______ ____
ROOT
ATOM      1  C   UNL     1       1.626   8.861  18.420  0.00  0.00    +0.000 C 
ATOM      2  O   UNL     1       1.761   8.347  19.530  0.00  0.00    +0.000 OA
ENDROOT
BRANCH   1   3
ATOM      3  C   UNL     1       0.795  10.113  18.183  0.00  0.00    +0.000 C 
ATOM      4  C   UNL     1       1.495  11.312  18.838  0.00  0.00    +0.000 C 
ATOM      5  C   UNL     1       1.429  11.175  20.355  0.00  0.00    +0.000 C 
ATOM      6  N   UNL     1       0.029  11.206  20.772  0.00  0.00    +0.000 N 
ATOM      7  C   UNL     1      -0.373  12.309  21.535  0.00  0.00    +0.000 C 
ATOM      8  O   UNL     1       0.412  13.217  21.817  0.00  0.00    +0.000 OA
ATOM      9  C   UNL     1      -0.808  10.149  20.194  0.00  0.00    +0.000 C 
ATOM     10  C   UNL     1      -0.653  10.031  18.673  0.00  0.00    +0.000 C 
BRANCH   7  11
ATOM     11  C   UNL     1      -1.765  12.481  22.024  0.00  0.00    +0.000 A 
ATOM     12  C   UNL     1      -2.187  12.136  23.311  0.00  0.00    +0.000 A 
ATOM     13  C   UNL     1      -3.522  12.320  23.687  0.00  0.00    +0.000 A 
ATOM     14  C   UNL     1      -4.419  12.921  22.804  0.00  0.00    +0.000 A 
ATOM     15 CL   UNL     1      -6.053  13.163  23.280  0.00  0.00    +0.000 Cl
ATOM     16  C   UNL     1      -3.995  13.342  21.548  0.00  0.00    +0.000 A 
ATOM     17  C   UNL     1      -2.673  13.117  21.158  0.00  0.00    +0.000 A 
ENDBRANCH   7  11
ENDBRANCH   1   3
BRANCH   1  18
ATOM     18  O   UNL     1       2.270   8.422  17.314  0.00  0.00    +0.000 OA
BRANCH  18  19
ATOM     19  C   UNL     1       3.689   8.249  17.447  0.00  0.00    +0.000 C 
BRANCH  19  21
ATOM     20  O   UNL     1       4.964   6.370  16.576  0.00  0.00    +0.000 OA
ATOM     21  C   UNL     1       4.172   6.789  17.414  0.00  0.00    +0.000 C 
ATOM     22  N   UNL     1       3.590   5.978  18.368  0.00  0.00    +0.000 N 
ATOM     23  H   UNL     1       2.743   6.369  18.788  0.00  0.00    +0.000 HD
BRANCH  22  24
ATOM     24  C   UNL     1       3.727   4.528  18.380  0.00  0.00    +0.000 C 
ATOM     25  C   UNL     1       2.739   3.921  17.372  0.00  0.00    +0.000 C 
ATOM     26  C   UNL     1       1.376   3.975  18.045  0.00  0.00    +0.000 C 
ATOM     27  S   UNL     1       1.700   3.439  19.712  0.00  0.00    +0.000 S 
ATOM     28  O   UNL     1       1.587   1.994  19.744  0.00  0.00    +0.000 OA
ATOM     29  O   UNL     1       0.964   4.290  20.623  0.00  0.00    +0.000 OA
ATOM     30  C   UNL     1       3.432   3.875  19.737  0.00  0.00    +0.000 C 
ENDBRANCH  22  24
ENDBRANCH  19  21
ENDBRANCH  18  19
ENDBRANCH   1  18
TORSDOF 6
ENDMDL
MODEL 9
REMARK VINA RESULT:      -7.0      5.385      7.572
REMARK  Name = 
REMARK  6 active torsions:
REMARK  status: ('A' for Active; 'I' for Inactive)
REMARK    1  A    between atoms: C_2  and  C_3
REMARK    2  A    between atoms: C_3  and  O_4
REMARK    3  A    between atoms: O_4  and  C_5
REMARK    4  A    between atoms: C_5  and  C_7
REMARK    5  A    between atoms: C_11  and  C_13
REMARK    6  A    between atoms: N_22  and  C_23
REMARK                            x       y       z     vdW  Elec       q    Type
REMARK                         _______ _______ _______ _____ _____    ______ ____
ROOT
ATOM      1  C   UNL     1       7.522   6.629  17.170  0.00  0.00    +0.000 C 
ATOM      2  O   UNL     1       7.862   6.951  16.032  0.00  0.00    +0.000 OA
ENDROOT
BRANCH   1   3
ATOM      3  C   UNL     1       7.366   5.180  17.608  0.00  0.00    +0.000 C 
ATOM      4  C   UNL     1       6.526   4.428  16.566  0.00  0.00    +0.000 C 
ATOM      5  C   UNL     1       5.086   4.927  16.614  0.00  0.00    +0.000 C 
ATOM      6  N   UNL     1       4.524   4.624  17.928  0.00  0.00    +0.000 N 
ATOM      7  C   UNL     1       3.484   3.688  17.963  0.00  0.00    +0.000 C 
ATOM      8  O   UNL     1       3.083   3.133  16.938  0.00  0.00    +0.000 OA
ATOM      9  C   UNL     1       5.241   5.226  19.057  0.00  0.00    +0.000 C 
ATOM     10  C   UNL     1       6.754   4.987  18.998  0.00  0.00    +0.000 C 
BRANCH   7  11
ATOM     11  C   UNL     1       2.820   3.274  19.226  0.00  0.00    +0.000 A 
ATOM     12  C   UNL     1       3.482   2.651  20.286  0.00  0.00    +0.000 A 
ATOM     13  C   UNL     1       2.777   2.282  21.437  0.00  0.00    +0.000 A 
ATOM     14  C   UNL     1       1.426   2.606  21.561  0.00  0.00    +0.000 A 
ATOM     15 CL   UNL     1       0.570   2.167  22.987  0.00  0.00    +0.000 Cl
ATOM     16  C   UNL     1       0.771   3.296  20.546  0.00  0.00    +0.000 A 
ATOM     17  C   UNL     1       1.466   3.624  19.380  0.00  0.00    +0.000 A 
ENDBRANCH   7  11
ENDBRANCH   1   3
BRANCH   1  18
ATOM     18  O   UNL     1       7.340   7.520  18.172  0.00  0.00    +0.000 OA
BRANCH  18  19
ATOM     19  C   UNL     1       8.520   8.206  18.617  0.00  0.00    +0.000 C 
BRANCH  19  21
ATOM     20  O   UNL     1       7.752  10.239  17.524  0.00  0.00    +0.000 OA
ATOM     21  C   UNL     1       8.582   9.698  18.249  0.00  0.00    +0.000 C 
ATOM     22  N   UNL     1       9.682  10.361  18.753  0.00  0.00    +0.000 N 
ATOM     23  H   UNL     1      10.433   9.742  19.071  0.00  0.00    +0.000 HD
BRANCH  22  24
ATOM     24  C   UNL     1      10.061  11.710  18.353  0.00  0.00    +0.000 C 
ATOM     25  C   UNL     1      11.575  11.884  18.540  0.00  0.00    +0.000 C 
ATOM     26  C   UNL     1      11.787  12.078  20.034  0.00  0.00    +0.000 C 
ATOM     27  S   UNL     1      10.493  13.206  20.506  0.00  0.00    +0.000 S 
ATOM     28  O   UNL     1      10.991  14.555  20.326  0.00  0.00    +0.000 OA
ATOM     29  O   UNL     1       9.922  12.757  21.759  0.00  0.00    +0.000 OA
ATOM     30  C   UNL     1       9.383  12.824  19.160  0.00  0.00    +0.000 C 
ENDBRANCH  22  24
ENDBRANCH  19  21
ENDBRANCH  18  19
ENDBRANCH   1  18
TORSDOF 6
ENDMDL
