MODEL 1
REMARK VINA RESULT:      -7.0      0.000      0.000
REMARK  Name = 
REMARK  1 active torsions:
REMARK  status: ('A' for Active; 'I' for Inactive)
REMARK    1  A    between atoms: N_3  and  C_4
REMARK                            x       y       z     vdW  Elec       q    Type
REMARK                         _______ _______ _______ _____ _____    ______ ____
ROOT
ATOM      1  O   UNL     1       4.448   5.945  17.899  0.00  0.00    +0.000 OA
ATOM      2  C   UNL     1       4.595   4.927  17.241  0.00  0.00    +0.000 C 
ATOM      3  N   UNL     1       4.032   3.676  17.405  0.00  0.00    +0.000 N 
ATOM      4  N   UNL     1       5.575   4.911  16.243  0.00  0.00    +0.000 N 
ATOM      5  C   UNL     1       5.534   4.326  14.993  0.00  0.00    +0.000 A 
ATOM      6  C   UNL     1       6.734   4.643  14.398  0.00  0.00    +0.000 A 
ATOM      7  N   UNL     1       7.526   5.361  15.251  0.00  0.00    +0.000 NA
ATOM      8  C   UNL     1       6.796   5.537  16.331  0.00  0.00    +0.000 A 
ATOM      9  H   UNL     1       4.535   2.885  17.017  0.00  0.00    +0.000 HD
ENDROOT
BRANCH   3  10
ATOM     10  C   UNL     1       3.065   3.384  18.394  0.00  0.00    +0.000 A 
ATOM     11  C   UNL     1       1.690   3.459  18.140  0.00  0.00    +0.000 A 
ATOM     12  C   UNL     1       0.763   3.178  19.148  0.00  0.00    +0.000 A 
ATOM     13  C   UNL     1       1.205   2.830  20.421  0.00  0.00    +0.000 A 
ATOM     14  C   UNL     1       2.571   2.752  20.669  0.00  0.00    +0.000 A 
ATOM     15  F   UNL     1       2.998   2.442  21.901  0.00  0.00    +0.000 F 
ATOM     16  C   UNL     1       3.507   3.000  19.664  0.00  0.00    +0.000 A 
ENDBRANCH   3  10
TORSDOF 1
ENDMDL
MODEL 2
REMARK VINA RESULT:      -6.8      1.247      1.743
REMARK  Name = 
REMARK  1 active torsions:
REMARK  status: ('A' for Active; 'I' for Inactive)
REMARK    1  A    between atoms: N_3  and  C_4
REMARK                            x       y       z     vdW  Elec       q    Type
REMARK                         _______ _______ _______ _____ _____    ______ ____
ROOT
ATOM      1  O   UNL     1       4.207   5.773  17.371  0.00  0.00    +0.000 OA
ATOM      2  C   UNL     1       4.680   4.721  16.971  0.00  0.00    +0.000 C 
ATOM      3  N   UNL     1       4.468   3.429  17.413  0.00  0.00    +0.000 N 
ATOM      4  N   UNL     1       5.706   4.765  16.022  0.00  0.00    +0.000 N 
ATOM      5  C   UNL     1       5.930   3.934  14.942  0.00  0.00    +0.000 A 
ATOM      6  C   UNL     1       7.042   4.442  14.310  0.00  0.00    +0.000 A 
ATOM      7  N   UNL     1       7.535   5.524  14.987  0.00  0.00    +0.000 NA
ATOM      8  C   UNL     1       6.699   5.717  15.982  0.00  0.00    +0.000 A 
ATOM      9  H   UNL     1       5.198   2.748  17.229  0.00  0.00    +0.000 HD
ENDROOT
BRANCH   3  10
ATOM     10  C   UNL     1       3.539   3.098  18.426  0.00  0.00    +0.000 A 
ATOM     11  C   UNL     1       3.900   3.030  19.777  0.00  0.00    +0.000 A 
ATOM     12  C   UNL     1       2.958   2.684  20.750  0.00  0.00    +0.000 A 
ATOM     13  C   UNL     1       1.649   2.393  20.376  0.00  0.00    +0.000 A 
ATOM     14  C   UNL     1       1.292   2.467  19.034  0.00  0.00    +0.000 A 
ATOM     15  F   UNL     1       0.038   2.162  18.670  0.00  0.00    +0.000 F 
ATOM     16  C   UNL     1       2.215   2.840  18.057  0.00  0.00    +0.000 A 
ENDBRANCH   3  10
TORSDOF 1
ENDMDL
MODEL 3
REMARK VINA RESULT:      -6.6      1.621      1.964
REMARK  Name = 
REMARK  1 active torsions:
REMARK  status: ('A' for Active; 'I' for Inactive)
REMARK    1  A    between atoms: N_3  and  C_4
REMARK                            x       y       z     vdW  Elec       q    Type
REMARK                         _______ _______ _______ _____ _____    ______ ____
ROOT
ATOM      1  O   UNL     1       5.979   4.967  19.404  0.00  0.00    +0.000 OA
ATOM      2  C   UNL     1       5.384   4.605  18.401  0.00  0.00    +0.000 C 
ATOM      3  N   UNL     1       4.170   3.959  18.276  0.00  0.00    +0.000 N 
ATOM      4  N   UNL     1       6.035   4.697  17.167  0.00  0.00    +0.000 N 
ATOM      5  C   UNL     1       5.521   5.053  15.936  0.00  0.00    +0.000 A 
ATOM      6  C   UNL     1       6.589   5.026  15.068  0.00  0.00    +0.000 A 
ATOM      7  N   UNL     1       7.727   4.623  15.709  0.00  0.00    +0.000 NA
ATOM      8  C   UNL     1       7.376   4.469  16.967  0.00  0.00    +0.000 A 
ATOM      9  H   UNL     1       4.015   3.419  17.430  0.00  0.00    +0.000 HD
ENDROOT
BRANCH   3  10
ATOM     10  C   UNL     1       3.331   3.663  19.374  0.00  0.00    +0.000 A 
ATOM     11  C   UNL     1       3.637   2.657  20.298  0.00  0.00    +0.000 A 
ATOM     12  C   UNL     1       2.775   2.381  21.364  0.00  0.00    +0.000 A 
ATOM     13  C   UNL     1       1.595   3.106  21.507  0.00  0.00    +0.000 A 
ATOM     14  C   UNL     1       1.296   4.108  20.592  0.00  0.00    +0.000 A 
ATOM     15  F   UNL     1       0.148   4.789  20.714  0.00  0.00    +0.000 F 
ATOM     16  C   UNL     1       2.162   4.414  19.541  0.00  0.00    +0.000 A 
ENDBRANCH   3  10
TORSDOF 1
ENDMDL
MODEL 4
REMARK VINA RESULT:      -6.6      1.940      2.399
REMARK  Name = 
REMARK  1 active torsions:
REMARK  status: ('A' for Active; 'I' for Inactive)
REMARK    1  A    between atoms: N_3  and  C_4
REMARK                            x       y       z     vdW  Elec       q    Type
REMARK                         _______ _______ _______ _____ _____    ______ ____
ROOT
ATOM      1  O   UNL     1       5.727   3.603  19.056  0.00  0.00    +0.000 OA
ATOM      2  C   UNL     1       5.234   4.599  18.548  0.00  0.00    +0.000 C 
ATOM      3  N   UNL     1       3.922   5.032  18.540  0.00  0.00    +0.000 N 
ATOM      4  N   UNL     1       6.030   5.388  17.713  0.00  0.00    +0.000 N 
ATOM      5  C   UNL     1       6.067   6.764  17.591  0.00  0.00    +0.000 A 
ATOM      6  C   UNL     1       7.052   7.026  16.666  0.00  0.00    +0.000 A 
ATOM      7  N   UNL     1       7.588   5.864  16.183  0.00  0.00    +0.000 NA
ATOM      8  C   UNL     1       6.986   4.904  16.851  0.00  0.00    +0.000 A 
ATOM      9  H   UNL     1       3.640   5.648  17.784  0.00  0.00    +0.000 HD
ENDROOT
BRANCH   3  10
ATOM     10  C   UNL     1       2.883   4.376  19.239  0.00  0.00    +0.000 A 
ATOM     11  C   UNL     1       2.703   4.521  20.619  0.00  0.00    +0.000 A 
ATOM     12  C   UNL     1       1.674   3.843  21.279  0.00  0.00    +0.000 A 
ATOM     13  C   UNL     1       0.823   3.006  20.562  0.00  0.00    +0.000 A 
ATOM     14  C   UNL     1       1.001   2.868  19.190  0.00  0.00    +0.000 A 
ATOM     15  F   UNL     1       0.198   2.043  18.503  0.00  0.00    +0.000 F 
ATOM     16  C   UNL     1       2.005   3.562  18.515  0.00  0.00    +0.000 A 
ENDBRANCH   3  10
TORSDOF 1
ENDMDL
MODEL 5
REMARK VINA RESULT:      -6.5      1.020      1.020
REMARK  Name = 
REMARK  1 active torsions:
REMARK  status: ('A' for Active; 'I' for Inactive)
REMARK    1  A    between atoms: N_3  and  C_4
REMARK                            x       y       z     vdW  Elec       q    Type
REMARK                         _______ _______ _______ _____ _____    ______ ____
ROOT
ATOM      1  O   UNL     1       4.350   6.192  17.496  0.00  0.00    +0.000 OA
ATOM      2  C   UNL     1       4.493   5.117  16.935  0.00  0.00    +0.000 C 
ATOM      3  N   UNL     1       3.898   3.897  17.191  0.00  0.00    +0.000 N 
ATOM      4  N   UNL     1       5.502   4.992  15.974  0.00  0.00    +0.000 N 
ATOM      5  C   UNL     1       5.485   4.300  14.779  0.00  0.00    +0.000 A 
ATOM      6  C   UNL     1       6.708   4.539  14.196  0.00  0.00    +0.000 A 
ATOM      7  N   UNL     1       7.491   5.314  15.008  0.00  0.00    +0.000 NA
ATOM      8  C   UNL     1       6.733   5.600  16.044  0.00  0.00    +0.000 A 
ATOM      9  H   UNL     1       4.394   3.064  16.890  0.00  0.00    +0.000 HD
ENDROOT
BRANCH   3  10
ATOM     10  C   UNL     1       2.896   3.713  18.171  0.00  0.00    +0.000 A 
ATOM     11  C   UNL     1       1.831   2.822  17.993  0.00  0.00    +0.000 A 
ATOM     12  C   UNL     1       0.850   2.678  18.978  0.00  0.00    +0.000 A 
ATOM     13  C   UNL     1       0.922   3.433  20.145  0.00  0.00    +0.000 A 
ATOM     14  C   UNL     1       1.983   4.313  20.322  0.00  0.00    +0.000 A 
ATOM     15  F   UNL     1       2.040   5.059  21.434  0.00  0.00    +0.000 F 
ATOM     16  C   UNL     1       2.985   4.444  19.360  0.00  0.00    +0.000 A 
ENDBRANCH   3  10
TORSDOF 1
ENDMDL
MODEL 6
REMARK VINA RESULT:      -6.4      2.869      6.059
REMARK  Name = 
REMARK  1 active torsions:
REMARK  status: ('A' for Active; 'I' for Inactive)
REMARK    1  A    between atoms: N_3  and  C_4
REMARK                            x       y       z     vdW  Elec       q    Type
REMARK                         _______ _______ _______ _____ _____    ______ ____
ROOT
ATOM      1  O   UNL     1       5.135   2.600  19.683  0.00  0.00    +0.000 OA
ATOM      2  C   UNL     1       4.145   3.233  19.349  0.00  0.00    +0.000 C 
ATOM      3  N   UNL     1       4.003   4.211  18.384  0.00  0.00    +0.000 N 
ATOM      4  N   UNL     1       2.980   3.107  20.112  0.00  0.00    +0.000 N 
ATOM      5  C   UNL     1       1.665   3.062  19.692  0.00  0.00    +0.000 A 
ATOM      6  C   UNL     1       0.919   2.885  20.835  0.00  0.00    +0.000 A 
ATOM      7  N   UNL     1       1.721   2.865  21.943  0.00  0.00    +0.000 NA
ATOM      8  C   UNL     1       2.948   2.963  21.480  0.00  0.00    +0.000 A 
ATOM      9  H   UNL     1       3.239   4.870  18.497  0.00  0.00    +0.000 HD
ENDROOT
BRANCH   3  10
ATOM     10  C   UNL     1       5.048   4.602  17.515  0.00  0.00    +0.000 A 
ATOM     11  C   UNL     1       5.241   4.006  16.263  0.00  0.00    +0.000 A 
ATOM     12  C   UNL     1       6.295   4.408  15.438  0.00  0.00    +0.000 A 
ATOM     13  C   UNL     1       7.170   5.403  15.864  0.00  0.00    +0.000 A 
ATOM     14  C   UNL     1       6.973   5.997  17.106  0.00  0.00    +0.000 A 
ATOM     15  F   UNL     1       7.830   6.937  17.529  0.00  0.00    +0.000 F 
ATOM     16  C   UNL     1       5.907   5.626  17.926  0.00  0.00    +0.000 A 
ENDBRANCH   3  10
TORSDOF 1
ENDMDL
MODEL 7
REMARK VINA RESULT:      -6.4      1.562      2.039
REMARK  Name = 
REMARK  1 active torsions:
REMARK  status: ('A' for Active; 'I' for Inactive)
REMARK    1  A    between atoms: N_3  and  C_4
REMARK                            x       y       z     vdW  Elec       q    Type
REMARK                         _______ _______ _______ _____ _____    ______ ____
ROOT
ATOM      1  O   UNL     1       4.973   3.599  16.972  0.00  0.00    +0.000 OA
ATOM      2  C   UNL     1       5.070   4.459  17.834  0.00  0.00    +0.000 C 
ATOM      3  N   UNL     1       4.211   4.781  18.866  0.00  0.00    +0.000 N 
ATOM      4  N   UNL     1       6.111   5.388  17.738  0.00  0.00    +0.000 N 
ATOM      5  C   UNL     1       6.884   5.936  18.742  0.00  0.00    +0.000 A 
ATOM      6  C   UNL     1       7.789   6.755  18.106  0.00  0.00    +0.000 A 
ATOM      7  N   UNL     1       7.571   6.766  16.756  0.00  0.00    +0.000 NA
ATOM      8  C   UNL     1       6.588   5.914  16.560  0.00  0.00    +0.000 A 
ATOM      9  H   UNL     1       4.261   5.724  19.237  0.00  0.00    +0.000 HD
ENDROOT
BRANCH   3  10
ATOM     10  C   UNL     1       3.031   4.055  19.148  0.00  0.00    +0.000 A 
ATOM     11  C   UNL     1       2.022   3.870  18.195  0.00  0.00    +0.000 A 
ATOM     12  C   UNL     1       0.861   3.160  18.515  0.00  0.00    +0.000 A 
ATOM     13  C   UNL     1       0.697   2.639  19.795  0.00  0.00    +0.000 A 
ATOM     14  C   UNL     1       1.703   2.819  20.738  0.00  0.00    +0.000 A 
ATOM     15  F   UNL     1       1.535   2.339  21.978  0.00  0.00    +0.000 F 
ATOM     16  C   UNL     1       2.879   3.499  20.423  0.00  0.00    +0.000 A 
ENDBRANCH   3  10
TORSDOF 1
ENDMDL
MODEL 8
REMARK VINA RESULT:      -6.3      2.137      2.537
REMARK  Name = 
REMARK  1 active torsions:
REMARK  status: ('A' for Active; 'I' for Inactive)
REMARK    1  A    between atoms: N_3  and  C_4
REMARK                            x       y       z     vdW  Elec       q    Type
REMARK                         _______ _______ _______ _____ _____    ______ ____
ROOT
ATOM      1  O   UNL     1       4.392   5.113  16.960  0.00  0.00    +0.000 OA
ATOM      2  C   UNL     1       4.924   5.380  18.026  0.00  0.00    +0.000 C 
ATOM      3  N   UNL     1       4.471   5.184  19.316  0.00  0.00    +0.000 N 
ATOM      4  N   UNL     1       6.105   6.129  18.016  0.00  0.00    +0.000 N 
ATOM      5  C   UNL     1       7.224   5.999  18.814  0.00  0.00    +0.000 A 
ATOM      6  C   UNL     1       8.111   6.950  18.363  0.00  0.00    +0.000 A 
ATOM      7  N   UNL     1       7.562   7.687  17.350  0.00  0.00    +0.000 NA
ATOM      8  C   UNL     1       6.380   7.152  17.139  0.00  0.00    +0.000 A 
ATOM      9  H   UNL     1       4.853   5.785  20.040  0.00  0.00    +0.000 HD
ENDROOT
BRANCH   3  10
ATOM     10  C   UNL     1       3.260   4.522  19.622  0.00  0.00    +0.000 A 
ATOM     11  C   UNL     1       2.204   5.163  20.282  0.00  0.00    +0.000 A 
ATOM     12  C   UNL     1       1.027   4.472  20.581  0.00  0.00    +0.000 A 
ATOM     13  C   UNL     1       0.901   3.131  20.231  0.00  0.00    +0.000 A 
ATOM     14  C   UNL     1       1.948   2.499  19.570  0.00  0.00    +0.000 A 
ATOM     15  F   UNL     1       1.838   1.200  19.255  0.00  0.00    +0.000 F 
ATOM     16  C   UNL     1       3.116   3.185  19.238  0.00  0.00    +0.000 A 
ENDBRANCH   3  10
TORSDOF 1
ENDMDL
MODEL 9
REMARK VINA RESULT:      -6.3      3.056      6.231
REMARK  Name = 
REMARK  1 active torsions:
REMARK  status: ('A' for Active; 'I' for Inactive)
REMARK    1  A    between atoms: N_3  and  C_4
REMARK                            x       y       z     vdW  Elec       q    Type
REMARK                         _______ _______ _______ _____ _____    ______ ____
ROOT
ATOM      1  O   UNL     1       4.417   1.823  18.907  0.00  0.00    +0.000 OA
ATOM      2  C   UNL     1       3.863   2.904  19.031  0.00  0.00    +0.000 C 
ATOM      3  N   UNL     1       4.134   4.114  18.421  0.00  0.00    +0.000 N 
ATOM      4  N   UNL     1       2.894   3.050  20.028  0.00  0.00    +0.000 N 
ATOM      5  C   UNL     1       1.705   3.751  19.991  0.00  0.00    +0.000 A 
ATOM      6  C   UNL     1       1.109   3.533  21.212  0.00  0.00    +0.000 A 
ATOM      7  N   UNL     1       1.907   2.763  22.013  0.00  0.00    +0.000 NA
ATOM      8  C   UNL     1       2.948   2.459  21.269  0.00  0.00    +0.000 A 
ATOM      9  H   UNL     1       3.835   4.956  18.903  0.00  0.00    +0.000 HD
ENDROOT
BRANCH   3  10
ATOM     10  C   UNL     1       5.124   4.276  17.426  0.00  0.00    +0.000 A 
ATOM     11  C   UNL     1       6.455   4.580  17.738  0.00  0.00    +0.000 A 
ATOM     12  C   UNL     1       7.404   4.749  16.726  0.00  0.00    +0.000 A 
ATOM     13  C   UNL     1       7.026   4.625  15.392  0.00  0.00    +0.000 A 
ATOM     14  C   UNL     1       5.705   4.318  15.085  0.00  0.00    +0.000 A 
ATOM     15  F   UNL     1       5.335   4.223  13.800  0.00  0.00    +0.000 F 
ATOM     16  C   UNL     1       4.755   4.116  16.086  0.00  0.00    +0.000 A 
ENDBRANCH   3  10
TORSDOF 1
ENDMDL
