MODEL 1
REMARK VINA RESULT:      -8.4      0.000      0.000
REMARK  Name = 
REMARK  7 active torsions:
REMARK  status: ('A' for Active; 'I' for Inactive)
REMARK    1  A    between atoms: C_1  and  O_2
REMARK    2  A    between atoms: O_2  and  C_3
REMARK    3  A    between atoms: C_3  and  C_5
REMARK    4  A    between atoms: C_8  and  C_9
REMARK    5  A    between atoms: C_10  and  C_11
REMARK    6  A    between atoms: C_14  and  C_15
REMARK    7  A    between atoms: N_17  and  C_18
REMARK                            x       y       z     vdW  Elec       q    Type
REMARK                         _______ _______ _______ _____ _____    ______ ____
ROOT
ATOM      1  C   UNL     1       2.577   6.690  19.049  0.00  0.00    +0.000 A 
ATOM      2  C   UNL     1       2.089   6.544  20.336  0.00  0.00    +0.000 A 
ATOM      3  C   UNL     1       1.377   7.686  20.796  0.00  0.00    +0.000 A 
ATOM      4  C   UNL     1       1.369   8.711  19.873  0.00  0.00    +0.000 A 
ATOM      5  S   UNL     1       2.159   8.245  18.436  0.00  0.00    +0.000 S 
ENDROOT
BRANCH   1  11
ATOM      6  C   UNL     1       5.469   5.234  17.064  0.00  0.00    +0.000 A 
ATOM      7  C   UNL     1       4.932   4.024  16.624  0.00  0.00    +0.000 A 
ATOM      8  C   UNL     1       3.623   3.677  16.954  0.00  0.00    +0.000 A 
ATOM      9  C   UNL     1       2.814   4.530  17.728  0.00  0.00    +0.000 A 
ATOM     10  C   UNL     1       1.402   4.083  18.002  0.00  0.00    +0.000 C 
ATOM     11  C   UNL     1       3.350   5.750  18.206  0.00  0.00    +0.000 A 
ATOM     12  C   UNL     1       4.682   6.078  17.858  0.00  0.00    +0.000 A 
BRANCH   6  13
ATOM     13  C   UNL     1       6.860   5.574  16.674  0.00  0.00    +0.000 C 
ATOM     14  O   UNL     1       7.726   4.730  16.483  0.00  0.00    +0.000 OA
BRANCH  13  16
ATOM     15  C   UNL     1       7.747   7.550  17.594  0.00  0.00    +0.000 C 
ATOM     16  O   UNL     1       7.019   6.915  16.539  0.00  0.00    +0.000 OA
ENDBRANCH  13  16
ENDBRANCH   6  13
ENDBRANCH   1  11
BRANCH   4  17
ATOM     17  C   UNL     1       0.770  10.026  20.052  0.00  0.00    +0.000 C 
ATOM     18  O   UNL     1       1.277  11.018  19.539  0.00  0.00    +0.000 OA
ATOM     19  N   UNL     1      -0.342  10.051  20.877  0.00  0.00    +0.000 N 
ATOM     20  H   UNL     1      -0.522   9.200  21.404  0.00  0.00    +0.000 HD
BRANCH  19  21
ATOM     21  C   UNL     1      -1.113  11.176  21.236  0.00  0.00    +0.000 A 
ATOM     22  C   UNL     1      -1.756  12.036  20.344  0.00  0.00    +0.000 A 
ATOM     23  F   UNL     1      -1.835  11.769  19.034  0.00  0.00    +0.000 F 
ATOM     24  C   UNL     1      -2.427  13.174  20.794  0.00  0.00    +0.000 A 
ATOM     25  C   UNL     1      -2.497  13.454  22.157  0.00  0.00    +0.000 A 
ATOM     26  C   UNL     1      -1.919  12.574  23.069  0.00  0.00    +0.000 A 
ATOM     27  C   UNL     1      -1.245  11.445  22.604  0.00  0.00    +0.000 A 
ATOM     28  F   UNL     1      -0.685  10.616  23.499  0.00  0.00    +0.000 F 
ENDBRANCH  19  21
ENDBRANCH   4  17
TORSDOF 5
ENDMDL
MODEL 2
REMARK VINA RESULT:      -8.3      1.247      1.276
REMARK  Name = 
REMARK  7 active torsions:
REMARK  status: ('A' for Active; 'I' for Inactive)
REMARK    1  A    between atoms: C_1  and  O_2
REMARK    2  A    between atoms: O_2  and  C_3
REMARK    3  A    between atoms: C_3  and  C_5
REMARK    4  A    between atoms: C_8  and  C_9
REMARK    5  A    between atoms: C_10  and  C_11
REMARK    6  A    between atoms: C_14  and  C_15
REMARK    7  A    between atoms: N_17  and  C_18
REMARK                            x       y       z     vdW  Elec       q    Type
REMARK                         _______ _______ _______ _____ _____    ______ ____
ROOT
ATOM      1  C   UNL     1       2.580   6.804  19.011  0.00  0.00    +0.000 A 
ATOM      2  C   UNL     1       2.126   6.627  20.307  0.00  0.00    +0.000 A 
ATOM      3  C   UNL     1       1.321   7.704  20.769  0.00  0.00    +0.000 A 
ATOM      4  C   UNL     1       1.208   8.716  19.838  0.00  0.00    +0.000 A 
ATOM      5  S   UNL     1       2.014   8.309  18.392  0.00  0.00    +0.000 S 
ENDROOT
BRANCH   1  11
ATOM      6  C   UNL     1       5.593   5.551  17.071  0.00  0.00    +0.000 A 
ATOM      7  C   UNL     1       5.129   4.331  16.579  0.00  0.00    +0.000 A 
ATOM      8  C   UNL     1       3.830   3.911  16.860  0.00  0.00    +0.000 A 
ATOM      9  C   UNL     1       2.959   4.700  17.635  0.00  0.00    +0.000 A 
ATOM     10  C   UNL     1       1.563   4.177  17.853  0.00  0.00    +0.000 C 
ATOM     11  C   UNL     1       3.421   5.929  18.165  0.00  0.00    +0.000 A 
ATOM     12  C   UNL     1       4.744   6.331  17.866  0.00  0.00    +0.000 A 
BRANCH   6  13
ATOM     13  C   UNL     1       6.976   5.970  16.732  0.00  0.00    +0.000 C 
ATOM     14  O   UNL     1       7.486   5.771  15.637  0.00  0.00    +0.000 OA
BRANCH  13  16
ATOM     15  C   UNL     1       7.814   8.001  17.573  0.00  0.00    +0.000 C 
ATOM     16  O   UNL     1       7.566   6.607  17.774  0.00  0.00    +0.000 OA
ENDBRANCH  13  16
ENDBRANCH   6  13
ENDBRANCH   1  11
BRANCH   4  17
ATOM     17  C   UNL     1       0.495   9.974  20.016  0.00  0.00    +0.000 C 
ATOM     18  O   UNL     1      -0.153  10.459  19.095  0.00  0.00    +0.000 OA
ATOM     19  N   UNL     1       0.671  10.571  21.252  0.00  0.00    +0.000 N 
ATOM     20  H   UNL     1       1.401  10.174  21.838  0.00  0.00    +0.000 HD
BRANCH  19  21
ATOM     21  C   UNL     1       0.116  11.790  21.698  0.00  0.00    +0.000 A 
ATOM     22  C   UNL     1       0.510  13.061  21.277  0.00  0.00    +0.000 A 
ATOM     23  F   UNL     1       1.364  13.239  20.262  0.00  0.00    +0.000 F 
ATOM     24  C   UNL     1      -0.042  14.212  21.841  0.00  0.00    +0.000 A 
ATOM     25  C   UNL     1      -1.031  14.110  22.818  0.00  0.00    +0.000 A 
ATOM     26  C   UNL     1      -1.486  12.852  23.205  0.00  0.00    +0.000 A 
ATOM     27  C   UNL     1      -0.918  11.710  22.638  0.00  0.00    +0.000 A 
ATOM     28  F   UNL     1      -1.362  10.507  23.034  0.00  0.00    +0.000 F 
ENDBRANCH  19  21
ENDBRANCH   4  17
TORSDOF 5
ENDMDL
MODEL 3
REMARK VINA RESULT:      -8.3      0.682      1.111
REMARK  Name = 
REMARK  7 active torsions:
REMARK  status: ('A' for Active; 'I' for Inactive)
REMARK    1  A    between atoms: C_1  and  O_2
REMARK    2  A    between atoms: O_2  and  C_3
REMARK    3  A    between atoms: C_3  and  C_5
REMARK    4  A    between atoms: C_8  and  C_9
REMARK    5  A    between atoms: C_10  and  C_11
REMARK    6  A    between atoms: C_14  and  C_15
REMARK    7  A    between atoms: N_17  and  C_18
REMARK                            x       y       z     vdW  Elec       q    Type
REMARK                         _______ _______ _______ _____ _____    ______ ____
ROOT
ATOM      1  C   UNL     1       2.706   6.797  18.810  0.00  0.00    +0.000 A 
ATOM      2  C   UNL     1       2.302   6.738  20.133  0.00  0.00    +0.000 A 
ATOM      3  C   UNL     1       1.574   7.889  20.546  0.00  0.00    +0.000 A 
ATOM      4  C   UNL     1       1.472   8.835  19.548  0.00  0.00    +0.000 A 
ATOM      5  S   UNL     1       2.191   8.283  18.105  0.00  0.00    +0.000 S 
ENDROOT
BRANCH   1  11
ATOM      6  C   UNL     1       5.537   5.276  16.788  0.00  0.00    +0.000 A 
ATOM      7  C   UNL     1       5.014   4.025  16.460  0.00  0.00    +0.000 A 
ATOM      8  C   UNL     1       3.732   3.670  16.879  0.00  0.00    +0.000 A 
ATOM      9  C   UNL     1       2.939   4.556  17.632  0.00  0.00    +0.000 A 
ATOM     10  C   UNL     1       1.554   4.095  18.006  0.00  0.00    +0.000 C 
ATOM     11  C   UNL     1       3.463   5.819  17.997  0.00  0.00    +0.000 A 
ATOM     12  C   UNL     1       4.766   6.154  17.561  0.00  0.00    +0.000 A 
BRANCH   6  13
ATOM     13  C   UNL     1       6.898   5.622  16.306  0.00  0.00    +0.000 C 
ATOM     14  O   UNL     1       7.495   6.632  16.655  0.00  0.00    +0.000 OA
BRANCH  13  16
ATOM     15  C   UNL     1       7.194   4.938  14.074  0.00  0.00    +0.000 C 
ATOM     16  O   UNL     1       7.378   4.670  15.466  0.00  0.00    +0.000 OA
ENDBRANCH  13  16
ENDBRANCH   6  13
ENDBRANCH   1  11
BRANCH   4  17
ATOM     17  C   UNL     1       0.833  10.140  19.661  0.00  0.00    +0.000 C 
ATOM     18  O   UNL     1       1.291  11.111  19.069  0.00  0.00    +0.000 OA
ATOM     19  N   UNL     1      -0.253  10.182  20.518  0.00  0.00    +0.000 N 
ATOM     20  H   UNL     1      -0.388   9.363  21.105  0.00  0.00    +0.000 HD
BRANCH  19  21
ATOM     21  C   UNL     1      -1.051  11.304  20.829  0.00  0.00    +0.000 A 
ATOM     22  C   UNL     1      -1.817  12.031  19.916  0.00  0.00    +0.000 A 
ATOM     23  F   UNL     1      -1.997  11.620  18.654  0.00  0.00    +0.000 F 
ATOM     24  C   UNL     1      -2.508  13.179  20.305  0.00  0.00    +0.000 A 
ATOM     25  C   UNL     1      -2.473  13.603  21.632  0.00  0.00    +0.000 A 
ATOM     26  C   UNL     1      -1.769  12.855  22.573  0.00  0.00    +0.000 A 
ATOM     27  C   UNL     1      -1.077  11.714  22.167  0.00  0.00    +0.000 A 
ATOM     28  F   UNL     1      -0.395  11.014  23.088  0.00  0.00    +0.000 F 
ENDBRANCH  19  21
ENDBRANCH   4  17
TORSDOF 5
ENDMDL
MODEL 4
REMARK VINA RESULT:      -8.2      2.497      3.894
REMARK  Name = 
REMARK  7 active torsions:
REMARK  status: ('A' for Active; 'I' for Inactive)
REMARK    1  A    between atoms: C_1  and  O_2
REMARK    2  A    between atoms: O_2  and  C_3
REMARK    3  A    between atoms: C_3  and  C_5
REMARK    4  A    between atoms: C_8  and  C_9
REMARK    5  A    between atoms: C_10  and  C_11
REMARK    6  A    between atoms: C_14  and  C_15
REMARK    7  A    between atoms: N_17  and  C_18
REMARK                            x       y       z     vdW  Elec       q    Type
REMARK                         _______ _______ _______ _____ _____    ______ ____
ROOT
ATOM      1  C   UNL     1       2.080   7.585  18.576  0.00  0.00    +0.000 A 
ATOM      2  C   UNL     1       1.920   8.649  17.705  0.00  0.00    +0.000 A 
ATOM      3  C   UNL     1       1.463   9.833  18.346  0.00  0.00    +0.000 A 
ATOM      4  C   UNL     1       1.232   9.648  19.694  0.00  0.00    +0.000 A 
ATOM      5  S   UNL     1       1.647   8.065  20.173  0.00  0.00    +0.000 S 
ENDROOT
BRANCH   1  11
ATOM      6  C   UNL     1       2.119   3.788  18.561  0.00  0.00    +0.000 A 
ATOM      7  C   UNL     1       3.304   3.518  17.875  0.00  0.00    +0.000 A 
ATOM      8  C   UNL     1       4.107   4.565  17.425  0.00  0.00    +0.000 A 
ATOM      9  C   UNL     1       3.752   5.907  17.652  0.00  0.00    +0.000 A 
ATOM     10  C   UNL     1       4.704   6.966  17.158  0.00  0.00    +0.000 C 
ATOM     11  C   UNL     1       2.541   6.202  18.323  0.00  0.00    +0.000 A 
ATOM     12  C   UNL     1       1.743   5.122  18.767  0.00  0.00    +0.000 A 
BRANCH   6  13
ATOM     13  C   UNL     1       1.303   2.645  19.040  0.00  0.00    +0.000 C 
ATOM     14  O   UNL     1       0.297   2.253  18.463  0.00  0.00    +0.000 OA
BRANCH  13  16
ATOM     15  C   UNL     1       1.428   2.713  21.389  0.00  0.00    +0.000 C 
ATOM     16  O   UNL     1       1.834   2.098  20.162  0.00  0.00    +0.000 OA
ENDBRANCH  13  16
ENDBRANCH   6  13
ENDBRANCH   1  11
BRANCH   4  17
ATOM     17  C   UNL     1       0.717  10.644  20.624  0.00  0.00    +0.000 C 
ATOM     18  O   UNL     1       1.458  11.169  21.448  0.00  0.00    +0.000 OA
ATOM     19  N   UNL     1      -0.644  10.875  20.531  0.00  0.00    +0.000 N 
ATOM     20  H   UNL     1      -1.169  10.218  19.959  0.00  0.00    +0.000 HD
BRANCH  19  21
ATOM     21  C   UNL     1      -1.413  11.770  21.306  0.00  0.00    +0.000 A 
ATOM     22  C   UNL     1      -1.709  11.619  22.662  0.00  0.00    +0.000 A 
ATOM     23  F   UNL     1      -1.139  10.666  23.411  0.00  0.00    +0.000 F 
ATOM     24  C   UNL     1      -2.551  12.515  23.322  0.00  0.00    +0.000 A 
ATOM     25  C   UNL     1      -3.085  13.607  22.641  0.00  0.00    +0.000 A 
ATOM     26  C   UNL     1      -2.748  13.814  21.305  0.00  0.00    +0.000 A 
ATOM     27  C   UNL     1      -1.913  12.904  20.657  0.00  0.00    +0.000 A 
ATOM     28  F   UNL     1      -1.611  13.116  19.365  0.00  0.00    +0.000 F 
ENDBRANCH  19  21
ENDBRANCH   4  17
TORSDOF 5
ENDMDL
MODEL 5
REMARK VINA RESULT:      -8.1      1.588      2.152
REMARK  Name = 
REMARK  7 active torsions:
REMARK  status: ('A' for Active; 'I' for Inactive)
REMARK    1  A    between atoms: C_1  and  O_2
REMARK    2  A    between atoms: O_2  and  C_3
REMARK    3  A    between atoms: C_3  and  C_5
REMARK    4  A    between atoms: C_8  and  C_9
REMARK    5  A    between atoms: C_10  and  C_11
REMARK    6  A    between atoms: C_14  and  C_15
REMARK    7  A    between atoms: N_17  and  C_18
REMARK                            x       y       z     vdW  Elec       q    Type
REMARK                         _______ _______ _______ _____ _____    ______ ____
ROOT
ATOM      1  C   UNL     1       2.809   6.948  18.279  0.00  0.00    +0.000 A 
ATOM      2  C   UNL     1       2.330   8.083  17.647  0.00  0.00    +0.000 A 
ATOM      3  C   UNL     1       1.735   9.013  18.545  0.00  0.00    +0.000 A 
ATOM      4  C   UNL     1       1.724   8.556  19.846  0.00  0.00    +0.000 A 
ATOM      5  S   UNL     1       2.503   7.045  19.971  0.00  0.00    +0.000 S 
ENDROOT
BRANCH   1  11
ATOM      6  C   UNL     1       5.575   4.779  16.844  0.00  0.00    +0.000 A 
ATOM      7  C   UNL     1       4.921   3.559  16.672  0.00  0.00    +0.000 A 
ATOM      8  C   UNL     1       3.573   3.433  17.006  0.00  0.00    +0.000 A 
ATOM      9  C   UNL     1       2.843   4.523  17.515  0.00  0.00    +0.000 A 
ATOM     10  C   UNL     1       1.383   4.298  17.812  0.00  0.00    +0.000 C 
ATOM     11  C   UNL     1       3.497   5.762  17.721  0.00  0.00    +0.000 A 
ATOM     12  C   UNL     1       4.865   5.862  17.376  0.00  0.00    +0.000 A 
BRANCH   6  13
ATOM     13  C   UNL     1       7.005   4.875  16.458  0.00  0.00    +0.000 C 
ATOM     14  O   UNL     1       7.908   4.348  17.096  0.00  0.00    +0.000 OA
BRANCH  13  16
ATOM     15  C   UNL     1       7.082   4.828  14.106  0.00  0.00    +0.000 C 
ATOM     16  O   UNL     1       7.159   5.589  15.314  0.00  0.00    +0.000 OA
ENDBRANCH  13  16
ENDBRANCH   6  13
ENDBRANCH   1  11
BRANCH   4  17
ATOM     17  C   UNL     1       1.148   9.243  20.995  0.00  0.00    +0.000 C 
ATOM     18  O   UNL     1       1.236   8.760  22.118  0.00  0.00    +0.000 OA
ATOM     19  N   UNL     1       0.466  10.409  20.692  0.00  0.00    +0.000 N 
ATOM     20  H   UNL     1       0.288  10.576  19.705  0.00  0.00    +0.000 HD
BRANCH  19  21
ATOM     21  C   UNL     1      -0.196  11.269  21.594  0.00  0.00    +0.000 A 
ATOM     22  C   UNL     1      -1.100  10.869  22.579  0.00  0.00    +0.000 A 
ATOM     23  F   UNL     1      -1.304   9.579  22.873  0.00  0.00    +0.000 F 
ATOM     24  C   UNL     1      -1.771  11.805  23.368  0.00  0.00    +0.000 A 
ATOM     25  C   UNL     1      -1.519  13.166  23.207  0.00  0.00    +0.000 A 
ATOM     26  C   UNL     1      -0.572  13.584  22.276  0.00  0.00    +0.000 A 
ATOM     27  C   UNL     1       0.084  12.637  21.489  0.00  0.00    +0.000 A 
ATOM     28  F   UNL     1       0.985  13.062  20.588  0.00  0.00    +0.000 F 
ENDBRANCH  19  21
ENDBRANCH   4  17
TORSDOF 5
ENDMDL
MODEL 6
REMARK VINA RESULT:      -8.1      1.388      1.773
REMARK  Name = 
REMARK  7 active torsions:
REMARK  status: ('A' for Active; 'I' for Inactive)
REMARK    1  A    between atoms: C_1  and  O_2
REMARK    2  A    between atoms: O_2  and  C_3
REMARK    3  A    between atoms: C_3  and  C_5
REMARK    4  A    between atoms: C_8  and  C_9
REMARK    5  A    between atoms: C_10  and  C_11
REMARK    6  A    between atoms: C_14  and  C_15
REMARK    7  A    between atoms: N_17  and  C_18
REMARK                            x       y       z     vdW  Elec       q    Type
REMARK                         _______ _______ _______ _____ _____    ______ ____
ROOT
ATOM      1  C   UNL     1       2.705   6.620  18.986  0.00  0.00    +0.000 A 
ATOM      2  C   UNL     1       2.261   6.531  20.295  0.00  0.00    +0.000 A 
ATOM      3  C   UNL     1       1.507   7.665  20.707  0.00  0.00    +0.000 A 
ATOM      4  C   UNL     1       1.423   8.629  19.724  0.00  0.00    +0.000 A 
ATOM      5  S   UNL     1       2.194   8.112  18.293  0.00  0.00    +0.000 S 
ENDROOT
BRANCH   1  11
ATOM      6  C   UNL     1       5.691   5.049  17.244  0.00  0.00    +0.000 A 
ATOM      7  C   UNL     1       5.122   3.907  16.678  0.00  0.00    +0.000 A 
ATOM      8  C   UNL     1       3.763   3.645  16.845  0.00  0.00    +0.000 A 
ATOM      9  C   UNL     1       2.936   4.518  17.575  0.00  0.00    +0.000 A 
ATOM     10  C   UNL     1       1.473   4.167  17.668  0.00  0.00    +0.000 C 
ATOM     11  C   UNL     1       3.500   5.667  18.179  0.00  0.00    +0.000 A 
ATOM     12  C   UNL     1       4.881   5.909  17.996  0.00  0.00    +0.000 A 
BRANCH   6  13
ATOM     13  C   UNL     1       7.137   5.300  17.027  0.00  0.00    +0.000 C 
ATOM     14  O   UNL     1       8.001   4.457  17.232  0.00  0.00    +0.000 OA
BRANCH  13  16
ATOM     15  C   UNL     1       7.746   7.513  17.544  0.00  0.00    +0.000 C 
ATOM     16  O   UNL     1       7.353   6.555  16.558  0.00  0.00    +0.000 OA
ENDBRANCH  13  16
ENDBRANCH   6  13
ENDBRANCH   1  11
BRANCH   4  17
ATOM     17  C   UNL     1       0.765   9.923  19.841  0.00  0.00    +0.000 C 
ATOM     18  O   UNL     1       0.188  10.418  18.879  0.00  0.00    +0.000 OA
ATOM     19  N   UNL     1       0.908  10.538  21.073  0.00  0.00    +0.000 N 
ATOM     20  H   UNL     1       1.588  10.118  21.702  0.00  0.00    +0.000 HD
BRANCH  19  21
ATOM     21  C   UNL     1       0.392  11.791  21.467  0.00  0.00    +0.000 A 
ATOM     22  C   UNL     1      -0.707  11.987  22.304  0.00  0.00    +0.000 A 
ATOM     23  F   UNL     1      -1.291  10.975  22.958  0.00  0.00    +0.000 F 
ATOM     24  C   UNL     1      -1.196  13.267  22.567  0.00  0.00    +0.000 A 
ATOM     25  C   UNL     1      -0.565  14.384  22.023  0.00  0.00    +0.000 A 
ATOM     26  C   UNL     1       0.574  14.215  21.239  0.00  0.00    +0.000 A 
ATOM     27  C   UNL     1       1.044  12.928  20.978  0.00  0.00    +0.000 A 
ATOM     28  F   UNL     1       2.137  12.787  20.210  0.00  0.00    +0.000 F 
ENDBRANCH  19  21
ENDBRANCH   4  17
TORSDOF 5
ENDMDL
MODEL 7
REMARK VINA RESULT:      -8.1      2.077      2.193
REMARK  Name = 
REMARK  7 active torsions:
REMARK  status: ('A' for Active; 'I' for Inactive)
REMARK    1  A    between atoms: C_1  and  O_2
REMARK    2  A    between atoms: O_2  and  C_3
REMARK    3  A    between atoms: C_3  and  C_5
REMARK    4  A    between atoms: C_8  and  C_9
REMARK    5  A    between atoms: C_10  and  C_11
REMARK    6  A    between atoms: C_14  and  C_15
REMARK    7  A    between atoms: N_17  and  C_18
REMARK                            x       y       z     vdW  Elec       q    Type
REMARK                         _______ _______ _______ _____ _____    ______ ____
ROOT
ATOM      1  C   UNL     1       2.633   6.711  19.076  0.00  0.00    +0.000 A 
ATOM      2  C   UNL     1       2.152   6.592  20.369  0.00  0.00    +0.000 A 
ATOM      3  C   UNL     1       1.403   7.724  20.793  0.00  0.00    +0.000 A 
ATOM      4  C   UNL     1       1.359   8.716  19.836  0.00  0.00    +0.000 A 
ATOM      5  S   UNL     1       2.161   8.229  18.412  0.00  0.00    +0.000 S 
ENDROOT
BRANCH   1  11
ATOM      6  C   UNL     1       5.637   5.161  17.346  0.00  0.00    +0.000 A 
ATOM      7  C   UNL     1       5.073   4.029  16.755  0.00  0.00    +0.000 A 
ATOM      8  C   UNL     1       3.712   3.768  16.900  0.00  0.00    +0.000 A 
ATOM      9  C   UNL     1       2.877   4.631  17.634  0.00  0.00    +0.000 A 
ATOM     10  C   UNL     1       1.412   4.281  17.703  0.00  0.00    +0.000 C 
ATOM     11  C   UNL     1       3.435   5.769  18.263  0.00  0.00    +0.000 A 
ATOM     12  C   UNL     1       4.820   6.011  18.102  0.00  0.00    +0.000 A 
BRANCH   6  13
ATOM     13  C   UNL     1       7.086   5.412  17.151  0.00  0.00    +0.000 C 
ATOM     14  O   UNL     1       7.951   4.588  17.421  0.00  0.00    +0.000 OA
BRANCH  13  16
ATOM     15  C   UNL     1       7.744   7.635  17.554  0.00  0.00    +0.000 C 
ATOM     16  O   UNL     1       7.305   6.643  16.623  0.00  0.00    +0.000 OA
ENDBRANCH  13  16
ENDBRANCH   6  13
ENDBRANCH   1  11
BRANCH   4  17
ATOM     17  C   UNL     1       0.716  10.016  19.972  0.00  0.00    +0.000 C 
ATOM     18  O   UNL     1      -0.353  10.124  20.562  0.00  0.00    +0.000 OA
ATOM     19  N   UNL     1       1.373  11.058  19.340  0.00  0.00    +0.000 N 
ATOM     20  H   UNL     1       2.127  10.792  18.711  0.00  0.00    +0.000 HD
BRANCH  19  21
ATOM     21  C   UNL     1       0.980  12.413  19.295  0.00  0.00    +0.000 A 
ATOM     22  C   UNL     1      -0.082  12.923  18.548  0.00  0.00    +0.000 A 
ATOM     23  F   UNL     1      -0.952  12.126  17.914  0.00  0.00    +0.000 F 
ATOM     24  C   UNL     1      -0.340  14.294  18.501  0.00  0.00    +0.000 A 
ATOM     25  C   UNL     1       0.445  15.180  19.236  0.00  0.00    +0.000 A 
ATOM     26  C   UNL     1       1.468  14.686  20.041  0.00  0.00    +0.000 A 
ATOM     27  C   UNL     1       1.719  13.314  20.070  0.00  0.00    +0.000 A 
ATOM     28  F   UNL     1       2.719  12.860  20.843  0.00  0.00    +0.000 F 
ENDBRANCH  19  21
ENDBRANCH   4  17
TORSDOF 5
ENDMDL
MODEL 8
REMARK VINA RESULT:      -8.0      1.505      1.649
REMARK  Name = 
REMARK  7 active torsions:
REMARK  status: ('A' for Active; 'I' for Inactive)
REMARK    1  A    between atoms: C_1  and  O_2
REMARK    2  A    between atoms: O_2  and  C_3
REMARK    3  A    between atoms: C_3  and  C_5
REMARK    4  A    between atoms: C_8  and  C_9
REMARK    5  A    between atoms: C_10  and  C_11
REMARK    6  A    between atoms: C_14  and  C_15
REMARK    7  A    between atoms: N_17  and  C_18
REMARK                            x       y       z     vdW  Elec       q    Type
REMARK                         _______ _______ _______ _____ _____    ______ ____
ROOT
ATOM      1  C   UNL     1       2.690   6.569  18.912  0.00  0.00    +0.000 A 
ATOM      2  C   UNL     1       2.254   6.544  20.225  0.00  0.00    +0.000 A 
ATOM      3  C   UNL     1       1.569   7.730  20.609  0.00  0.00    +0.000 A 
ATOM      4  C   UNL     1       1.531   8.668  19.599  0.00  0.00    +0.000 A 
ATOM      5  S   UNL     1       2.258   8.067  18.178  0.00  0.00    +0.000 S 
ENDROOT
BRANCH   1  11
ATOM      6  C   UNL     1       5.545   4.829  17.111  0.00  0.00    +0.000 A 
ATOM      7  C   UNL     1       4.928   3.662  16.659  0.00  0.00    +0.000 A 
ATOM      8  C   UNL     1       3.577   3.437  16.922  0.00  0.00    +0.000 A 
ATOM      9  C   UNL     1       2.807   4.372  17.637  0.00  0.00    +0.000 A 
ATOM     10  C   UNL     1       1.348   4.055  17.839  0.00  0.00    +0.000 C 
ATOM     11  C   UNL     1       3.422   5.549  18.127  0.00  0.00    +0.000 A 
ATOM     12  C   UNL     1       4.793   5.753  17.848  0.00  0.00    +0.000 A 
BRANCH   6  13
ATOM     13  C   UNL     1       6.979   5.039  16.793  0.00  0.00    +0.000 C 
ATOM     14  O   UNL     1       7.889   4.577  17.470  0.00  0.00    +0.000 OA
BRANCH  13  16
ATOM     15  C   UNL     1       7.161   5.022  14.447  0.00  0.00    +0.000 C 
ATOM     16  O   UNL     1       7.130   5.774  15.663  0.00  0.00    +0.000 OA
ENDBRANCH  13  16
ENDBRANCH   6  13
ENDBRANCH   1  11
BRANCH   4  17
ATOM     17  C   UNL     1       0.949  10.001  19.683  0.00  0.00    +0.000 C 
ATOM     18  O   UNL     1       0.522  10.559  18.678  0.00  0.00    +0.000 OA
ATOM     19  N   UNL     1       0.987  10.573  20.943  0.00  0.00    +0.000 N 
ATOM     20  H   UNL     1       1.560  10.092  21.632  0.00  0.00    +0.000 HD
BRANCH  19  21
ATOM     21  C   UNL     1       0.510  11.847  21.316  0.00  0.00    +0.000 A 
ATOM     22  C   UNL     1       1.065  13.067  20.924  0.00  0.00    +0.000 A 
ATOM     23  F   UNL     1       2.031  13.142  20.000  0.00  0.00    +0.000 F 
ATOM     24  C   UNL     1       0.573  14.276  21.417  0.00  0.00    +0.000 A 
ATOM     25  C   UNL     1      -0.514  14.288  22.288  0.00  0.00    +0.000 A 
ATOM     26  C   UNL     1      -1.126  13.087  22.639  0.00  0.00    +0.000 A 
ATOM     27  C   UNL     1      -0.616  11.886  22.146  0.00  0.00    +0.000 A 
ATOM     28  F   UNL     1      -1.213  10.738  22.507  0.00  0.00    +0.000 F 
ENDBRANCH  19  21
ENDBRANCH   4  17
TORSDOF 5
ENDMDL
MODEL 9
REMARK VINA RESULT:      -8.0      1.961      2.491
REMARK  Name = 
REMARK  7 active torsions:
REMARK  status: ('A' for Active; 'I' for Inactive)
REMARK    1  A    between atoms: C_1  and  O_2
REMARK    2  A    between atoms: O_2  and  C_3
REMARK    3  A    between atoms: C_3  and  C_5
REMARK    4  A    between atoms: C_8  and  C_9
REMARK    5  A    between atoms: C_10  and  C_11
REMARK    6  A    between atoms: C_14  and  C_15
REMARK    7  A    between atoms: N_17  and  C_18
REMARK                            x       y       z     vdW  Elec       q    Type
REMARK                         _______ _______ _______ _____ _____    ______ ____
ROOT
ATOM      1  C   UNL     1       2.634   6.973  18.734  0.00  0.00    +0.000 A 
ATOM      2  C   UNL     1       2.210   7.026  20.051  0.00  0.00    +0.000 A 
ATOM      3  C   UNL     1       1.446   8.189  20.345  0.00  0.00    +0.000 A 
ATOM      4  C   UNL     1       1.334   9.035  19.261  0.00  0.00    +0.000 A 
ATOM      5  S   UNL     1       2.090   8.370  17.886  0.00  0.00    +0.000 S 
ENDROOT
BRANCH   1  11
ATOM      6  C   UNL     1       5.587   5.298  17.034  0.00  0.00    +0.000 A 
ATOM      7  C   UNL     1       5.054   4.053  16.698  0.00  0.00    +0.000 A 
ATOM      8  C   UNL     1       3.729   3.751  17.007  0.00  0.00    +0.000 A 
ATOM      9  C   UNL     1       2.899   4.686  17.654  0.00  0.00    +0.000 A 
ATOM     10  C   UNL     1       1.471   4.280  17.913  0.00  0.00    +0.000 C 
ATOM     11  C   UNL     1       3.430   5.945  18.026  0.00  0.00    +0.000 A 
ATOM     12  C   UNL     1       4.778   6.225  17.703  0.00  0.00    +0.000 A 
BRANCH   6  13
ATOM     13  C   UNL     1       6.997   5.585  16.670  0.00  0.00    +0.000 C 
ATOM     14  O   UNL     1       7.809   4.710  16.399  0.00  0.00    +0.000 OA
BRANCH  13  16
ATOM     15  C   UNL     1       7.847   7.439  17.843  0.00  0.00    +0.000 C 
ATOM     16  O   UNL     1       7.239   6.920  16.657  0.00  0.00    +0.000 OA
ENDBRANCH  13  16
ENDBRANCH   6  13
ENDBRANCH   1  11
BRANCH   4  17
ATOM     17  C   UNL     1       0.659  10.326  19.243  0.00  0.00    +0.000 C 
ATOM     18  O   UNL     1      -0.445  10.445  18.722  0.00  0.00    +0.000 OA
ATOM     19  N   UNL     1       1.386  11.369  19.789  0.00  0.00    +0.000 N 
ATOM     20  H   UNL     1       2.365  11.174  19.985  0.00  0.00    +0.000 HD
BRANCH  19  21
ATOM     21  C   UNL     1       0.992  12.720  19.895  0.00  0.00    +0.000 A 
ATOM     22  C   UNL     1       0.258  13.269  20.948  0.00  0.00    +0.000 A 
ATOM     23  F   UNL     1      -0.008  12.578  22.064  0.00  0.00    +0.000 F 
ATOM     24  C   UNL     1      -0.158  14.601  20.922  0.00  0.00    +0.000 A 
ATOM     25  C   UNL     1       0.188  15.423  19.851  0.00  0.00    +0.000 A 
ATOM     26  C   UNL     1       0.977  14.914  18.822  0.00  0.00    +0.000 A 
ATOM     27  C   UNL     1       1.377  13.578  18.858  0.00  0.00    +0.000 A 
ATOM     28  F   UNL     1       2.127  13.103  17.850  0.00  0.00    +0.000 F 
ENDBRANCH  19  21
ENDBRANCH   4  17
TORSDOF 5
ENDMDL
