MODEL 1
REMARK VINA RESULT:      -9.2      0.000      0.000
REMARK  Name = 
REMARK  6 active torsions:
REMARK  status: ('A' for Active; 'I' for Inactive)
REMARK    1  A    between atoms: O_1  and  C_2
REMARK    2  A    between atoms: C_6  and  C_7
REMARK    3  A    between atoms: C_9  and  C_10
REMARK    4  A    between atoms: C_13  and  O_14
REMARK    5  A    between atoms: O_14  and  C_15
REMARK    6  A    between atoms: C_18  and  C_19
REMARK                            x       y       z     vdW  Elec       q    Type
REMARK                         _______ _______ _______ _____ _____    ______ ____
ROOT
ATOM      1  C   UNL     1       7.907   7.935  18.087  0.00  0.00    +0.000 A 
ATOM      2  C   UNL     1       8.219   6.764  18.794  0.00  0.00    +0.000 A 
ATOM      3  C   UNL     1       7.570   5.561  18.499  0.00  0.00    +0.000 A 
ATOM      4  C   UNL     1       6.607   5.518  17.493  0.00  0.00    +0.000 A 
ATOM      5  C   UNL     1       6.354   6.656  16.724  0.00  0.00    +0.000 A 
ATOM      6  C   UNL     1       6.978   7.864  17.039  0.00  0.00    +0.000 A 
ENDROOT
BRANCH   1   9
ATOM      7  C   UNL     1       9.104  11.219  18.322  0.00  0.00    +0.000 A 
ATOM      8  N   UNL     1       8.350  10.346  17.694  0.00  0.00    +0.000 NA
ATOM      9  C   UNL     1       8.514   9.208  18.453  0.00  0.00    +0.000 A 
ATOM     10  N   UNL     1       9.313   9.376  19.519  0.00  0.00    +0.000 NA
ATOM     11  O   UNL     1       9.707  10.707  19.432  0.00  0.00    +0.000 OA
BRANCH   7  16
ATOM     12  C   UNL     1      10.013  15.277  17.377  0.00  0.00    +0.000 A 
ATOM     13  C   UNL     1      10.970  14.279  17.241  0.00  0.00    +0.000 A 
ATOM     14  F   UNL     1      12.202  14.603  16.818  0.00  0.00    +0.000 F 
ATOM     15  C   UNL     1      10.670  12.955  17.542  0.00  0.00    +0.000 A 
ATOM     16  C   UNL     1       9.384  12.607  17.987  0.00  0.00    +0.000 A 
ATOM     17  C   UNL     1       8.418  13.617  18.116  0.00  0.00    +0.000 A 
ATOM     18  C   UNL     1       8.740  14.939  17.814  0.00  0.00    +0.000 A 
ATOM     19  F   UNL     1       7.798  15.882  17.958  0.00  0.00    +0.000 F 
BRANCH  12  20
ATOM     20  O   UNL     1      10.320  16.575  17.088  0.00  0.00    +0.000 OA
ATOM     21  H   UNL     1       9.934  16.782  16.218  0.00  0.00    +0.000 HD
ENDBRANCH  12  20
ENDBRANCH   7  16
ENDBRANCH   1   9
BRANCH   4  22
ATOM     22  O   UNL     1       5.982   4.307  17.291  0.00  0.00    +0.000 OA
BRANCH  22  23
ATOM     23  C   UNL     1       4.756   4.068  17.873  0.00  0.00    +0.000 A 
ATOM     24  C   UNL     1       4.790   3.526  19.160  0.00  0.00    +0.000 A 
ATOM     25  C   UNL     1       3.601   3.245  19.839  0.00  0.00    +0.000 A 
ATOM     26  C   UNL     1       2.361   3.502  19.236  0.00  0.00    +0.000 A 
ATOM     27  C   UNL     1       2.336   4.068  17.953  0.00  0.00    +0.000 A 
ATOM     28  C   UNL     1       3.525   4.377  17.289  0.00  0.00    +0.000 A 
BRANCH  26  29
ATOM     29  C   UNL     1       1.064   3.198  19.944  0.00  0.00    +0.000 C 
ATOM     30  F   UNL     1       0.405   4.307  20.383  0.00  0.00    +0.000 F 
ATOM     31  F   UNL     1       0.183   2.531  19.148  0.00  0.00    +0.000 F 
ATOM     32  F   UNL     1       1.243   2.411  21.042  0.00  0.00    +0.000 F 
ENDBRANCH  26  29
ENDBRANCH  22  23
ENDBRANCH   4  22
TORSDOF 6
ENDMDL
MODEL 2
REMARK VINA RESULT:      -9.2      8.427     11.677
REMARK  Name = 
REMARK  6 active torsions:
REMARK  status: ('A' for Active; 'I' for Inactive)
REMARK    1  A    between atoms: O_1  and  C_2
REMARK    2  A    between atoms: C_6  and  C_7
REMARK    3  A    between atoms: C_9  and  C_10
REMARK    4  A    between atoms: C_13  and  O_14
REMARK    5  A    between atoms: O_14  and  C_15
REMARK    6  A    between atoms: C_18  and  C_19
REMARK                            x       y       z     vdW  Elec       q    Type
REMARK                         _______ _______ _______ _____ _____    ______ ____
ROOT
ATOM      1  C   UNL     1       0.362   9.710  20.981  0.00  0.00    +0.000 A 
ATOM      2  C   UNL     1      -0.238   9.351  22.197  0.00  0.00    +0.000 A 
ATOM      3  C   UNL     1      -0.915  10.304  22.965  0.00  0.00    +0.000 A 
ATOM      4  C   UNL     1      -1.001  11.621  22.521  0.00  0.00    +0.000 A 
ATOM      5  C   UNL     1      -0.486  11.969  21.271  0.00  0.00    +0.000 A 
ATOM      6  C   UNL     1       0.218  11.026  20.520  0.00  0.00    +0.000 A 
ENDROOT
BRANCH   1   9
ATOM      7  C   UNL     1       2.230   6.998  19.785  0.00  0.00    +0.000 A 
ATOM      8  N   UNL     1       1.477   7.506  20.733  0.00  0.00    +0.000 NA
ATOM      9  C   UNL     1       1.147   8.742  20.225  0.00  0.00    +0.000 A 
ATOM     10  N   UNL     1       1.653   8.981  19.004  0.00  0.00    +0.000 NA
ATOM     11  O   UNL     1       2.373   7.827  18.712  0.00  0.00    +0.000 OA
BRANCH   7  16
ATOM     12  C   UNL     1       4.231   3.233  19.739  0.00  0.00    +0.000 A 
ATOM     13  C   UNL     1       2.975   3.368  20.313  0.00  0.00    +0.000 A 
ATOM     14  F   UNL     1       2.389   2.297  20.872  0.00  0.00    +0.000 F 
ATOM     15  C   UNL     1       2.318   4.594  20.321  0.00  0.00    +0.000 A 
ATOM     16  C   UNL     1       2.924   5.721  19.740  0.00  0.00    +0.000 A 
ATOM     17  C   UNL     1       4.192   5.579  19.154  0.00  0.00    +0.000 A 
ATOM     18  C   UNL     1       4.834   4.342  19.161  0.00  0.00    +0.000 A 
ATOM     19  F   UNL     1       6.049   4.242  18.603  0.00  0.00    +0.000 F 
BRANCH  12  20
ATOM     20  O   UNL     1       4.871   2.027  19.745  0.00  0.00    +0.000 OA
ATOM     21  H   UNL     1       5.503   2.034  20.486  0.00  0.00    +0.000 HD
ENDBRANCH  12  20
ENDBRANCH   7  16
ENDBRANCH   1   9
BRANCH   4  22
ATOM     22  O   UNL     1      -1.647  12.509  23.353  0.00  0.00    +0.000 OA
BRANCH  22  23
ATOM     23  C   UNL     1      -3.021  12.600  23.318  0.00  0.00    +0.000 A 
ATOM     24  C   UNL     1      -3.671  12.467  24.547  0.00  0.00    +0.000 A 
ATOM     25  C   UNL     1      -5.064  12.543  24.620  0.00  0.00    +0.000 A 
ATOM     26  C   UNL     1      -5.827  12.753  23.461  0.00  0.00    +0.000 A 
ATOM     27  C   UNL     1      -5.165  12.910  22.235  0.00  0.00    +0.000 A 
ATOM     28  C   UNL     1      -3.771  12.865  22.168  0.00  0.00    +0.000 A 
BRANCH  26  29
ATOM     29  C   UNL     1      -7.333  12.830  23.514  0.00  0.00    +0.000 C 
ATOM     30  F   UNL     1      -7.882  13.547  22.494  0.00  0.00    +0.000 F 
ATOM     31  F   UNL     1      -7.916  11.600  23.461  0.00  0.00    +0.000 F 
ATOM     32  F   UNL     1      -7.785  13.406  24.663  0.00  0.00    +0.000 F 
ENDBRANCH  26  29
ENDBRANCH  22  23
ENDBRANCH   4  22
TORSDOF 6
ENDMDL
MODEL 3
REMARK VINA RESULT:      -8.9      8.441     11.639
REMARK  Name = 
REMARK  6 active torsions:
REMARK  status: ('A' for Active; 'I' for Inactive)
REMARK    1  A    between atoms: O_1  and  C_2
REMARK    2  A    between atoms: C_6  and  C_7
REMARK    3  A    between atoms: C_9  and  C_10
REMARK    4  A    between atoms: C_13  and  O_14
REMARK    5  A    between atoms: O_14  and  C_15
REMARK    6  A    between atoms: C_18  and  C_19
REMARK                            x       y       z     vdW  Elec       q    Type
REMARK                         _______ _______ _______ _____ _____    ______ ____
ROOT
ATOM      1  C   UNL     1       0.298   9.813  20.949  0.00  0.00    +0.000 A 
ATOM      2  C   UNL     1      -0.234   9.527  22.215  0.00  0.00    +0.000 A 
ATOM      3  C   UNL     1      -0.901  10.515  22.946  0.00  0.00    +0.000 A 
ATOM      4  C   UNL     1      -1.045  11.795  22.415  0.00  0.00    +0.000 A 
ATOM      5  C   UNL     1      -0.598  12.065  21.120  0.00  0.00    +0.000 A 
ATOM      6  C   UNL     1       0.096  11.088  20.404  0.00  0.00    +0.000 A 
ENDROOT
BRANCH   1   9
ATOM      7  C   UNL     1       2.146   7.047  19.847  0.00  0.00    +0.000 A 
ATOM      8  N   UNL     1       1.401   7.595  20.779  0.00  0.00    +0.000 NA
ATOM      9  C   UNL     1       1.074   8.813  20.226  0.00  0.00    +0.000 A 
ATOM     10  N   UNL     1       1.573   9.002  18.994  0.00  0.00    +0.000 NA
ATOM     11  O   UNL     1       2.286   7.834  18.741  0.00  0.00    +0.000 OA
BRANCH   7  16
ATOM     12  C   UNL     1       4.183   3.302  19.756  0.00  0.00    +0.000 A 
ATOM     13  C   UNL     1       4.664   4.395  19.048  0.00  0.00    +0.000 A 
ATOM     14  F   UNL     1       5.781   4.264  18.316  0.00  0.00    +0.000 F 
ATOM     15  C   UNL     1       4.004   5.619  19.085  0.00  0.00    +0.000 A 
ATOM     16  C   UNL     1       2.833   5.766  19.847  0.00  0.00    +0.000 A 
ATOM     17  C   UNL     1       2.353   4.660  20.567  0.00  0.00    +0.000 A 
ATOM     18  C   UNL     1       3.028   3.442  20.514  0.00  0.00    +0.000 A 
ATOM     19  F   UNL     1       2.538   2.402  21.204  0.00  0.00    +0.000 F 
BRANCH  12  20
ATOM     20  O   UNL     1       4.833   2.103  19.706  0.00  0.00    +0.000 OA
ATOM     21  H   UNL     1       5.065   1.857  20.619  0.00  0.00    +0.000 HD
ENDBRANCH  12  20
ENDBRANCH   7  16
ENDBRANCH   1   9
BRANCH   4  22
ATOM     22  O   UNL     1      -1.676  12.724  23.213  0.00  0.00    +0.000 OA
BRANCH  22  23
ATOM     23  C   UNL     1      -3.048  12.704  23.328  0.00  0.00    +0.000 A 
ATOM     24  C   UNL     1      -3.761  12.986  22.161  0.00  0.00    +0.000 A 
ATOM     25  C   UNL     1      -5.158  12.992  22.171  0.00  0.00    +0.000 A 
ATOM     26  C   UNL     1      -5.862  12.715  23.353  0.00  0.00    +0.000 A 
ATOM     27  C   UNL     1      -5.139  12.408  24.515  0.00  0.00    +0.000 A 
ATOM     28  C   UNL     1      -3.743  12.373  24.496  0.00  0.00    +0.000 A 
BRANCH  26  29
ATOM     29  C   UNL     1      -7.370  12.724  23.391  0.00  0.00    +0.000 C 
ATOM     30  F   UNL     1      -7.889  13.537  24.354  0.00  0.00    +0.000 F 
ATOM     31  F   UNL     1      -7.915  13.143  22.216  0.00  0.00    +0.000 F 
ATOM     32  F   UNL     1      -7.892  11.488  23.624  0.00  0.00    +0.000 F 
ENDBRANCH  26  29
ENDBRANCH  22  23
ENDBRANCH   4  22
TORSDOF 6
ENDMDL
MODEL 4
REMARK VINA RESULT:      -8.9      8.378     11.572
REMARK  Name = 
REMARK  6 active torsions:
REMARK  status: ('A' for Active; 'I' for Inactive)
REMARK    1  A    between atoms: O_1  and  C_2
REMARK    2  A    between atoms: C_6  and  C_7
REMARK    3  A    between atoms: C_9  and  C_10
REMARK    4  A    between atoms: C_13  and  O_14
REMARK    5  A    between atoms: O_14  and  C_15
REMARK    6  A    between atoms: C_18  and  C_19
REMARK                            x       y       z     vdW  Elec       q    Type
REMARK                         _______ _______ _______ _____ _____    ______ ____
ROOT
ATOM      1  C   UNL     1       0.615   9.772  21.137  0.00  0.00    +0.000 A 
ATOM      2  C   UNL     1       0.663  11.121  20.756  0.00  0.00    +0.000 A 
ATOM      3  C   UNL     1      -0.076  12.083  21.451  0.00  0.00    +0.000 A 
ATOM      4  C   UNL     1      -0.864  11.705  22.536  0.00  0.00    +0.000 A 
ATOM      5  C   UNL     1      -0.849  10.381  22.979  0.00  0.00    +0.000 A 
ATOM      6  C   UNL     1      -0.138   9.415  22.265  0.00  0.00    +0.000 A 
ENDROOT
BRANCH   1   9
ATOM      7  C   UNL     1       2.295   6.958  19.898  0.00  0.00    +0.000 A 
ATOM      8  N   UNL     1       1.628   7.520  20.880  0.00  0.00    +0.000 NA
ATOM      9  C   UNL     1       1.309   8.754  20.358  0.00  0.00    +0.000 A 
ATOM     10  N   UNL     1       1.737   8.939  19.099  0.00  0.00    +0.000 NA
ATOM     11  O   UNL     1       2.393   7.751  18.793  0.00  0.00    +0.000 OA
BRANCH   7  16
ATOM     12  C   UNL     1       4.212   3.157  19.657  0.00  0.00    +0.000 A 
ATOM     13  C   UNL     1       4.831   4.302  19.173  0.00  0.00    +0.000 A 
ATOM     14  F   UNL     1       6.046   4.205  18.611  0.00  0.00    +0.000 F 
ATOM     15  C   UNL     1       4.209   5.543  19.260  0.00  0.00    +0.000 A 
ATOM     16  C   UNL     1       2.936   5.654  19.845  0.00  0.00    +0.000 A 
ATOM     17  C   UNL     1       2.317   4.495  20.339  0.00  0.00    +0.000 A 
ATOM     18  C   UNL     1       2.956   3.260  20.239  0.00  0.00    +0.000 A 
ATOM     19  F   UNL     1       2.333   2.171  20.710  0.00  0.00    +0.000 F 
BRANCH  12  20
ATOM     20  O   UNL     1       4.828   1.942  19.559  0.00  0.00    +0.000 OA
ATOM     21  H   UNL     1       4.878   1.565  20.456  0.00  0.00    +0.000 HD
ENDBRANCH  12  20
ENDBRANCH   7  16
ENDBRANCH   1   9
BRANCH   4  22
ATOM     22  O   UNL     1      -1.595  12.703  23.142  0.00  0.00    +0.000 OA
BRANCH  22  23
ATOM     23  C   UNL     1      -2.961  12.748  22.971  0.00  0.00    +0.000 A 
ATOM     24  C   UNL     1      -3.717  12.853  24.140  0.00  0.00    +0.000 A 
ATOM     25  C   UNL     1      -5.112  12.905  24.076  0.00  0.00    +0.000 A 
ATOM     26  C   UNL     1      -5.770  12.852  22.838  0.00  0.00    +0.000 A 
ATOM     27  C   UNL     1      -5.002  12.771  21.667  0.00  0.00    +0.000 A 
ATOM     28  C   UNL     1      -3.607  12.750  21.731  0.00  0.00    +0.000 A 
BRANCH  26  29
ATOM     29  C   UNL     1      -7.275  12.897  22.744  0.00  0.00    +0.000 C 
ATOM     30  F   UNL     1      -7.760  14.082  22.280  0.00  0.00    +0.000 F 
ATOM     31  F   UNL     1      -7.770  11.939  21.911  0.00  0.00    +0.000 F 
ATOM     32  F   UNL     1      -7.878  12.691  23.948  0.00  0.00    +0.000 F 
ENDBRANCH  26  29
ENDBRANCH  22  23
ENDBRANCH   4  22
TORSDOF 6
ENDMDL
MODEL 5
REMARK VINA RESULT:      -8.9      0.331      1.434
REMARK  Name = 
REMARK  6 active torsions:
REMARK  status: ('A' for Active; 'I' for Inactive)
REMARK    1  A    between atoms: O_1  and  C_2
REMARK    2  A    between atoms: C_6  and  C_7
REMARK    3  A    between atoms: C_9  and  C_10
REMARK    4  A    between atoms: C_13  and  O_14
REMARK    5  A    between atoms: O_14  and  C_15
REMARK    6  A    between atoms: C_18  and  C_19
REMARK                            x       y       z     vdW  Elec       q    Type
REMARK                         _______ _______ _______ _____ _____    ______ ____
ROOT
ATOM      1  C   UNL     1       7.859   8.255  18.190  0.00  0.00    +0.000 A 
ATOM      2  C   UNL     1       6.800   8.228  17.270  0.00  0.00    +0.000 A 
ATOM      3  C   UNL     1       6.182   7.020  16.933  0.00  0.00    +0.000 A 
ATOM      4  C   UNL     1       6.614   5.831  17.516  0.00  0.00    +0.000 A 
ATOM      5  C   UNL     1       7.605   5.858  18.498  0.00  0.00    +0.000 A 
ATOM      6  C   UNL     1       8.245   7.059  18.811  0.00  0.00    +0.000 A 
ENDROOT
BRANCH   1   9
ATOM      7  C   UNL     1       9.195  11.492  18.287  0.00  0.00    +0.000 A 
ATOM      8  N   UNL     1       8.312  10.662  17.782  0.00  0.00    +0.000 NA
ATOM      9  C   UNL     1       8.566   9.497  18.473  0.00  0.00    +0.000 A 
ATOM     10  N   UNL     1       9.547   9.608  19.383  0.00  0.00    +0.000 NA
ATOM     11  O   UNL     1       9.967  10.929  19.260  0.00  0.00    +0.000 OA
BRANCH   7  16
ATOM     12  C   UNL     1      10.062  15.552  17.311  0.00  0.00    +0.000 A 
ATOM     13  C   UNL     1      11.034  14.567  17.202  0.00  0.00    +0.000 A 
ATOM     14  F   UNL     1      12.268  14.903  16.795  0.00  0.00    +0.000 F 
ATOM     15  C   UNL     1      10.749  13.241  17.512  0.00  0.00    +0.000 A 
ATOM     16  C   UNL     1       9.461  12.880  17.941  0.00  0.00    +0.000 A 
ATOM     17  C   UNL     1       8.478  13.877  18.043  0.00  0.00    +0.000 A 
ATOM     18  C   UNL     1       8.786  15.200  17.731  0.00  0.00    +0.000 A 
ATOM     19  F   UNL     1       7.829  16.131  17.849  0.00  0.00    +0.000 F 
BRANCH  12  20
ATOM     20  O   UNL     1      10.355  16.851  17.013  0.00  0.00    +0.000 OA
ATOM     21  H   UNL     1      10.158  17.385  17.804  0.00  0.00    +0.000 HD
ENDBRANCH  12  20
ENDBRANCH   7  16
ENDBRANCH   1   9
BRANCH   4  22
ATOM     22  O   UNL     1       5.983   4.678  17.101  0.00  0.00    +0.000 OA
BRANCH  22  23
ATOM     23  C   UNL     1       4.859   4.239  17.764  0.00  0.00    +0.000 A 
ATOM     24  C   UNL     1       3.642   4.484  17.126  0.00  0.00    +0.000 A 
ATOM     25  C   UNL     1       2.441   4.079  17.715  0.00  0.00    +0.000 A 
ATOM     26  C   UNL     1       2.444   3.423  18.956  0.00  0.00    +0.000 A 
ATOM     27  C   UNL     1       3.672   3.159  19.579  0.00  0.00    +0.000 A 
ATOM     28  C   UNL     1       4.873   3.537  18.973  0.00  0.00    +0.000 A 
BRANCH  26  29
ATOM     29  C   UNL     1       1.160   2.985  19.617  0.00  0.00    +0.000 C 
ATOM     30  F   UNL     1       0.312   2.322  18.782  0.00  0.00    +0.000 F 
ATOM     31  F   UNL     1       1.379   2.148  20.668  0.00  0.00    +0.000 F 
ATOM     32  F   UNL     1       0.449   4.034  20.118  0.00  0.00    +0.000 F 
ENDBRANCH  26  29
ENDBRANCH  22  23
ENDBRANCH   4  22
TORSDOF 6
ENDMDL
MODEL 6
REMARK VINA RESULT:      -8.8      0.381      1.955
REMARK  Name = 
REMARK  6 active torsions:
REMARK  status: ('A' for Active; 'I' for Inactive)
REMARK    1  A    between atoms: O_1  and  C_2
REMARK    2  A    between atoms: C_6  and  C_7
REMARK    3  A    between atoms: C_9  and  C_10
REMARK    4  A    between atoms: C_13  and  O_14
REMARK    5  A    between atoms: O_14  and  C_15
REMARK    6  A    between atoms: C_18  and  C_19
REMARK                            x       y       z     vdW  Elec       q    Type
REMARK                         _______ _______ _______ _____ _____    ______ ____
ROOT
ATOM      1  C   UNL     1       7.889   8.312  18.179  0.00  0.00    +0.000 A 
ATOM      2  C   UNL     1       6.819   8.299  17.273  0.00  0.00    +0.000 A 
ATOM      3  C   UNL     1       6.194   7.096  16.927  0.00  0.00    +0.000 A 
ATOM      4  C   UNL     1       6.633   5.898  17.487  0.00  0.00    +0.000 A 
ATOM      5  C   UNL     1       7.637   5.911  18.456  0.00  0.00    +0.000 A 
ATOM      6  C   UNL     1       8.282   7.106  18.778  0.00  0.00    +0.000 A 
ENDROOT
BRANCH   1   9
ATOM      7  C   UNL     1       9.274  11.528  18.272  0.00  0.00    +0.000 A 
ATOM      8  N   UNL     1       8.406  10.700  17.739  0.00  0.00    +0.000 NA
ATOM      9  C   UNL     1       8.601   9.549  18.471  0.00  0.00    +0.000 A 
ATOM     10  N   UNL     1       9.532   9.668  19.432  0.00  0.00    +0.000 NA
ATOM     11  O   UNL     1       9.981  10.977  19.300  0.00  0.00    +0.000 OA
BRANCH   7  16
ATOM     12  C   UNL     1      10.097  15.564  17.167  0.00  0.00    +0.000 A 
ATOM     13  C   UNL     1       8.838  15.188  17.615  0.00  0.00    +0.000 A 
ATOM     14  F   UNL     1       7.864  16.109  17.689  0.00  0.00    +0.000 F 
ATOM     15  C   UNL     1       8.572  13.873  17.984  0.00  0.00    +0.000 A 
ATOM     16  C   UNL     1       9.584  12.902  17.908  0.00  0.00    +0.000 A 
ATOM     17  C   UNL     1      10.858  13.287  17.461  0.00  0.00    +0.000 A 
ATOM     18  C   UNL     1      11.102  14.610  17.093  0.00  0.00    +0.000 A 
ATOM     19  F   UNL     1      12.327  14.943  16.660  0.00  0.00    +0.000 F 
BRANCH  12  20
ATOM     20  O   UNL     1      10.345  16.855  16.800  0.00  0.00    +0.000 OA
ATOM     21  H   UNL     1       9.940  16.994  15.924  0.00  0.00    +0.000 HD
ENDBRANCH  12  20
ENDBRANCH   7  16
ENDBRANCH   1   9
BRANCH   4  22
ATOM     22  O   UNL     1       5.996   4.752  17.063  0.00  0.00    +0.000 OA
BRANCH  22  23
ATOM     23  C   UNL     1       4.880   4.304  17.736  0.00  0.00    +0.000 A 
ATOM     24  C   UNL     1       3.651   4.648  17.171  0.00  0.00    +0.000 A 
ATOM     25  C   UNL     1       2.458   4.243  17.776  0.00  0.00    +0.000 A 
ATOM     26  C   UNL     1       2.481   3.487  18.958  0.00  0.00    +0.000 A 
ATOM     27  C   UNL     1       3.721   3.125  19.506  0.00  0.00    +0.000 A 
ATOM     28  C   UNL     1       4.911   3.505  18.883  0.00  0.00    +0.000 A 
BRANCH  26  29
ATOM     29  C   UNL     1       1.207   3.047  19.635  0.00  0.00    +0.000 C 
ATOM     30  F   UNL     1       0.471   4.075  20.142  0.00  0.00    +0.000 F 
ATOM     31  F   UNL     1       0.377   2.375  18.790  0.00  0.00    +0.000 F 
ATOM     32  F   UNL     1       1.438   2.202  20.679  0.00  0.00    +0.000 F 
ENDBRANCH  26  29
ENDBRANCH  22  23
ENDBRANCH   4  22
TORSDOF 6
ENDMDL
MODEL 7
REMARK VINA RESULT:      -8.7      8.124      9.826
REMARK  Name = 
REMARK  6 active torsions:
REMARK  status: ('A' for Active; 'I' for Inactive)
REMARK    1  A    between atoms: O_1  and  C_2
REMARK    2  A    between atoms: C_6  and  C_7
REMARK    3  A    between atoms: C_9  and  C_10
REMARK    4  A    between atoms: C_13  and  O_14
REMARK    5  A    between atoms: O_14  and  C_15
REMARK    6  A    between atoms: C_18  and  C_19
REMARK                            x       y       z     vdW  Elec       q    Type
REMARK                         _______ _______ _______ _____ _____    ______ ____
ROOT
ATOM      1  C   UNL     1       0.883  10.096  20.110  0.00  0.00    +0.000 A 
ATOM      2  C   UNL     1       1.100  10.381  18.754  0.00  0.00    +0.000 A 
ATOM      3  C   UNL     1       1.775   9.470  17.935  0.00  0.00    +0.000 A 
ATOM      4  C   UNL     1       2.233   8.266  18.464  0.00  0.00    +0.000 A 
ATOM      5  C   UNL     1       1.944   7.933  19.789  0.00  0.00    +0.000 A 
ATOM      6  C   UNL     1       1.299   8.856  20.615  0.00  0.00    +0.000 A 
ENDROOT
BRANCH   1   9
ATOM      7  C   UNL     1      -1.232  12.147  22.007  0.00  0.00    +0.000 A 
ATOM      8  N   UNL     1      -1.087  11.077  21.260  0.00  0.00    +0.000 NA
ATOM      9  C   UNL     1       0.263  11.081  20.987  0.00  0.00    +0.000 A 
ATOM     10  N   UNL     1       0.930  12.096  21.560  0.00  0.00    +0.000 NA
ATOM     11  O   UNL     1      -0.059  12.804  22.235  0.00  0.00    +0.000 OA
BRANCH   7  16
ATOM     12  C   UNL     1      -4.739  13.893  23.691  0.00  0.00    +0.000 A 
ATOM     13  C   UNL     1      -4.093  14.483  22.612  0.00  0.00    +0.000 A 
ATOM     14  F   UNL     1      -4.576  15.627  22.102  0.00  0.00    +0.000 F 
ATOM     15  C   UNL     1      -2.954  13.909  22.058  0.00  0.00    +0.000 A 
ATOM     16  C   UNL     1      -2.440  12.713  22.586  0.00  0.00    +0.000 A 
ATOM     17  C   UNL     1      -3.099  12.116  23.672  0.00  0.00    +0.000 A 
ATOM     18  C   UNL     1      -4.237  12.710  24.215  0.00  0.00    +0.000 A 
ATOM     19  F   UNL     1      -4.837  12.120  25.259  0.00  0.00    +0.000 F 
BRANCH  12  20
ATOM     20  O   UNL     1      -5.850  14.470  24.233  0.00  0.00    +0.000 OA
ATOM     21  H   UNL     1      -6.613  14.214  23.683  0.00  0.00    +0.000 HD
ENDBRANCH  12  20
ENDBRANCH   7  16
ENDBRANCH   1   9
BRANCH   4  22
ATOM     22  O   UNL     1       2.926   7.441  17.605  0.00  0.00    +0.000 OA
BRANCH  22  23
ATOM     23  C   UNL     1       3.122   6.119  17.940  0.00  0.00    +0.000 A 
ATOM     24  C   UNL     1       2.014   5.283  17.790  0.00  0.00    +0.000 A 
ATOM     25  C   UNL     1       2.107   3.924  18.103  0.00  0.00    +0.000 A 
ATOM     26  C   UNL     1       3.315   3.384  18.572  0.00  0.00    +0.000 A 
ATOM     27  C   UNL     1       4.430   4.226  18.696  0.00  0.00    +0.000 A 
ATOM     28  C   UNL     1       4.343   5.577  18.353  0.00  0.00    +0.000 A 
BRANCH  26  29
ATOM     29  C   UNL     1       3.438   1.922  18.925  0.00  0.00    +0.000 C 
ATOM     30  F   UNL     1       4.356   1.669  19.899  0.00  0.00    +0.000 F 
ATOM     31  F   UNL     1       2.264   1.398  19.374  0.00  0.00    +0.000 F 
ATOM     32  F   UNL     1       3.803   1.158  17.859  0.00  0.00    +0.000 F 
ENDBRANCH  26  29
ENDBRANCH  22  23
ENDBRANCH   4  22
TORSDOF 6
ENDMDL
MODEL 8
REMARK VINA RESULT:      -8.7      8.163      9.820
REMARK  Name = 
REMARK  6 active torsions:
REMARK  status: ('A' for Active; 'I' for Inactive)
REMARK    1  A    between atoms: O_1  and  C_2
REMARK    2  A    between atoms: C_6  and  C_7
REMARK    3  A    between atoms: C_9  and  C_10
REMARK    4  A    between atoms: C_13  and  O_14
REMARK    5  A    between atoms: O_14  and  C_15
REMARK    6  A    between atoms: C_18  and  C_19
REMARK                            x       y       z     vdW  Elec       q    Type
REMARK                         _______ _______ _______ _____ _____    ______ ____
ROOT
ATOM      1  C   UNL     1       0.891  10.179  20.123  0.00  0.00    +0.000 A 
ATOM      2  C   UNL     1       1.205  10.483  18.790  0.00  0.00    +0.000 A 
ATOM      3  C   UNL     1       1.881   9.557  17.989  0.00  0.00    +0.000 A 
ATOM      4  C   UNL     1       2.244   8.318  18.513  0.00  0.00    +0.000 A 
ATOM      5  C   UNL     1       1.857   7.971  19.809  0.00  0.00    +0.000 A 
ATOM      6  C   UNL     1       1.211   8.907  20.619  0.00  0.00    +0.000 A 
ENDROOT
BRANCH   1   9
ATOM      7  C   UNL     1      -1.224  12.231  22.017  0.00  0.00    +0.000 A 
ATOM      8  N   UNL     1      -1.071  11.142  21.300  0.00  0.00    +0.000 NA
ATOM      9  C   UNL     1       0.269  11.175  20.986  0.00  0.00    +0.000 A 
ATOM     10  N   UNL     1       0.924  12.226  21.506  0.00  0.00    +0.000 NA
ATOM     11  O   UNL     1      -0.064  12.928  22.188  0.00  0.00    +0.000 OA
BRANCH   7  16
ATOM     12  C   UNL     1      -4.723  13.935  23.760  0.00  0.00    +0.000 A 
ATOM     13  C   UNL     1      -4.058  14.573  22.721  0.00  0.00    +0.000 A 
ATOM     14  F   UNL     1      -4.520  15.749  22.270  0.00  0.00    +0.000 F 
ATOM     15  C   UNL     1      -2.922  14.013  22.147  0.00  0.00    +0.000 A 
ATOM     16  C   UNL     1      -2.430  12.783  22.614  0.00  0.00    +0.000 A 
ATOM     17  C   UNL     1      -3.109  12.137  23.660  0.00  0.00    +0.000 A 
ATOM     18  C   UNL     1      -4.244  12.718  24.224  0.00  0.00    +0.000 A 
ATOM     19  F   UNL     1      -4.862  12.081  25.229  0.00  0.00    +0.000 F 
BRANCH  12  20
ATOM     20  O   UNL     1      -5.832  14.498  24.322  0.00  0.00    +0.000 OA
ATOM     21  H   UNL     1      -5.561  15.345  24.721  0.00  0.00    +0.000 HD
ENDBRANCH  12  20
ENDBRANCH   7  16
ENDBRANCH   1   9
BRANCH   4  22
ATOM     22  O   UNL     1       2.945   7.478  17.676  0.00  0.00    +0.000 OA
BRANCH  22  23
ATOM     23  C   UNL     1       2.992   6.128  17.948  0.00  0.00    +0.000 A 
ATOM     24  C   UNL     1       4.208   5.649  18.436  0.00  0.00    +0.000 A 
ATOM     25  C   UNL     1       4.361   4.294  18.743  0.00  0.00    +0.000 A 
ATOM     26  C   UNL     1       3.295   3.400  18.563  0.00  0.00    +0.000 A 
ATOM     27  C   UNL     1       2.068   3.894  18.095  0.00  0.00    +0.000 A 
ATOM     28  C   UNL     1       1.909   5.254  17.819  0.00  0.00    +0.000 A 
BRANCH  26  29
ATOM     29  C   UNL     1       3.438   1.931  18.878  0.00  0.00    +0.000 C 
ATOM     30  F   UNL     1       3.818   1.176  17.809  0.00  0.00    +0.000 F 
ATOM     31  F   UNL     1       4.365   1.698  19.848  0.00  0.00    +0.000 F 
ATOM     32  F   UNL     1       2.277   1.381  19.331  0.00  0.00    +0.000 F 
ENDBRANCH  26  29
ENDBRANCH  22  23
ENDBRANCH   4  22
TORSDOF 6
ENDMDL
MODEL 9
REMARK VINA RESULT:      -8.7      8.131      9.769
REMARK  Name = 
REMARK  6 active torsions:
REMARK  status: ('A' for Active; 'I' for Inactive)
REMARK    1  A    between atoms: O_1  and  C_2
REMARK    2  A    between atoms: C_6  and  C_7
REMARK    3  A    between atoms: C_9  and  C_10
REMARK    4  A    between atoms: C_13  and  O_14
REMARK    5  A    between atoms: O_14  and  C_15
REMARK    6  A    between atoms: C_18  and  C_19
REMARK                            x       y       z     vdW  Elec       q    Type
REMARK                         _______ _______ _______ _____ _____    ______ ____
ROOT
ATOM      1  C   UNL     1       0.933  10.176  20.090  0.00  0.00    +0.000 A 
ATOM      2  C   UNL     1       1.222  10.466  18.749  0.00  0.00    +0.000 A 
ATOM      3  C   UNL     1       1.878   9.530  17.944  0.00  0.00    +0.000 A 
ATOM      4  C   UNL     1       2.246   8.295  18.472  0.00  0.00    +0.000 A 
ATOM      5  C   UNL     1       1.885   7.962  19.779  0.00  0.00    +0.000 A 
ATOM      6  C   UNL     1       1.259   8.908  20.592  0.00  0.00    +0.000 A 
ENDROOT
BRANCH   1   9
ATOM      7  C   UNL     1      -1.137  12.269  21.990  0.00  0.00    +0.000 A 
ATOM      8  N   UNL     1      -1.007  11.179  21.270  0.00  0.00    +0.000 NA
ATOM      9  C   UNL     1       0.334  11.183  20.956  0.00  0.00    +0.000 A 
ATOM     10  N   UNL     1       1.011  12.218  21.480  0.00  0.00    +0.000 NA
ATOM     11  O   UNL     1       0.038  12.941  22.163  0.00  0.00    +0.000 OA
BRANCH   7  16
ATOM     12  C   UNL     1      -4.674  13.873  23.751  0.00  0.00    +0.000 A 
ATOM     13  C   UNL     1      -4.162  12.650  24.161  0.00  0.00    +0.000 A 
ATOM     14  F   UNL     1      -4.800  11.958  25.119  0.00  0.00    +0.000 F 
ATOM     15  C   UNL     1      -3.003  12.131  23.593  0.00  0.00    +0.000 A 
ATOM     16  C   UNL     1      -2.330  12.846  22.589  0.00  0.00    +0.000 A 
ATOM     17  C   UNL     1      -2.847  14.086  22.180  0.00  0.00    +0.000 A 
ATOM     18  C   UNL     1      -4.011  14.586  22.761  0.00  0.00    +0.000 A 
ATOM     19  F   UNL     1      -4.485  15.768  22.341  0.00  0.00    +0.000 F 
BRANCH  12  20
ATOM     20  O   UNL     1      -5.817  14.369  24.308  0.00  0.00    +0.000 OA
ATOM     21  H   UNL     1      -6.541  13.756  24.087  0.00  0.00    +0.000 HD
ENDBRANCH  12  20
ENDBRANCH   7  16
ENDBRANCH   1   9
BRANCH   4  22
ATOM     22  O   UNL     1       2.927   7.444  17.629  0.00  0.00    +0.000 OA
BRANCH  22  23
ATOM     23  C   UNL     1       2.981   6.098  17.918  0.00  0.00    +0.000 A 
ATOM     24  C   UNL     1       4.213   5.623  18.372  0.00  0.00    +0.000 A 
ATOM     25  C   UNL     1       4.374   4.272  18.692  0.00  0.00    +0.000 A 
ATOM     26  C   UNL     1       3.301   3.377  18.560  0.00  0.00    +0.000 A 
ATOM     27  C   UNL     1       2.061   3.867  18.127  0.00  0.00    +0.000 A 
ATOM     28  C   UNL     1       1.893   5.223  17.838  0.00  0.00    +0.000 A 
BRANCH  26  29
ATOM     29  C   UNL     1       3.453   1.913  18.890  0.00  0.00    +0.000 C 
ATOM     30  F   UNL     1       4.383   1.662  19.854  0.00  0.00    +0.000 F 
ATOM     31  F   UNL     1       2.292   1.360  19.338  0.00  0.00    +0.000 F 
ATOM     32  F   UNL     1       3.826   1.172  17.809  0.00  0.00    +0.000 F 
ENDBRANCH  26  29
ENDBRANCH  22  23
ENDBRANCH   4  22
TORSDOF 6
ENDMDL
