MODEL 1
REMARK VINA RESULT:     -10.1      0.000      0.000
REMARK  Name = 
REMARK  5 active torsions:
REMARK  status: ('A' for Active; 'I' for Inactive)
REMARK    1  A    between atoms: O_1  and  C_2
REMARK    2  A    between atoms: C_6  and  N_7
REMARK    3  A    between atoms: N_7  and  C_8
REMARK    4  A    between atoms: C_10  and  C_11
REMARK    5  A    between atoms: C_12  and  C_13
REMARK                            x       y       z     vdW  Elec       q    Type
REMARK                         _______ _______ _______ _____ _____    ______ ____
ROOT
ATOM      1  C   UNL     1      -0.064  10.520  18.996  0.00  0.00    +0.000 A 
ATOM      2  N   UNL     1       0.748   9.742  18.255  0.00  0.00    +0.000 NA
ATOM      3  C   UNL     1       1.465   8.821  18.900  0.00  0.00    +0.000 A 
ATOM      4  N   UNL     1       1.446   8.615  20.224  0.00  0.00    +0.000 NA
ATOM      5  C   UNL     1       0.637   9.389  20.951  0.00  0.00    +0.000 A 
ATOM      6  C   UNL     1       0.634   9.229  22.331  0.00  0.00    +0.000 A 
ATOM      7  C   UNL     1      -0.180  10.001  23.164  0.00  0.00    +0.000 A 
ATOM      8  C   UNL     1      -1.024  10.954  22.610  0.00  0.00    +0.000 A 
ATOM      9  C   UNL     1      -1.032  11.140  21.228  0.00  0.00    +0.000 A 
ATOM     10  C   UNL     1      -0.193  10.365  20.386  0.00  0.00    +0.000 A 
ENDROOT
BRANCH   1  11
ATOM     11  N   UNL     1      -0.802  11.534  18.335  0.00  0.00    +0.000 N 
ATOM     12  H   UNL     1      -0.654  12.427  18.789  0.00  0.00    +0.000 HD
BRANCH  11  17
ATOM     13  C   UNL     1      -3.510  10.871  15.862  0.00  0.00    +0.000 A 
ATOM     14  C   UNL     1      -4.638  11.251  16.575  0.00  0.00    +0.000 A 
ATOM     15  C   UNL     1      -4.494  11.713  17.882  0.00  0.00    +0.000 A 
ATOM     16  C   UNL     1      -3.224  11.791  18.469  0.00  0.00    +0.000 A 
ATOM     17  C   UNL     1      -2.085  11.378  17.766  0.00  0.00    +0.000 A 
ATOM     18  C   UNL     1      -2.247  10.933  16.445  0.00  0.00    +0.000 A 
BRANCH  13  19
ATOM     19  O   UNL     1      -3.591  10.440  14.570  0.00  0.00    +0.000 OA
ATOM     20  H   UNL     1      -4.506  10.548  14.264  0.00  0.00    +0.000 HD
ENDBRANCH  13  19
ENDBRANCH  11  17
ENDBRANCH   1  11
BRANCH   3  21
ATOM     21  C   UNL     1       2.345   7.987  18.070  0.00  0.00    +0.000 C 
ATOM     22  C   UNL     1       2.714   6.736  18.402  0.00  0.00    +0.000 C 
BRANCH  22  23
ATOM     23  C   UNL     1       3.627   5.874  17.625  0.00  0.00    +0.000 A 
ATOM     24  C   UNL     1       4.719   6.441  16.939  0.00  0.00    +0.000 A 
ATOM     25  C   UNL     1       5.524   5.616  16.178  0.00  0.00    +0.000 A 
ATOM     26  C   UNL     1       5.286   4.269  16.070  0.00  0.00    +0.000 A 
ATOM     27  C   UNL     1       4.230   3.667  16.712  0.00  0.00    +0.000 A 
ATOM     28  C   UNL     1       3.393   4.477  17.491  0.00  0.00    +0.000 A 
ATOM     29 BR   UNL     1       1.947   3.591  18.365  0.00  0.00    +0.000 Br
ATOM     30  O   UNL     1       6.189   3.640  15.271  0.00  0.00    +0.000 OA
ATOM     31  C   UNL     1       7.020   4.751  14.875  0.00  0.00    +0.000 C 
ATOM     32  O   UNL     1       6.608   6.007  15.455  0.00  0.00    +0.000 OA
ENDBRANCH  22  23
ENDBRANCH   3  21
TORSDOF 5
ENDMDL
MODEL 2
REMARK VINA RESULT:      -9.9      0.919      1.270
REMARK  Name = 
REMARK  5 active torsions:
REMARK  status: ('A' for Active; 'I' for Inactive)
REMARK    1  A    between atoms: O_1  and  C_2
REMARK    2  A    between atoms: C_6  and  N_7
REMARK    3  A    between atoms: N_7  and  C_8
REMARK    4  A    between atoms: C_10  and  C_11
REMARK    5  A    between atoms: C_12  and  C_13
REMARK                            x       y       z     vdW  Elec       q    Type
REMARK                         _______ _______ _______ _____ _____    ______ ____
ROOT
ATOM      1  C   UNL     1       0.018  10.591  19.057  0.00  0.00    +0.000 A 
ATOM      2  N   UNL     1       0.835   9.816  18.317  0.00  0.00    +0.000 NA
ATOM      3  C   UNL     1       1.513   8.862  18.956  0.00  0.00    +0.000 A 
ATOM      4  N   UNL     1       1.451   8.619  20.272  0.00  0.00    +0.000 NA
ATOM      5  C   UNL     1       0.637   9.388  20.998  0.00  0.00    +0.000 A 
ATOM      6  C   UNL     1       0.591   9.189  22.372  0.00  0.00    +0.000 A 
ATOM      7  C   UNL     1      -0.231   9.955  23.204  0.00  0.00    +0.000 A 
ATOM      8  C   UNL     1      -1.038  10.941  22.653  0.00  0.00    +0.000 A 
ATOM      9  C   UNL     1      -1.002  11.167  21.278  0.00  0.00    +0.000 A 
ATOM     10  C   UNL     1      -0.155  10.398  20.438  0.00  0.00    +0.000 A 
ENDROOT
BRANCH   1  11
ATOM     11  N   UNL     1      -0.679  11.639  18.406  0.00  0.00    +0.000 N 
ATOM     12  H   UNL     1      -0.473  12.525  18.850  0.00  0.00    +0.000 HD
BRANCH  11  17
ATOM     13  C   UNL     1      -4.395  11.662  18.128  0.00  0.00    +0.000 A 
ATOM     14  C   UNL     1      -4.582  11.187  16.837  0.00  0.00    +0.000 A 
ATOM     15  C   UNL     1      -3.468  10.876  16.059  0.00  0.00    +0.000 A 
ATOM     16  C   UNL     1      -2.176  11.041  16.575  0.00  0.00    +0.000 A 
ATOM     17  C   UNL     1      -1.981  11.549  17.866  0.00  0.00    +0.000 A 
ATOM     18  C   UNL     1      -3.114  11.841  18.641  0.00  0.00    +0.000 A 
BRANCH  13  19
ATOM     19  O   UNL     1      -5.450  11.954  18.942  0.00  0.00    +0.000 OA
ATOM     20  H   UNL     1      -5.283  12.806  19.375  0.00  0.00    +0.000 HD
ENDBRANCH  13  19
ENDBRANCH  11  17
ENDBRANCH   1  11
BRANCH   3  21
ATOM     21  C   UNL     1       2.399   8.033  18.127  0.00  0.00    +0.000 C 
ATOM     22  C   UNL     1       2.678   6.744  18.396  0.00  0.00    +0.000 C 
BRANCH  22  23
ATOM     23  C   UNL     1       3.591   5.881  17.620  0.00  0.00    +0.000 A 
ATOM     24  C   UNL     1       4.665   6.452  16.909  0.00  0.00    +0.000 A 
ATOM     25  C   UNL     1       5.471   5.626  16.150  0.00  0.00    +0.000 A 
ATOM     26  C   UNL     1       5.251   4.273  16.067  0.00  0.00    +0.000 A 
ATOM     27  C   UNL     1       4.212   3.667  16.735  0.00  0.00    +0.000 A 
ATOM     28  C   UNL     1       3.375   4.479  17.513  0.00  0.00    +0.000 A 
ATOM     29 BR   UNL     1       1.955   3.588  18.423  0.00  0.00    +0.000 Br
ATOM     30  O   UNL     1       6.150   3.644  15.266  0.00  0.00    +0.000 OA
ATOM     31  C   UNL     1       6.959   4.759  14.840  0.00  0.00    +0.000 C 
ATOM     32  O   UNL     1       6.538   6.020  15.405  0.00  0.00    +0.000 OA
ENDBRANCH  22  23
ENDBRANCH   3  21
TORSDOF 5
ENDMDL
MODEL 3
REMARK VINA RESULT:      -9.8      2.669      3.363
REMARK  Name = 
REMARK  5 active torsions:
REMARK  status: ('A' for Active; 'I' for Inactive)
REMARK    1  A    between atoms: O_1  and  C_2
REMARK    2  A    between atoms: C_6  and  N_7
REMARK    3  A    between atoms: N_7  and  C_8
REMARK    4  A    between atoms: C_10  and  C_11
REMARK    5  A    between atoms: C_12  and  C_13
REMARK                            x       y       z     vdW  Elec       q    Type
REMARK                         _______ _______ _______ _____ _____    ______ ____
ROOT
ATOM      1  C   UNL     1       0.423  11.005  19.072  0.00  0.00    +0.000 A 
ATOM      2  N   UNL     1       1.136  10.144  18.320  0.00  0.00    +0.000 NA
ATOM      3  C   UNL     1       1.504   8.996  18.890  0.00  0.00    +0.000 A 
ATOM      4  N   UNL     1       1.227   8.636  20.151  0.00  0.00    +0.000 NA
ATOM      5  C   UNL     1       0.517   9.493  20.889  0.00  0.00    +0.000 A 
ATOM      6  C   UNL     1       0.257   9.166  22.214  0.00  0.00    +0.000 A 
ATOM      7  C   UNL     1      -0.474  10.010  23.055  0.00  0.00    +0.000 A 
ATOM      8  C   UNL     1      -0.971  11.209  22.563  0.00  0.00    +0.000 A 
ATOM      9  C   UNL     1      -0.714  11.564  21.239  0.00  0.00    +0.000 A 
ATOM     10  C   UNL     1       0.041  10.713  20.392  0.00  0.00    +0.000 A 
ENDROOT
BRANCH   1  11
ATOM     11  N   UNL     1       0.060  12.249  18.499  0.00  0.00    +0.000 N 
ATOM     12  H   UNL     1      -0.467  12.102  17.647  0.00  0.00    +0.000 HD
BRANCH  11  17
ATOM     13  C   UNL     1       2.987  14.524  18.120  0.00  0.00    +0.000 A 
ATOM     14  C   UNL     1       2.496  15.704  18.662  0.00  0.00    +0.000 A 
ATOM     15  C   UNL     1       1.186  15.741  19.138  0.00  0.00    +0.000 A 
ATOM     16  C   UNL     1       0.376  14.600  19.068  0.00  0.00    +0.000 A 
ATOM     17  C   UNL     1       0.856  13.415  18.494  0.00  0.00    +0.000 A 
ATOM     18  C   UNL     1       2.182  13.391  18.036  0.00  0.00    +0.000 A 
BRANCH  13  19
ATOM     19  O   UNL     1       4.270  14.425  17.668  0.00  0.00    +0.000 OA
ATOM     20  H   UNL     1       4.328  13.672  17.058  0.00  0.00    +0.000 HD
ENDBRANCH  13  19
ENDBRANCH  11  17
ENDBRANCH   1  11
BRANCH   3  21
ATOM     21  C   UNL     1       2.283   8.076  18.051  0.00  0.00    +0.000 C 
ATOM     22  C   UNL     1       2.893   6.973  18.523  0.00  0.00    +0.000 C 
BRANCH  22  23
ATOM     23  C   UNL     1       3.719   6.041  17.732  0.00  0.00    +0.000 A 
ATOM     24  C   UNL     1       4.860   6.513  17.052  0.00  0.00    +0.000 A 
ATOM     25  C   UNL     1       5.583   5.627  16.277  0.00  0.00    +0.000 A 
ATOM     26  C   UNL     1       5.219   4.311  16.148  0.00  0.00    +0.000 A 
ATOM     27  C   UNL     1       4.110   3.801  16.782  0.00  0.00    +0.000 A 
ATOM     28  C   UNL     1       3.354   4.674  17.576  0.00  0.00    +0.000 A 
ATOM     29 BR   UNL     1       1.831   3.916  18.438  0.00  0.00    +0.000 Br
ATOM     30  O   UNL     1       6.058   3.612  15.338  0.00  0.00    +0.000 OA
ATOM     31  C   UNL     1       6.990   4.645  14.958  0.00  0.00    +0.000 C 
ATOM     32  O   UNL     1       6.699   5.926  15.559  0.00  0.00    +0.000 OA
ENDBRANCH  22  23
ENDBRANCH   3  21
TORSDOF 5
ENDMDL
MODEL 4
REMARK VINA RESULT:      -9.5      4.047      9.520
REMARK  Name = 
REMARK  5 active torsions:
REMARK  status: ('A' for Active; 'I' for Inactive)
REMARK    1  A    between atoms: O_1  and  C_2
REMARK    2  A    between atoms: C_6  and  N_7
REMARK    3  A    between atoms: N_7  and  C_8
REMARK    4  A    between atoms: C_10  and  C_11
REMARK    5  A    between atoms: C_12  and  C_13
REMARK                            x       y       z     vdW  Elec       q    Type
REMARK                         _______ _______ _______ _____ _____    ______ ____
ROOT
ATOM      1  C   UNL     1       3.189   5.707  18.777  0.00  0.00    +0.000 A 
ATOM      2  N   UNL     1       2.838   6.878  19.345  0.00  0.00    +0.000 NA
ATOM      3  C   UNL     1       1.851   6.848  20.241  0.00  0.00    +0.000 A 
ATOM      4  N   UNL     1       1.179   5.751  20.615  0.00  0.00    +0.000 NA
ATOM      5  C   UNL     1       1.535   4.594  20.050  0.00  0.00    +0.000 A 
ATOM      6  C   UNL     1       0.822   3.450  20.384  0.00  0.00    +0.000 A 
ATOM      7  C   UNL     1       1.127   2.201  19.834  0.00  0.00    +0.000 A 
ATOM      8  C   UNL     1       2.178   2.085  18.934  0.00  0.00    +0.000 A 
ATOM      9  C   UNL     1       2.901   3.221  18.576  0.00  0.00    +0.000 A 
ATOM     10  C   UNL     1       2.579   4.490  19.124  0.00  0.00    +0.000 A 
ENDROOT
BRANCH   1  11
ATOM     11  N   UNL     1       4.206   5.723  17.790  0.00  0.00    +0.000 N 
ATOM     12  H   UNL     1       4.056   4.977  17.122  0.00  0.00    +0.000 HD
BRANCH  11  17
ATOM     13  C   UNL     1       7.584   5.872  19.356  0.00  0.00    +0.000 A 
ATOM     14  C   UNL     1       8.219   6.817  18.562  0.00  0.00    +0.000 A 
ATOM     15  C   UNL     1       7.523   7.390  17.499  0.00  0.00    +0.000 A 
ATOM     16  C   UNL     1       6.199   7.014  17.235  0.00  0.00    +0.000 A 
ATOM     17  C   UNL     1       5.564   6.038  18.013  0.00  0.00    +0.000 A 
ATOM     18  C   UNL     1       6.274   5.485  19.090  0.00  0.00    +0.000 A 
BRANCH  13  19
ATOM     19  O   UNL     1       8.208   5.302  20.427  0.00  0.00    +0.000 OA
ATOM     20  H   UNL     1       7.865   4.402  20.545  0.00  0.00    +0.000 HD
ENDBRANCH  13  19
ENDBRANCH  11  17
ENDBRANCH   1  11
BRANCH   3  21
ATOM     21  C   UNL     1       1.485   8.137  20.843  0.00  0.00    +0.000 C 
ATOM     22  C   UNL     1       0.907   9.141  20.158  0.00  0.00    +0.000 C 
BRANCH  22  23
ATOM     23  C   UNL     1       0.558  10.467  20.705  0.00  0.00    +0.000 A 
ATOM     24  C   UNL     1      -0.221  10.563  21.876  0.00  0.00    +0.000 A 
ATOM     25  C   UNL     1      -0.575  11.818  22.334  0.00  0.00    +0.000 A 
ATOM     26  C   UNL     1      -0.198  12.963  21.679  0.00  0.00    +0.000 A 
ATOM     27  C   UNL     1       0.554  12.925  20.528  0.00  0.00    +0.000 A 
ATOM     28  C   UNL     1       0.930  11.667  20.037  0.00  0.00    +0.000 A 
ATOM     29 BR   UNL     1       1.977  11.670  18.443  0.00  0.00    +0.000 Br
ATOM     30  O   UNL     1      -0.654  14.090  22.288  0.00  0.00    +0.000 OA
ATOM     31  C   UNL     1      -1.377  13.522  23.400  0.00  0.00    +0.000 C 
ATOM     32  O   UNL     1      -1.324  12.079  23.439  0.00  0.00    +0.000 OA
ENDBRANCH  22  23
ENDBRANCH   3  21
TORSDOF 5
ENDMDL
MODEL 5
REMARK VINA RESULT:      -9.5      2.619      3.310
REMARK  Name = 
REMARK  5 active torsions:
REMARK  status: ('A' for Active; 'I' for Inactive)
REMARK    1  A    between atoms: O_1  and  C_2
REMARK    2  A    between atoms: C_6  and  N_7
REMARK    3  A    between atoms: N_7  and  C_8
REMARK    4  A    between atoms: C_10  and  C_11
REMARK    5  A    between atoms: C_12  and  C_13
REMARK                            x       y       z     vdW  Elec       q    Type
REMARK                         _______ _______ _______ _____ _____    ______ ____
ROOT
ATOM      1  C   UNL     1       0.353  10.980  19.058  0.00  0.00    +0.000 A 
ATOM      2  N   UNL     1       1.065  10.116  18.308  0.00  0.00    +0.000 NA
ATOM      3  C   UNL     1       1.461   8.984  18.893  0.00  0.00    +0.000 A 
ATOM      4  N   UNL     1       1.214   8.645  20.165  0.00  0.00    +0.000 NA
ATOM      5  C   UNL     1       0.505   9.504  20.901  0.00  0.00    +0.000 A 
ATOM      6  C   UNL     1       0.276   9.198  22.236  0.00  0.00    +0.000 A 
ATOM      7  C   UNL     1      -0.452  10.047  23.076  0.00  0.00    +0.000 A 
ATOM      8  C   UNL     1      -0.976  11.229  22.571  0.00  0.00    +0.000 A 
ATOM      9  C   UNL     1      -0.751  11.563  21.236  0.00  0.00    +0.000 A 
ATOM     10  C   UNL     1       0.001  10.707  20.391  0.00  0.00    +0.000 A 
ENDROOT
BRANCH   1  11
ATOM     11  N   UNL     1      -0.040  12.207  18.469  0.00  0.00    +0.000 N 
ATOM     12  H   UNL     1      -0.458  12.042  17.561  0.00  0.00    +0.000 HD
BRANCH  11  17
ATOM     13  C   UNL     1       0.670  15.846  18.848  0.00  0.00    +0.000 A 
ATOM     14  C   UNL     1       2.033  15.893  18.590  0.00  0.00    +0.000 A 
ATOM     15  C   UNL     1       2.713  14.709  18.305  0.00  0.00    +0.000 A 
ATOM     16  C   UNL     1       2.027  13.488  18.282  0.00  0.00    +0.000 A 
ATOM     17  C   UNL     1       0.658  13.430  18.572  0.00  0.00    +0.000 A 
ATOM     18  C   UNL     1      -0.014  14.633  18.840  0.00  0.00    +0.000 A 
BRANCH  13  19
ATOM     19  O   UNL     1      -0.049  16.976  19.103  0.00  0.00    +0.000 OA
ATOM     20  H   UNL     1       0.271  17.686  18.524  0.00  0.00    +0.000 HD
ENDBRANCH  13  19
ENDBRANCH  11  17
ENDBRANCH   1  11
BRANCH   3  21
ATOM     21  C   UNL     1       2.238   8.061  18.056  0.00  0.00    +0.000 C 
ATOM     22  C   UNL     1       2.905   6.998  18.542  0.00  0.00    +0.000 C 
BRANCH  22  23
ATOM     23  C   UNL     1       3.732   6.065  17.751  0.00  0.00    +0.000 A 
ATOM     24  C   UNL     1       4.884   6.533  17.088  0.00  0.00    +0.000 A 
ATOM     25  C   UNL     1       5.608   5.648  16.313  0.00  0.00    +0.000 A 
ATOM     26  C   UNL     1       5.234   4.335  16.168  0.00  0.00    +0.000 A 
ATOM     27  C   UNL     1       4.114   3.830  16.787  0.00  0.00    +0.000 A 
ATOM     28  C   UNL     1       3.356   4.703  17.580  0.00  0.00    +0.000 A 
ATOM     29 BR   UNL     1       1.818   3.951  18.419  0.00  0.00    +0.000 Br
ATOM     30  O   UNL     1       6.075   3.636  15.361  0.00  0.00    +0.000 OA
ATOM     31  C   UNL     1       7.020   4.665  15.000  0.00  0.00    +0.000 C 
ATOM     32  O   UNL     1       6.734   5.942  15.609  0.00  0.00    +0.000 OA
ENDBRANCH  22  23
ENDBRANCH   3  21
TORSDOF 5
ENDMDL
MODEL 6
REMARK VINA RESULT:      -9.2      3.789      9.309
REMARK  Name = 
REMARK  5 active torsions:
REMARK  status: ('A' for Active; 'I' for Inactive)
REMARK    1  A    between atoms: O_1  and  C_2
REMARK    2  A    between atoms: C_6  and  N_7
REMARK    3  A    between atoms: N_7  and  C_8
REMARK    4  A    between atoms: C_10  and  C_11
REMARK    5  A    between atoms: C_12  and  C_13
REMARK                            x       y       z     vdW  Elec       q    Type
REMARK                         _______ _______ _______ _____ _____    ______ ____
ROOT
ATOM      1  C   UNL     1       3.204   5.903  18.874  0.00  0.00    +0.000 A 
ATOM      2  N   UNL     1       2.707   7.109  19.212  0.00  0.00    +0.000 NA
ATOM      3  C   UNL     1       1.735   7.134  20.124  0.00  0.00    +0.000 A 
ATOM      4  N   UNL     1       1.210   6.056  20.723  0.00  0.00    +0.000 NA
ATOM      5  C   UNL     1       1.710   4.865  20.386  0.00  0.00    +0.000 A 
ATOM      6  C   UNL     1       1.151   3.729  20.956  0.00  0.00    +0.000 A 
ATOM      7  C   UNL     1       1.613   2.444  20.652  0.00  0.00    +0.000 A 
ATOM      8  C   UNL     1       2.668   2.285  19.764  0.00  0.00    +0.000 A 
ATOM      9  C   UNL     1       3.238   3.410  19.170  0.00  0.00    +0.000 A 
ATOM     10  C   UNL     1       2.757   4.711  19.469  0.00  0.00    +0.000 A 
ENDROOT
BRANCH   1  11
ATOM     11  N   UNL     1       4.208   5.851  17.875  0.00  0.00    +0.000 N 
ATOM     12  H   UNL     1       4.021   5.094  17.230  0.00  0.00    +0.000 HD
BRANCH  11  17
ATOM     13  C   UNL     1       7.615   5.892  19.385  0.00  0.00    +0.000 A 
ATOM     14  C   UNL     1       8.270   6.806  18.571  0.00  0.00    +0.000 A 
ATOM     15  C   UNL     1       7.578   7.394  17.513  0.00  0.00    +0.000 A 
ATOM     16  C   UNL     1       6.238   7.064  17.275  0.00  0.00    +0.000 A 
ATOM     17  C   UNL     1       5.580   6.119  18.073  0.00  0.00    +0.000 A 
ATOM     18  C   UNL     1       6.287   5.551  19.144  0.00  0.00    +0.000 A 
BRANCH  13  19
ATOM     19  O   UNL     1       8.236   5.310  20.451  0.00  0.00    +0.000 OA
ATOM     20  H   UNL     1       9.179   5.211  20.245  0.00  0.00    +0.000 HD
ENDBRANCH  13  19
ENDBRANCH  11  17
ENDBRANCH   1  11
BRANCH   3  21
ATOM     21  C   UNL     1       1.208   8.460  20.473  0.00  0.00    +0.000 C 
ATOM     22  C   UNL     1       0.951   9.420  19.566  0.00  0.00    +0.000 C 
BRANCH  22  23
ATOM     23  C   UNL     1       0.460  10.779  19.867  0.00  0.00    +0.000 A 
ATOM     24  C   UNL     1       1.133  11.577  20.814  0.00  0.00    +0.000 A 
ATOM     25  C   UNL     1       0.620  12.825  21.113  0.00  0.00    +0.000 A 
ATOM     26  C   UNL     1      -0.523  13.301  20.521  0.00  0.00    +0.000 A 
ATOM     27  C   UNL     1      -1.222  12.560  19.597  0.00  0.00    +0.000 A 
ATOM     28  C   UNL     1      -0.728  11.289  19.272  0.00  0.00    +0.000 A 
ATOM     29 BR   UNL     1      -1.730  10.306  17.981  0.00  0.00    +0.000 Br
ATOM     30  O   UNL     1      -0.860  14.543  20.957  0.00  0.00    +0.000 OA
ATOM     31  C   UNL     1       0.197  14.793  21.907  0.00  0.00    +0.000 C 
ATOM     32  O   UNL     1       1.145  13.709  22.004  0.00  0.00    +0.000 OA
ENDBRANCH  22  23
ENDBRANCH   3  21
TORSDOF 5
ENDMDL
MODEL 7
REMARK VINA RESULT:      -9.1      3.739      9.563
REMARK  Name = 
REMARK  5 active torsions:
REMARK  status: ('A' for Active; 'I' for Inactive)
REMARK    1  A    between atoms: O_1  and  C_2
REMARK    2  A    between atoms: C_6  and  N_7
REMARK    3  A    between atoms: N_7  and  C_8
REMARK    4  A    between atoms: C_10  and  C_11
REMARK    5  A    between atoms: C_12  and  C_13
REMARK                            x       y       z     vdW  Elec       q    Type
REMARK                         _______ _______ _______ _____ _____    ______ ____
ROOT
ATOM      1  C   UNL     1       3.257   5.848  18.897  0.00  0.00    +0.000 A 
ATOM      2  N   UNL     1       2.810   7.077  19.221  0.00  0.00    +0.000 NA
ATOM      3  C   UNL     1       1.829   7.151  20.122  0.00  0.00    +0.000 A 
ATOM      4  N   UNL     1       1.251   6.102  20.722  0.00  0.00    +0.000 NA
ATOM      5  C   UNL     1       1.701   4.888  20.398  0.00  0.00    +0.000 A 
ATOM      6  C   UNL     1       1.086   3.781  20.970  0.00  0.00    +0.000 A 
ATOM      7  C   UNL     1       1.494   2.476  20.680  0.00  0.00    +0.000 A 
ATOM      8  C   UNL     1       2.550   2.264  19.804  0.00  0.00    +0.000 A 
ATOM      9  C   UNL     1       3.176   3.358  19.210  0.00  0.00    +0.000 A 
ATOM     10  C   UNL     1       2.750   4.681  19.495  0.00  0.00    +0.000 A 
ENDROOT
BRANCH   1  11
ATOM     11  N   UNL     1       4.268   5.745  17.910  0.00  0.00    +0.000 N 
ATOM     12  H   UNL     1       4.099   4.941  17.318  0.00  0.00    +0.000 HD
BRANCH  11  17
ATOM     13  C   UNL     1       7.684   5.881  19.393  0.00  0.00    +0.000 A 
ATOM     14  C   UNL     1       8.308   6.811  18.573  0.00  0.00    +0.000 A 
ATOM     15  C   UNL     1       7.592   7.378  17.519  0.00  0.00    +0.000 A 
ATOM     16  C   UNL     1       6.259   7.011  17.292  0.00  0.00    +0.000 A 
ATOM     17  C   UNL     1       5.634   6.050  18.097  0.00  0.00    +0.000 A 
ATOM     18  C   UNL     1       6.364   5.503  19.163  0.00  0.00    +0.000 A 
BRANCH  13  19
ATOM     19  O   UNL     1       8.329   5.318  20.455  0.00  0.00    +0.000 OA
ATOM     20  H   UNL     1       9.164   4.934  20.144  0.00  0.00    +0.000 HD
ENDBRANCH  13  19
ENDBRANCH  11  17
ENDBRANCH   1  11
BRANCH   3  21
ATOM     21  C   UNL     1       1.358   8.502  20.456  0.00  0.00    +0.000 C 
ATOM     22  C   UNL     1       0.060   8.857  20.457  0.00  0.00    +0.000 C 
BRANCH  22  23
ATOM     23  C   UNL     1      -0.462  10.208  20.745  0.00  0.00    +0.000 A 
ATOM     24  C   UNL     1      -0.380  10.732  22.051  0.00  0.00    +0.000 A 
ATOM     25  C   UNL     1      -0.924  11.977  22.300  0.00  0.00    +0.000 A 
ATOM     26  C   UNL     1      -1.544  12.709  21.318  0.00  0.00    +0.000 A 
ATOM     27  C   UNL     1      -1.658  12.240  20.031  0.00  0.00    +0.000 A 
ATOM     28  C   UNL     1      -1.117  10.979  19.744  0.00  0.00    +0.000 A 
ATOM     29 BR   UNL     1      -1.297  10.380  17.943  0.00  0.00    +0.000 Br
ATOM     30  O   UNL     1      -2.016  13.900  21.772  0.00  0.00    +0.000 OA
ATOM     31  C   UNL     1      -1.633  13.832  23.161  0.00  0.00    +0.000 C 
ATOM     32  O   UNL     1      -0.932  12.616  23.501  0.00  0.00    +0.000 OA
ENDBRANCH  22  23
ENDBRANCH   3  21
TORSDOF 5
ENDMDL
MODEL 8
REMARK VINA RESULT:      -9.0      3.869      9.536
REMARK  Name = 
REMARK  5 active torsions:
REMARK  status: ('A' for Active; 'I' for Inactive)
REMARK    1  A    between atoms: O_1  and  C_2
REMARK    2  A    between atoms: C_6  and  N_7
REMARK    3  A    between atoms: N_7  and  C_8
REMARK    4  A    between atoms: C_10  and  C_11
REMARK    5  A    between atoms: C_12  and  C_13
REMARK                            x       y       z     vdW  Elec       q    Type
REMARK                         _______ _______ _______ _____ _____    ______ ____
ROOT
ATOM      1  C   UNL     1       2.876   5.910  18.624  0.00  0.00    +0.000 A 
ATOM      2  N   UNL     1       2.540   7.083  19.195  0.00  0.00    +0.000 NA
ATOM      3  C   UNL     1       1.755   7.034  20.272  0.00  0.00    +0.000 A 
ATOM      4  N   UNL     1       1.270   5.913  20.824  0.00  0.00    +0.000 NA
ATOM      5  C   UNL     1       1.610   4.754  20.255  0.00  0.00    +0.000 A 
ATOM      6  C   UNL     1       1.082   3.581  20.778  0.00  0.00    +0.000 A 
ATOM      7  C   UNL     1       1.384   2.327  20.237  0.00  0.00    +0.000 A 
ATOM      8  C   UNL     1       2.244   2.237  19.151  0.00  0.00    +0.000 A 
ATOM      9  C   UNL     1       2.778   3.401  18.602  0.00  0.00    +0.000 A 
ATOM     10  C   UNL     1       2.458   4.673  19.143  0.00  0.00    +0.000 A 
ENDROOT
BRANCH   1  11
ATOM     11  N   UNL     1       3.673   5.942  17.453  0.00  0.00    +0.000 N 
ATOM     12  H   UNL     1       3.097   5.801  16.633  0.00  0.00    +0.000 HD
BRANCH  11  17
ATOM     13  C   UNL     1       7.218   5.097  18.237  0.00  0.00    +0.000 A 
ATOM     14  C   UNL     1       7.653   4.570  17.029  0.00  0.00    +0.000 A 
ATOM     15  C   UNL     1       6.759   4.483  15.963  0.00  0.00    +0.000 A 
ATOM     16  C   UNL     1       5.437   4.924  16.111  0.00  0.00    +0.000 A 
ATOM     17  C   UNL     1       4.984   5.428  17.336  0.00  0.00    +0.000 A 
ATOM     18  C   UNL     1       5.902   5.523  18.394  0.00  0.00    +0.000 A 
BRANCH  13  19
ATOM     19  O   UNL     1       8.058   5.232  19.303  0.00  0.00    +0.000 OA
ATOM     20  H   UNL     1       7.532   5.217  20.118  0.00  0.00    +0.000 HD
ENDBRANCH  13  19
ENDBRANCH  11  17
ENDBRANCH   1  11
BRANCH   3  21
ATOM     21  C   UNL     1       1.400   8.326  20.874  0.00  0.00    +0.000 C 
ATOM     22  C   UNL     1       0.909   9.364  20.172  0.00  0.00    +0.000 C 
BRANCH  22  23
ATOM     23  C   UNL     1       0.576  10.693  20.720  0.00  0.00    +0.000 A 
ATOM     24  C   UNL     1      -0.212  10.798  21.884  0.00  0.00    +0.000 A 
ATOM     25  C   UNL     1      -0.551  12.056  22.344  0.00  0.00    +0.000 A 
ATOM     26  C   UNL     1      -0.148  13.198  21.698  0.00  0.00    +0.000 A 
ATOM     27  C   UNL     1       0.614  13.151  20.554  0.00  0.00    +0.000 A 
ATOM     28  C   UNL     1       0.974  11.889  20.061  0.00  0.00    +0.000 A 
ATOM     29 BR   UNL     1       2.036  11.881  18.477  0.00  0.00    +0.000 Br
ATOM     30  O   UNL     1      -0.592  14.329  22.307  0.00  0.00    +0.000 OA
ATOM     31  C   UNL     1      -1.334  13.769  23.409  0.00  0.00    +0.000 C 
ATOM     32  O   UNL     1      -1.305  12.325  23.444  0.00  0.00    +0.000 OA
ENDBRANCH  22  23
ENDBRANCH   3  21
TORSDOF 5
ENDMDL
MODEL 9
REMARK VINA RESULT:      -8.9      3.577      9.380
REMARK  Name = 
REMARK  5 active torsions:
REMARK  status: ('A' for Active; 'I' for Inactive)
REMARK    1  A    between atoms: O_1  and  C_2
REMARK    2  A    between atoms: C_6  and  N_7
REMARK    3  A    between atoms: N_7  and  C_8
REMARK    4  A    between atoms: C_10  and  C_11
REMARK    5  A    between atoms: C_12  and  C_13
REMARK                            x       y       z     vdW  Elec       q    Type
REMARK                         _______ _______ _______ _____ _____    ______ ____
ROOT
ATOM      1  C   UNL     1       3.256   5.809  18.822  0.00  0.00    +0.000 A 
ATOM      2  N   UNL     1       2.883   7.037  19.231  0.00  0.00    +0.000 NA
ATOM      3  C   UNL     1       1.885   7.109  20.113  0.00  0.00    +0.000 A 
ATOM      4  N   UNL     1       1.222   6.060  20.617  0.00  0.00    +0.000 NA
ATOM      5  C   UNL     1       1.599   4.846  20.209  0.00  0.00    +0.000 A 
ATOM      6  C   UNL     1       0.896   3.744  20.678  0.00  0.00    +0.000 A 
ATOM      7  C   UNL     1       1.223   2.439  20.296  0.00  0.00    +0.000 A 
ATOM      8  C   UNL     1       2.287   2.223  19.431  0.00  0.00    +0.000 A 
ATOM      9  C   UNL     1       3.001   3.314  18.938  0.00  0.00    +0.000 A 
ATOM     10  C   UNL     1       2.657   4.637  19.315  0.00  0.00    +0.000 A 
ENDROOT
BRANCH   1  11
ATOM     11  N   UNL     1       4.285   5.712  17.853  0.00  0.00    +0.000 N 
ATOM     12  H   UNL     1       4.135   4.903  17.263  0.00  0.00    +0.000 HD
BRANCH  11  17
ATOM     13  C   UNL     1       7.680   5.876  19.380  0.00  0.00    +0.000 A 
ATOM     14  C   UNL     1       8.300   6.827  18.581  0.00  0.00    +0.000 A 
ATOM     15  C   UNL     1       7.589   7.399  17.527  0.00  0.00    +0.000 A 
ATOM     16  C   UNL     1       6.264   7.016  17.278  0.00  0.00    +0.000 A 
ATOM     17  C   UNL     1       5.644   6.034  18.061  0.00  0.00    +0.000 A 
ATOM     18  C   UNL     1       6.369   5.482  19.128  0.00  0.00    +0.000 A 
BRANCH  13  19
ATOM     19  O   UNL     1       8.320   5.307  20.442  0.00  0.00    +0.000 OA
ATOM     20  H   UNL     1       7.672   4.812  20.967  0.00  0.00    +0.000 HD
ENDBRANCH  13  19
ENDBRANCH  11  17
ENDBRANCH   1  11
BRANCH   3  21
ATOM     21  C   UNL     1       1.496   8.460  20.541  0.00  0.00    +0.000 C 
ATOM     22  C   UNL     1       0.360   9.066  20.149  0.00  0.00    +0.000 C 
BRANCH  22  23
ATOM     23  C   UNL     1      -0.057  10.433  20.517  0.00  0.00    +0.000 A 
ATOM     24  C   UNL     1      -0.124  11.438  19.531  0.00  0.00    +0.000 A 
ATOM     25  C   UNL     1      -0.466  12.721  19.915  0.00  0.00    +0.000 A 
ATOM     26  C   UNL     1      -0.735  13.040  21.222  0.00  0.00    +0.000 A 
ATOM     27  C   UNL     1      -0.676  12.099  22.223  0.00  0.00    +0.000 A 
ATOM     28  C   UNL     1      -0.330  10.788  21.867  0.00  0.00    +0.000 A 
ATOM     29 BR   UNL     1      -0.269   9.522  23.292  0.00  0.00    +0.000 Br
ATOM     30  O   UNL     1      -1.045  14.353  21.388  0.00  0.00    +0.000 OA
ATOM     31  C   UNL     1      -0.927  14.832  20.032  0.00  0.00    +0.000 C 
ATOM     32  O   UNL     1      -0.569  13.798  19.090  0.00  0.00    +0.000 OA
ENDBRANCH  22  23
ENDBRANCH   3  21
TORSDOF 5
ENDMDL
