MODEL 1
REMARK VINA RESULT:      -7.1      0.000      0.000
REMARK  Name = 
REMARK  11 active torsions:
REMARK  status: ('A' for Active; 'I' for Inactive)
REMARK    1  A    between atoms: C_1  and  O_2
REMARK    2  A    between atoms: O_2  and  C_3
REMARK    3  A    between atoms: C_6  and  S_7
REMARK    4  A    between atoms: S_7  and  N_10
REMARK    5  A    between atoms: N_10  and  C_11
REMARK    6  A    between atoms: C_11  and  C_12
REMARK    7  A    between atoms: C_11  and  CA_15
REMARK    8  A    between atoms: C_12  and  O_14
REMARK    9  A    between atoms: CA_15  and  N_16
REMARK   10  A    between atoms: CA_15  and  C_17
REMARK   11  A    between atoms: C_17  and  OXT_19
REMARK                            x       y       z     vdW  Elec       q    Type
REMARK                         _______ _______ _______ _____ _____    ______ ____
ROOT
ATOM      1  N   UNL     1       3.237   4.864  19.854  0.00  0.00    +0.000 NA
ATOM      2  H   UNL     1       2.959   5.441  20.662  0.00  0.00    +0.000 HD
ENDROOT
BRANCH   1   3
ATOM      3  S   UNL     1       2.775   5.801  18.499  0.00  0.00    +0.000 S 
ATOM      4  O   UNL     1       2.741   7.167  18.969  0.00  0.00    +0.000 OA
ATOM      5  O   UNL     1       1.639   5.168  17.876  0.00  0.00    +0.000 OA
BRANCH   3   9
ATOM      6  C   UNL     1       6.437   5.390  15.801  0.00  0.00    +0.000 A 
ATOM      7  C   UNL     1       6.276   6.513  16.613  0.00  0.00    +0.000 A 
ATOM      8  C   UNL     1       5.139   6.656  17.408  0.00  0.00    +0.000 A 
ATOM      9  C   UNL     1       4.143   5.675  17.374  0.00  0.00    +0.000 A 
ATOM     10  C   UNL     1       4.287   4.551  16.556  0.00  0.00    +0.000 A 
ATOM     11  C   UNL     1       5.436   4.414  15.764  0.00  0.00    +0.000 A 
BRANCH   6  13
ATOM     12  C   UNL     1       7.474   4.939  13.721  0.00  0.00    +0.000 C 
ATOM     13  O   UNL     1       7.593   5.372  15.071  0.00  0.00    +0.000 OA
ENDBRANCH   6  13
ENDBRANCH   3   9
ENDBRANCH   1   3
BRANCH   1  14
ATOM     14  C   UNL     1       2.673   3.475  19.917  0.00  0.00    +0.000 C 
BRANCH  14  15
ATOM     15  C   UNL     1       1.919   3.204  21.215  0.00  0.00    +0.000 C 
ATOM     16  O   UNL     1       2.464   3.140  22.310  0.00  0.00    +0.000 OA
BRANCH  15  17
ATOM     17  O   UNL     1       0.597   2.976  21.037  0.00  0.00    +0.000 OA
ATOM     18  H   UNL     1       0.230   3.407  20.233  0.00  0.00    +0.000 HD
ENDBRANCH  15  17
ENDBRANCH  14  15
BRANCH  14  19
ATOM     19  CA  UNL     1       3.779   2.409  19.738  0.00  0.00    +0.000 C 
BRANCH  19  20
ATOM     20  N   UNL     1       5.143   3.017  19.630  0.00  0.00    +0.000 NA
ATOM     21  H1  UNL     1       5.106   3.913  20.150  0.00  0.00    +0.000 HD
ATOM     22  H2  UNL     1       5.259   3.359  18.668  0.00  0.00    +0.000 HD
ENDBRANCH  19  20
BRANCH  19  23
ATOM     23  C   UNL     1       3.540   1.513  18.510  0.00  0.00    +0.000 C 
ATOM     24  O   UNL     1       2.680   1.742  17.673  0.00  0.00    +0.000 OA
BRANCH  23  25
ATOM     25  OXT UNL     1       4.403   0.480  18.403  0.00  0.00    +0.000 OA
ATOM     26  HXT UNL     1       4.740   0.304  17.503  0.00  0.00    +0.000 HD
ENDBRANCH  23  25
ENDBRANCH  19  23
ENDBRANCH  14  19
ENDBRANCH   1  14
TORSDOF 10
ENDMDL
MODEL 2
REMARK VINA RESULT:      -6.9      1.997      2.623
REMARK  Name = 
REMARK  11 active torsions:
REMARK  status: ('A' for Active; 'I' for Inactive)
REMARK    1  A    between atoms: C_1  and  O_2
REMARK    2  A    between atoms: O_2  and  C_3
REMARK    3  A    between atoms: C_6  and  S_7
REMARK    4  A    between atoms: S_7  and  N_10
REMARK    5  A    between atoms: N_10  and  C_11
REMARK    6  A    between atoms: C_11  and  C_12
REMARK    7  A    between atoms: C_11  and  CA_15
REMARK    8  A    between atoms: C_12  and  O_14
REMARK    9  A    between atoms: CA_15  and  N_16
REMARK   10  A    between atoms: CA_15  and  C_17
REMARK   11  A    between atoms: C_17  and  OXT_19
REMARK                            x       y       z     vdW  Elec       q    Type
REMARK                         _______ _______ _______ _____ _____    ______ ____
ROOT
ATOM      1  N   UNL     1       4.900   3.089  19.464  0.00  0.00    +0.000 NA
ATOM      2  H   UNL     1       5.579   2.843  20.201  0.00  0.00    +0.000 HD
ENDROOT
BRANCH   1   3
ATOM      3  S   UNL     1       5.341   4.679  19.010  0.00  0.00    +0.000 S 
ATOM      4  O   UNL     1       6.525   4.986  19.780  0.00  0.00    +0.000 OA
ATOM      5  O   UNL     1       4.159   5.505  19.046  0.00  0.00    +0.000 OA
BRANCH   3   9
ATOM      6  C   UNL     1       6.562   4.566  14.610  0.00  0.00    +0.000 A 
ATOM      7  C   UNL     1       5.239   4.331  14.987  0.00  0.00    +0.000 A 
ATOM      8  C   UNL     1       4.874   4.328  16.332  0.00  0.00    +0.000 A 
ATOM      9  C   UNL     1       5.848   4.541  17.314  0.00  0.00    +0.000 A 
ATOM     10  C   UNL     1       7.178   4.767  16.951  0.00  0.00    +0.000 A 
ATOM     11  C   UNL     1       7.534   4.773  15.594  0.00  0.00    +0.000 A 
BRANCH   6  13
ATOM     12  C   UNL     1       6.236   3.435  12.556  0.00  0.00    +0.000 C 
ATOM     13  O   UNL     1       6.787   4.540  13.262  0.00  0.00    +0.000 OA
ENDBRANCH   6  13
ENDBRANCH   3   9
ENDBRANCH   1   3
BRANCH   1  14
ATOM     14  C   UNL     1       3.479   2.901  19.905  0.00  0.00    +0.000 C 
BRANCH  14  15
ATOM     15  C   UNL     1       3.369   2.418  21.348  0.00  0.00    +0.000 C 
ATOM     16  O   UNL     1       2.490   2.785  22.116  0.00  0.00    +0.000 OA
BRANCH  15  17
ATOM     17  O   UNL     1       4.374   1.592  21.721  0.00  0.00    +0.000 OA
ATOM     18  H   UNL     1       5.227   1.783  21.269  0.00  0.00    +0.000 HD
ENDBRANCH  15  17
ENDBRANCH  14  15
BRANCH  14  19
ATOM     19  CA  UNL     1       2.727   1.916  18.980  0.00  0.00    +0.000 C 
BRANCH  19  20
ATOM     20  N   UNL     1       3.631   1.289  17.963  0.00  0.00    +0.000 NA
ATOM     21  H1  UNL     1       3.184   1.442  17.041  0.00  0.00    +0.000 HD
ATOM     22  H2  UNL     1       3.542   0.269  18.052  0.00  0.00    +0.000 HD
ENDBRANCH  19  20
BRANCH  19  23
ATOM     23  C   UNL     1       1.546   2.578  18.249  0.00  0.00    +0.000 C 
ATOM     24  O   UNL     1       1.659   3.597  17.585  0.00  0.00    +0.000 OA
BRANCH  23  25
ATOM     25  OXT UNL     1       0.381   1.904  18.357  0.00  0.00    +0.000 OA
ATOM     26  HXT UNL     1      -0.298   2.127  17.690  0.00  0.00    +0.000 HD
ENDBRANCH  23  25
ENDBRANCH  19  23
ENDBRANCH  14  19
ENDBRANCH   1  14
TORSDOF 10
ENDMDL
MODEL 3
REMARK VINA RESULT:      -6.9      2.002      2.599
REMARK  Name = 
REMARK  11 active torsions:
REMARK  status: ('A' for Active; 'I' for Inactive)
REMARK    1  A    between atoms: C_1  and  O_2
REMARK    2  A    between atoms: O_2  and  C_3
REMARK    3  A    between atoms: C_6  and  S_7
REMARK    4  A    between atoms: S_7  and  N_10
REMARK    5  A    between atoms: N_10  and  C_11
REMARK    6  A    between atoms: C_11  and  C_12
REMARK    7  A    between atoms: C_11  and  CA_15
REMARK    8  A    between atoms: C_12  and  O_14
REMARK    9  A    between atoms: CA_15  and  N_16
REMARK   10  A    between atoms: CA_15  and  C_17
REMARK   11  A    between atoms: C_17  and  OXT_19
REMARK                            x       y       z     vdW  Elec       q    Type
REMARK                         _______ _______ _______ _____ _____    ______ ____
ROOT
ATOM      1  N   UNL     1       4.605   3.487  19.525  0.00  0.00    +0.000 NA
ATOM      2  H   UNL     1       5.106   3.233  20.389  0.00  0.00    +0.000 HD
ENDROOT
BRANCH   1   3
ATOM      3  S   UNL     1       5.359   4.938  19.021  0.00  0.00    +0.000 S 
ATOM      4  O   UNL     1       6.568   5.037  19.806  0.00  0.00    +0.000 OA
ATOM      5  O   UNL     1       4.364   5.982  18.997  0.00  0.00    +0.000 OA
BRANCH   3   9
ATOM      6  C   UNL     1       6.495   4.356  14.636  0.00  0.00    +0.000 A 
ATOM      7  C   UNL     1       5.276   3.884  15.122  0.00  0.00    +0.000 A 
ATOM      8  C   UNL     1       4.945   4.028  16.469  0.00  0.00    +0.000 A 
ATOM      9  C   UNL     1       5.855   4.632  17.344  0.00  0.00    +0.000 A 
ATOM     10  C   UNL     1       7.085   5.099  16.872  0.00  0.00    +0.000 A 
ATOM     11  C   UNL     1       7.405   4.953  15.514  0.00  0.00    +0.000 A 
BRANCH   6  13
ATOM     12  C   UNL     1       5.669   3.448  12.611  0.00  0.00    +0.000 C 
ATOM     13  O   UNL     1       6.697   4.150  13.299  0.00  0.00    +0.000 OA
ENDBRANCH   6  13
ENDBRANCH   3   9
ENDBRANCH   1   3
BRANCH   1  14
ATOM     14  C   UNL     1       3.118   3.551  19.718  0.00  0.00    +0.000 C 
BRANCH  14  15
ATOM     15  C   UNL     1       2.724   3.797  21.171  0.00  0.00    +0.000 C 
ATOM     16  O   UNL     1       2.596   2.901  21.995  0.00  0.00    +0.000 OA
BRANCH  15  17
ATOM     17  O   UNL     1       2.466   5.096  21.450  0.00  0.00    +0.000 OA
ATOM     18  H   UNL     1       1.577   5.392  21.151  0.00  0.00    +0.000 HD
ENDBRANCH  15  17
ENDBRANCH  14  15
BRANCH  14  19
ATOM     19  CA  UNL     1       2.428   2.262  19.215  0.00  0.00    +0.000 C 
BRANCH  19  20
ATOM     20  N   UNL     1       3.367   1.374  18.456  0.00  0.00    +0.000 NA
ATOM     21  H1  UNL     1       2.806   0.927  17.708  0.00  0.00    +0.000 HD
ATOM     22  H2  UNL     1       3.577   0.562  19.049  0.00  0.00    +0.000 HD
ENDBRANCH  19  20
BRANCH  19  23
ATOM     23  C   UNL     1       1.204   2.556  18.330  0.00  0.00    +0.000 C 
ATOM     24  O   UNL     1       0.138   1.973  18.451  0.00  0.00    +0.000 OA
BRANCH  23  25
ATOM     25  OXT UNL     1       1.391   3.558  17.444  0.00  0.00    +0.000 OA
ATOM     26  HXT UNL     1       2.025   4.249  17.717  0.00  0.00    +0.000 HD
ENDBRANCH  23  25
ENDBRANCH  19  23
ENDBRANCH  14  19
ENDBRANCH   1  14
TORSDOF 10
ENDMDL
MODEL 4
REMARK VINA RESULT:      -6.9      3.093      4.675
REMARK  Name = 
REMARK  11 active torsions:
REMARK  status: ('A' for Active; 'I' for Inactive)
REMARK    1  A    between atoms: C_1  and  O_2
REMARK    2  A    between atoms: O_2  and  C_3
REMARK    3  A    between atoms: C_6  and  S_7
REMARK    4  A    between atoms: S_7  and  N_10
REMARK    5  A    between atoms: N_10  and  C_11
REMARK    6  A    between atoms: C_11  and  C_12
REMARK    7  A    between atoms: C_11  and  CA_15
REMARK    8  A    between atoms: C_12  and  O_14
REMARK    9  A    between atoms: CA_15  and  N_16
REMARK   10  A    between atoms: CA_15  and  C_17
REMARK   11  A    between atoms: C_17  and  OXT_19
REMARK                            x       y       z     vdW  Elec       q    Type
REMARK                         _______ _______ _______ _____ _____    ______ ____
ROOT
ATOM      1  N   UNL     1       3.254   5.034  20.019  0.00  0.00    +0.000 NA
ATOM      2  H   UNL     1       2.710   5.629  20.661  0.00  0.00    +0.000 HD
ENDROOT
BRANCH   1   3
ATOM      3  S   UNL     1       3.255   5.907  18.547  0.00  0.00    +0.000 S 
ATOM      4  O   UNL     1       2.381   5.172  17.662  0.00  0.00    +0.000 OA
ATOM      5  O   UNL     1       4.621   6.217  18.204  0.00  0.00    +0.000 OA
BRANCH   3   9
ATOM      6  C   UNL     1       0.939   9.747  19.417  0.00  0.00    +0.000 A 
ATOM      7  C   UNL     1       1.503   9.527  18.160  0.00  0.00    +0.000 A 
ATOM      8  C   UNL     1       2.243   8.372  17.906  0.00  0.00    +0.000 A 
ATOM      9  C   UNL     1       2.437   7.437  18.928  0.00  0.00    +0.000 A 
ATOM     10  C   UNL     1       1.887   7.650  20.195  0.00  0.00    +0.000 A 
ATOM     11  C   UNL     1       1.141   8.813  20.438  0.00  0.00    +0.000 A 
BRANCH   6  13
ATOM     12  C   UNL     1      -0.932  11.029  18.739  0.00  0.00    +0.000 C 
ATOM     13  O   UNL     1       0.242  10.917  19.535  0.00  0.00    +0.000 OA
ENDBRANCH   6  13
ENDBRANCH   3   9
ENDBRANCH   1   3
BRANCH   1  14
ATOM     14  C   UNL     1       2.731   3.630  19.950  0.00  0.00    +0.000 C 
BRANCH  14  15
ATOM     15  C   UNL     1       1.946   3.233  21.197  0.00  0.00    +0.000 C 
ATOM     16  O   UNL     1       2.455   3.107  22.302  0.00  0.00    +0.000 OA
BRANCH  15  17
ATOM     17  O   UNL     1       0.640   2.971  20.954  0.00  0.00    +0.000 OA
ATOM     18  H   UNL     1       0.462   2.693  20.028  0.00  0.00    +0.000 HD
ENDBRANCH  15  17
ENDBRANCH  14  15
BRANCH  14  19
ATOM     19  CA  UNL     1       3.874   2.613  19.724  0.00  0.00    +0.000 C 
BRANCH  19  20
ATOM     20  N   UNL     1       5.188   3.282  19.463  0.00  0.00    +0.000 NA
ATOM     21  H1  UNL     1       5.224   4.109  20.087  0.00  0.00    +0.000 HD
ATOM     22  H2  UNL     1       5.130   3.738  18.544  0.00  0.00    +0.000 HD
ENDBRANCH  19  20
BRANCH  19  23
ATOM     23  C   UNL     1       3.577   1.642  18.567  0.00  0.00    +0.000 C 
ATOM     24  O   UNL     1       2.722   1.853  17.721  0.00  0.00    +0.000 OA
BRANCH  23  25
ATOM     25  OXT UNL     1       4.384   0.560  18.533  0.00  0.00    +0.000 OA
ATOM     26  HXT UNL     1       5.230   0.649  19.016  0.00  0.00    +0.000 HD
ENDBRANCH  23  25
ENDBRANCH  19  23
ENDBRANCH  14  19
ENDBRANCH   1  14
TORSDOF 10
ENDMDL
MODEL 5
REMARK VINA RESULT:      -6.9      1.866      3.239
REMARK  Name = 
REMARK  11 active torsions:
REMARK  status: ('A' for Active; 'I' for Inactive)
REMARK    1  A    between atoms: C_1  and  O_2
REMARK    2  A    between atoms: O_2  and  C_3
REMARK    3  A    between atoms: C_6  and  S_7
REMARK    4  A    between atoms: S_7  and  N_10
REMARK    5  A    between atoms: N_10  and  C_11
REMARK    6  A    between atoms: C_11  and  C_12
REMARK    7  A    between atoms: C_11  and  CA_15
REMARK    8  A    between atoms: C_12  and  O_14
REMARK    9  A    between atoms: CA_15  and  N_16
REMARK   10  A    between atoms: CA_15  and  C_17
REMARK   11  A    between atoms: C_17  and  OXT_19
REMARK                            x       y       z     vdW  Elec       q    Type
REMARK                         _______ _______ _______ _____ _____    ______ ____
ROOT
ATOM      1  N   UNL     1       3.611   4.849  18.993  0.00  0.00    +0.000 NA
ATOM      2  H   UNL     1       3.422   5.275  18.073  0.00  0.00    +0.000 HD
ENDROOT
BRANCH   1   3
ATOM      3  S   UNL     1       5.289   4.515  18.958  0.00  0.00    +0.000 S 
ATOM      4  O   UNL     1       5.414   3.131  19.353  0.00  0.00    +0.000 OA
ATOM      5  O   UNL     1       5.978   5.581  19.642  0.00  0.00    +0.000 OA
BRANCH   3   9
ATOM      6  C   UNL     1       6.505   4.500  14.555  0.00  0.00    +0.000 A 
ATOM      7  C   UNL     1       7.459   4.690  15.555  0.00  0.00    +0.000 A 
ATOM      8  C   UNL     1       7.082   4.733  16.897  0.00  0.00    +0.000 A 
ATOM      9  C   UNL     1       5.732   4.605  17.241  0.00  0.00    +0.000 A 
ATOM     10  C   UNL     1       4.765   4.425  16.248  0.00  0.00    +0.000 A 
ATOM     11  C   UNL     1       5.156   4.379  14.902  0.00  0.00    +0.000 A 
BRANCH   6  13
ATOM     12  C   UNL     1       6.415   3.539  12.393  0.00  0.00    +0.000 C 
ATOM     13  O   UNL     1       7.004   4.480  13.283  0.00  0.00    +0.000 OA
ENDBRANCH   6  13
ENDBRANCH   3   9
ENDBRANCH   1   3
BRANCH   1  14
ATOM     14  C   UNL     1       2.713   3.683  19.284  0.00  0.00    +0.000 C 
BRANCH  14  15
ATOM     15  C   UNL     1       1.812   3.326  18.106  0.00  0.00    +0.000 C 
ATOM     16  O   UNL     1       1.170   4.154  17.473  0.00  0.00    +0.000 OA
BRANCH  15  17
ATOM     17  O   UNL     1       1.738   1.996  17.864  0.00  0.00    +0.000 OA
ATOM     18  H   UNL     1       0.944   1.736  17.345  0.00  0.00    +0.000 HD
ENDBRANCH  15  17
ENDBRANCH  14  15
BRANCH  14  19
ATOM     19  CA  UNL     1       1.839   3.942  20.533  0.00  0.00    +0.000 C 
BRANCH  19  20
ATOM     20  N   UNL     1       2.109   5.280  21.149  0.00  0.00    +0.000 NA
ATOM     21  H1  UNL     1       1.494   5.957  20.660  0.00  0.00    +0.000 HD
ATOM     22  H2  UNL     1       3.033   5.593  20.825  0.00  0.00    +0.000 HD
ENDBRANCH  19  20
BRANCH  19  23
ATOM     23  C   UNL     1       2.017   2.858  21.611  0.00  0.00    +0.000 C 
ATOM     24  O   UNL     1       3.100   2.366  21.891  0.00  0.00    +0.000 OA
BRANCH  23  25
ATOM     25  OXT UNL     1       0.880   2.538  22.265  0.00  0.00    +0.000 OA
ATOM     26  HXT UNL     1       0.127   2.277  21.700  0.00  0.00    +0.000 HD
ENDBRANCH  23  25
ENDBRANCH  19  23
ENDBRANCH  14  19
ENDBRANCH   1  14
TORSDOF 10
ENDMDL
MODEL 6
REMARK VINA RESULT:      -6.8      3.116      4.764
REMARK  Name = 
REMARK  11 active torsions:
REMARK  status: ('A' for Active; 'I' for Inactive)
REMARK    1  A    between atoms: C_1  and  O_2
REMARK    2  A    between atoms: O_2  and  C_3
REMARK    3  A    between atoms: C_6  and  S_7
REMARK    4  A    between atoms: S_7  and  N_10
REMARK    5  A    between atoms: N_10  and  C_11
REMARK    6  A    between atoms: C_11  and  C_12
REMARK    7  A    between atoms: C_11  and  CA_15
REMARK    8  A    between atoms: C_12  and  O_14
REMARK    9  A    between atoms: CA_15  and  N_16
REMARK   10  A    between atoms: CA_15  and  C_17
REMARK   11  A    between atoms: C_17  and  OXT_19
REMARK                            x       y       z     vdW  Elec       q    Type
REMARK                         _______ _______ _______ _____ _____    ______ ____
ROOT
ATOM      1  N   UNL     1       3.275   5.036  20.019  0.00  0.00    +0.000 NA
ATOM      2  H   UNL     1       2.724   5.631  20.656  0.00  0.00    +0.000 HD
ENDROOT
BRANCH   1   3
ATOM      3  S   UNL     1       3.294   5.911  18.549  0.00  0.00    +0.000 S 
ATOM      4  O   UNL     1       2.528   5.116  17.617  0.00  0.00    +0.000 OA
ATOM      5  O   UNL     1       4.652   6.320  18.283  0.00  0.00    +0.000 OA
BRANCH   3   9
ATOM      6  C   UNL     1       1.068   9.780  19.515  0.00  0.00    +0.000 A 
ATOM      7  C   UNL     1       1.220   8.787  20.483  0.00  0.00    +0.000 A 
ATOM      8  C   UNL     1       1.866   7.590  20.177  0.00  0.00    +0.000 A 
ATOM      9  C   UNL     1       2.347   7.375  18.881  0.00  0.00    +0.000 A 
ATOM     10  C   UNL     1       2.192   8.357  17.899  0.00  0.00    +0.000 A 
ATOM     11  C   UNL     1       1.544   9.559  18.218  0.00  0.00    +0.000 A 
BRANCH   6  13
ATOM     12  C   UNL     1      -0.271  10.793  21.183  0.00  0.00    +0.000 C 
ATOM     13  O   UNL     1       0.415  10.902  19.942  0.00  0.00    +0.000 OA
ENDBRANCH   6  13
ENDBRANCH   3   9
ENDBRANCH   1   3
BRANCH   1  14
ATOM     14  C   UNL     1       2.749   3.632  19.943  0.00  0.00    +0.000 C 
BRANCH  14  15
ATOM     15  C   UNL     1       1.957   3.233  21.184  0.00  0.00    +0.000 C 
ATOM     16  O   UNL     1       2.461   3.097  22.291  0.00  0.00    +0.000 OA
BRANCH  15  17
ATOM     17  O   UNL     1       0.650   2.981  20.935  0.00  0.00    +0.000 OA
ATOM     18  H   UNL     1       0.209   2.463  21.645  0.00  0.00    +0.000 HD
ENDBRANCH  15  17
ENDBRANCH  14  15
BRANCH  14  19
ATOM     19  CA  UNL     1       3.891   2.614  19.718  0.00  0.00    +0.000 C 
BRANCH  19  20
ATOM     20  N   UNL     1       5.203   3.282  19.443  0.00  0.00    +0.000 NA
ATOM     21  H1  UNL     1       4.980   4.215  19.051  0.00  0.00    +0.000 HD
ATOM     22  H2  UNL     1       5.621   2.825  18.624  0.00  0.00    +0.000 HD
ENDBRANCH  19  20
BRANCH  19  23
ATOM     23  C   UNL     1       3.587   1.632  18.573  0.00  0.00    +0.000 C 
ATOM     24  O   UNL     1       2.724   1.833  17.733  0.00  0.00    +0.000 OA
BRANCH  23  25
ATOM     25  OXT UNL     1       4.399   0.553  18.541  0.00  0.00    +0.000 OA
ATOM     26  HXT UNL     1       3.949  -0.314  18.562  0.00  0.00    +0.000 HD
ENDBRANCH  23  25
ENDBRANCH  19  23
ENDBRANCH  14  19
ENDBRANCH   1  14
TORSDOF 10
ENDMDL
MODEL 7
REMARK VINA RESULT:      -6.8      3.420      5.880
REMARK  Name = 
REMARK  11 active torsions:
REMARK  status: ('A' for Active; 'I' for Inactive)
REMARK    1  A    between atoms: C_1  and  O_2
REMARK    2  A    between atoms: O_2  and  C_3
REMARK    3  A    between atoms: C_6  and  S_7
REMARK    4  A    between atoms: S_7  and  N_10
REMARK    5  A    between atoms: N_10  and  C_11
REMARK    6  A    between atoms: C_11  and  C_12
REMARK    7  A    between atoms: C_11  and  CA_15
REMARK    8  A    between atoms: C_12  and  O_14
REMARK    9  A    between atoms: CA_15  and  N_16
REMARK   10  A    between atoms: CA_15  and  C_17
REMARK   11  A    between atoms: C_17  and  OXT_19
REMARK                            x       y       z     vdW  Elec       q    Type
REMARK                         _______ _______ _______ _____ _____    ______ ____
ROOT
ATOM      1  N   UNL     1       4.987   6.285  17.649  0.00  0.00    +0.000 NA
ATOM      2  H   UNL     1       4.918   7.313  17.599  0.00  0.00    +0.000 HD
ENDROOT
BRANCH   1   3
ATOM      3  S   UNL     1       3.580   5.816  18.503  0.00  0.00    +0.000 S 
ATOM      4  O   UNL     1       4.046   5.361  19.793  0.00  0.00    +0.000 OA
ATOM      5  O   UNL     1       2.776   4.992  17.634  0.00  0.00    +0.000 OA
BRANCH   3   9
ATOM      6  C   UNL     1       1.097   9.605  19.084  0.00  0.00    +0.000 A 
ATOM      7  C   UNL     1       1.778   9.379  17.887  0.00  0.00    +0.000 A 
ATOM      8  C   UNL     1       2.567   8.241  17.724  0.00  0.00    +0.000 A 
ATOM      9  C   UNL     1       2.692   7.329  18.778  0.00  0.00    +0.000 A 
ATOM     10  C   UNL     1       2.024   7.550  19.985  0.00  0.00    +0.000 A 
ATOM     11  C   UNL     1       1.230   8.696  20.137  0.00  0.00    +0.000 A 
BRANCH   6  13
ATOM     12  C   UNL     1       1.098  11.972  19.036  0.00  0.00    +0.000 C 
ATOM     13  O   UNL     1       0.362  10.757  19.115  0.00  0.00    +0.000 OA
ENDBRANCH   6  13
ENDBRANCH   3   9
ENDBRANCH   1   3
BRANCH   1  14
ATOM     14  C   UNL     1       6.292   5.823  18.228  0.00  0.00    +0.000 C 
BRANCH  14  15
ATOM     15  C   UNL     1       7.446   6.767  17.902  0.00  0.00    +0.000 C 
ATOM     16  O   UNL     1       8.262   7.144  18.733  0.00  0.00    +0.000 OA
BRANCH  15  17
ATOM     17  O   UNL     1       7.448   7.200  16.620  0.00  0.00    +0.000 OA
ATOM     18  H   UNL     1       8.269   7.679  16.370  0.00  0.00    +0.000 HD
ENDBRANCH  15  17
ENDBRANCH  14  15
BRANCH  14  19
ATOM     19  CA  UNL     1       6.649   4.398  17.748  0.00  0.00    +0.000 C 
BRANCH  19  20
ATOM     20  N   UNL     1       8.129   4.186  17.646  0.00  0.00    +0.000 NA
ATOM     21  H1  UNL     1       8.279   3.161  17.658  0.00  0.00    +0.000 HD
ATOM     22  H2  UNL     1       8.546   4.451  18.547  0.00  0.00    +0.000 HD
ENDBRANCH  19  20
BRANCH  19  23
ATOM     23  C   UNL     1       6.008   4.055  16.392  0.00  0.00    +0.000 C 
ATOM     24  O   UNL     1       6.433   4.475  15.326  0.00  0.00    +0.000 OA
BRANCH  23  25
ATOM     25  OXT UNL     1       4.966   3.200  16.474  0.00  0.00    +0.000 OA
ATOM     26  HXT UNL     1       4.963   2.474  15.820  0.00  0.00    +0.000 HD
ENDBRANCH  23  25
ENDBRANCH  19  23
ENDBRANCH  14  19
ENDBRANCH   1  14
TORSDOF 10
ENDMDL
MODEL 8
REMARK VINA RESULT:      -6.8      2.023      2.703
REMARK  Name = 
REMARK  11 active torsions:
REMARK  status: ('A' for Active; 'I' for Inactive)
REMARK    1  A    between atoms: C_1  and  O_2
REMARK    2  A    between atoms: O_2  and  C_3
REMARK    3  A    between atoms: C_6  and  S_7
REMARK    4  A    between atoms: S_7  and  N_10
REMARK    5  A    between atoms: N_10  and  C_11
REMARK    6  A    between atoms: C_11  and  C_12
REMARK    7  A    between atoms: C_11  and  CA_15
REMARK    8  A    between atoms: C_12  and  O_14
REMARK    9  A    between atoms: CA_15  and  N_16
REMARK   10  A    between atoms: CA_15  and  C_17
REMARK   11  A    between atoms: C_17  and  OXT_19
REMARK                            x       y       z     vdW  Elec       q    Type
REMARK                         _______ _______ _______ _____ _____    ______ ____
ROOT
ATOM      1  N   UNL     1       4.733   3.064  18.972  0.00  0.00    +0.000 NA
ATOM      2  H   UNL     1       5.511   2.572  19.436  0.00  0.00    +0.000 HD
ENDROOT
BRANCH   1   3
ATOM      3  S   UNL     1       5.338   4.643  18.712  0.00  0.00    +0.000 S 
ATOM      4  O   UNL     1       6.580   4.706  19.449  0.00  0.00    +0.000 OA
ATOM      5  O   UNL     1       4.264   5.581  18.925  0.00  0.00    +0.000 OA
BRANCH   3   9
ATOM      6  C   UNL     1       6.530   4.533  14.305  0.00  0.00    +0.000 A 
ATOM      7  C   UNL     1       7.445   4.937  15.278  0.00  0.00    +0.000 A 
ATOM      8  C   UNL     1       7.069   5.006  16.619  0.00  0.00    +0.000 A 
ATOM      9  C   UNL     1       5.757   4.690  16.987  0.00  0.00    +0.000 A 
ATOM     10  C   UNL     1       4.829   4.294  16.021  0.00  0.00    +0.000 A 
ATOM     11  C   UNL     1       5.218   4.223  14.676  0.00  0.00    +0.000 A 
BRANCH   6  13
ATOM     12  C   UNL     1       6.478   3.519  12.166  0.00  0.00    +0.000 C 
ATOM     13  O   UNL     1       7.023   4.509  13.030  0.00  0.00    +0.000 OA
ENDBRANCH   6  13
ENDBRANCH   3   9
ENDBRANCH   1   3
BRANCH   1  14
ATOM     14  C   UNL     1       3.449   2.969  19.743  0.00  0.00    +0.000 C 
BRANCH  14  15
ATOM     15  C   UNL     1       3.636   2.348  21.123  0.00  0.00    +0.000 C 
ATOM     16  O   UNL     1       2.794   2.408  22.009  0.00  0.00    +0.000 OA
BRANCH  15  17
ATOM     17  O   UNL     1       4.851   1.776  21.301  0.00  0.00    +0.000 OA
ATOM     18  H   UNL     1       4.821   0.793  21.320  0.00  0.00    +0.000 HD
ENDBRANCH  15  17
ENDBRANCH  14  15
BRANCH  14  19
ATOM     19  CA  UNL     1       2.381   2.167  18.964  0.00  0.00    +0.000 C 
BRANCH  19  20
ATOM     20  N   UNL     1       2.921   1.589  17.692  0.00  0.00    +0.000 NA
ATOM     21  H1  UNL     1       3.765   2.140  17.454  0.00  0.00    +0.000 HD
ATOM     22  H2  UNL     1       2.290   1.865  16.930  0.00  0.00    +0.000 HD
ENDBRANCH  19  20
BRANCH  19  23
ATOM     23  C   UNL     1       1.137   3.009  18.634  0.00  0.00    +0.000 C 
ATOM     24  O   UNL     1       1.057   3.727  17.648  0.00  0.00    +0.000 OA
BRANCH  23  25
ATOM     25  OXT UNL     1       0.112   2.843  19.498  0.00  0.00    +0.000 OA
ATOM     26  HXT UNL     1      -0.049   1.925  19.789  0.00  0.00    +0.000 HD
ENDBRANCH  23  25
ENDBRANCH  19  23
ENDBRANCH  14  19
ENDBRANCH   1  14
TORSDOF 10
ENDMDL
MODEL 9
REMARK VINA RESULT:      -6.7      1.793      2.268
REMARK  Name = 
REMARK  11 active torsions:
REMARK  status: ('A' for Active; 'I' for Inactive)
REMARK    1  A    between atoms: C_1  and  O_2
REMARK    2  A    between atoms: O_2  and  C_3
REMARK    3  A    between atoms: C_6  and  S_7
REMARK    4  A    between atoms: S_7  and  N_10
REMARK    5  A    between atoms: N_10  and  C_11
REMARK    6  A    between atoms: C_11  and  C_12
REMARK    7  A    between atoms: C_11  and  CA_15
REMARK    8  A    between atoms: C_12  and  O_14
REMARK    9  A    between atoms: CA_15  and  N_16
REMARK   10  A    between atoms: CA_15  and  C_17
REMARK   11  A    between atoms: C_17  and  OXT_19
REMARK                            x       y       z     vdW  Elec       q    Type
REMARK                         _______ _______ _______ _____ _____    ______ ____
ROOT
ATOM      1  N   UNL     1       4.059   3.758  19.348  0.00  0.00    +0.000 NA
ATOM      2  H   UNL     1       4.760   3.130  19.771  0.00  0.00    +0.000 HD
ENDROOT
BRANCH   1   3
ATOM      3  S   UNL     1       4.936   5.185  19.001  0.00  0.00    +0.000 S 
ATOM      4  O   UNL     1       6.132   5.108  19.809  0.00  0.00    +0.000 OA
ATOM      5  O   UNL     1       4.028   6.303  19.068  0.00  0.00    +0.000 OA
BRANCH   3   9
ATOM      6  C   UNL     1       6.427   4.567  14.728  0.00  0.00    +0.000 A 
ATOM      7  C   UNL     1       7.042   5.497  15.568  0.00  0.00    +0.000 A 
ATOM      8  C   UNL     1       6.563   5.713  16.859  0.00  0.00    +0.000 A 
ATOM      9  C   UNL     1       5.442   5.006  17.309  0.00  0.00    +0.000 A 
ATOM     10  C   UNL     1       4.810   4.080  16.474  0.00  0.00    +0.000 A 
ATOM     11  C   UNL     1       5.303   3.867  15.178  0.00  0.00    +0.000 A 
BRANCH   6  13
ATOM     12  C   UNL     1       6.326   3.591  12.574  0.00  0.00    +0.000 C 
ATOM     13  O   UNL     1       6.992   4.453  13.489  0.00  0.00    +0.000 OA
ENDBRANCH   6  13
ENDBRANCH   3   9
ENDBRANCH   1   3
BRANCH   1  14
ATOM     14  C   UNL     1       2.842   3.926  20.210  0.00  0.00    +0.000 C 
BRANCH  14  15
ATOM     15  C   UNL     1       2.844   2.995  21.419  0.00  0.00    +0.000 C 
ATOM     16  O   UNL     1       2.201   3.213  22.437  0.00  0.00    +0.000 OA
BRANCH  15  17
ATOM     17  O   UNL     1       3.675   1.935  21.285  0.00  0.00    +0.000 OA
ATOM     18  H   UNL     1       3.286   1.090  21.605  0.00  0.00    +0.000 HD
ENDBRANCH  15  17
ENDBRANCH  14  15
BRANCH  14  19
ATOM     19  CA  UNL     1       1.543   3.707  19.401  0.00  0.00    +0.000 C 
BRANCH  19  20
ATOM     20  N   UNL     1       0.465   3.064  20.219  0.00  0.00    +0.000 NA
ATOM     21  H1  UNL     1      -0.426   3.505  19.927  0.00  0.00    +0.000 HD
ATOM     22  H2  UNL     1       0.548   3.418  21.180  0.00  0.00    +0.000 HD
ENDBRANCH  19  20
BRANCH  19  23
ATOM     23  C   UNL     1       1.772   2.861  18.136  0.00  0.00    +0.000 C 
ATOM     24  O   UNL     1       1.737   3.325  17.007  0.00  0.00    +0.000 OA
BRANCH  23  25
ATOM     25  OXT UNL     1       2.076   1.569  18.383  0.00  0.00    +0.000 OA
ATOM     26  HXT UNL     1       3.005   1.394  18.630  0.00  0.00    +0.000 HD
ENDBRANCH  23  25
ENDBRANCH  19  23
ENDBRANCH  14  19
ENDBRANCH   1  14
TORSDOF 10
ENDMDL
