MODEL 1
REMARK VINA RESULT:      -7.4      0.000      0.000
REMARK  Name = 
REMARK  12 active torsions:
REMARK  status: ('A' for Active; 'I' for Inactive)
REMARK    1  A    between atoms: C_1  and  C_2
REMARK    2  A    between atoms: C_2  and  N_3
REMARK    3  A    between atoms: C_4  and  C_6
REMARK    4  A    between atoms: C_6  and  O_7
REMARK    5  A    between atoms: O_7  and  C_8
REMARK    6  A    between atoms: C_8  and  C_10
REMARK    7  A    between atoms: N_15  and  C_16
REMARK    8  A    between atoms: C_19  and  O_20
REMARK    9  A    between atoms: O_20  and  C_21
REMARK   10  A    between atoms: C_24  and  C_25
REMARK   11  A    between atoms: C_28  and  O_29
REMARK   12  A    between atoms: O_29  and  C_30
REMARK                            x       y       z     vdW  Elec       q    Type
REMARK                         _______ _______ _______ _____ _____    ______ ____
ROOT
ATOM      1  C   UNL     1       4.903   3.388  17.619  0.00  0.00    +0.000 C 
ATOM      2  C   UNL     1       3.873   2.288  17.822  0.00  0.00    +0.000 C 
ATOM      3  C   UNL     1       2.489   2.703  17.356  0.00  0.00    +0.000 C 
ATOM      4  C   UNL     1       2.053   4.129  17.649  0.00  0.00    +0.000 C 
ATOM      5  O   UNL     1       0.848   4.385  17.550  0.00  0.00    +0.000 OA
ATOM      6  N   UNL     1       3.028   5.067  18.007  0.00  0.00    +0.000 N 
ATOM      7  C   UNL     1       4.417   4.659  18.332  0.00  0.00    +0.000 C 
ENDROOT
BRANCH   6   8
ATOM      8  C   UNL     1       2.552   6.329  18.523  0.00  0.00    +0.000 A 
ATOM      9  C   UNL     1       2.309   7.412  17.670  0.00  0.00    +0.000 A 
ATOM     10  C   UNL     1       1.874   8.637  18.177  0.00  0.00    +0.000 A 
ATOM     11  C   UNL     1       1.653   8.805  19.542  0.00  0.00    +0.000 A 
ATOM     12  C   UNL     1       1.886   7.737  20.405  0.00  0.00    +0.000 A 
ATOM     13  C   UNL     1       2.344   6.509  19.899  0.00  0.00    +0.000 A 
BRANCH  11  14
ATOM     14  O   UNL     1       1.268  10.066  19.904  0.00  0.00    +0.000 OA
ATOM     15  C   UNL     1      -0.133  10.267  20.048  0.00  0.00    +0.000 C 
ENDBRANCH  11  14
ENDBRANCH   6   8
BRANCH   7  16
ATOM     16  C   UNL     1       5.443   5.789  18.202  0.00  0.00    +0.000 A 
ATOM     17  C   UNL     1       5.205   6.861  17.327  0.00  0.00    +0.000 A 
ATOM     18  C   UNL     1       6.181   7.840  17.122  0.00  0.00    +0.000 A 
ATOM     19  C   UNL     1       7.386   7.799  17.822  0.00  0.00    +0.000 A 
ATOM     20  C   UNL     1       7.623   6.753  18.709  0.00  0.00    +0.000 A 
ATOM     21  C   UNL     1       6.666   5.751  18.889  0.00  0.00    +0.000 A 
BRANCH  19  22
ATOM     22  O   UNL     1       8.271   8.796  17.519  0.00  0.00    +0.000 OA
ATOM     23  C   UNL     1       8.754   9.548  18.626  0.00  0.00    +0.000 C 
ENDBRANCH  19  22
ENDBRANCH   7  16
BRANCH   1  24
ATOM     24  C   UNL     1       5.205   3.572  16.142  0.00  0.00    +0.000 C 
ATOM     25  O   UNL     1       4.361   3.728  15.275  0.00  0.00    +0.000 OA
BRANCH  24  26
ATOM     26  O   UNL     1       6.550   3.505  15.926  0.00  0.00    +0.000 OA
BRANCH  26  27
ATOM     27  C   UNL     1       7.144   4.629  15.262  0.00  0.00    +0.000 C 
BRANCH  27  29
ATOM     28  N   UNL     1       6.322   3.428  13.297  0.00  0.00    +0.000 N 
ATOM     29  C   UNL     1       7.052   4.509  13.742  0.00  0.00    +0.000 C 
ATOM     30  O   UNL     1       7.539   5.348  12.988  0.00  0.00    +0.000 OA
ATOM     31  H   UNL     1       5.974   2.769  13.984  0.00  0.00    +0.000 HD
BRANCH  28  33
ATOM     32  C   UNL     1       4.642   3.246  11.511  0.00  0.00    +0.000 C 
ATOM     33  C   UNL     1       6.109   3.163  11.891  0.00  0.00    +0.000 C 
ENDBRANCH  28  33
ENDBRANCH  27  29
ENDBRANCH  26  27
ENDBRANCH  24  26
ENDBRANCH   1  24
TORSDOF 9
ENDMDL
MODEL 2
REMARK VINA RESULT:      -6.9      1.912      6.201
REMARK  Name = 
REMARK  12 active torsions:
REMARK  status: ('A' for Active; 'I' for Inactive)
REMARK    1  A    between atoms: C_1  and  C_2
REMARK    2  A    between atoms: C_2  and  N_3
REMARK    3  A    between atoms: C_4  and  C_6
REMARK    4  A    between atoms: C_6  and  O_7
REMARK    5  A    between atoms: O_7  and  C_8
REMARK    6  A    between atoms: C_8  and  C_10
REMARK    7  A    between atoms: N_15  and  C_16
REMARK    8  A    between atoms: C_19  and  O_20
REMARK    9  A    between atoms: O_20  and  C_21
REMARK   10  A    between atoms: C_24  and  C_25
REMARK   11  A    between atoms: C_28  and  O_29
REMARK   12  A    between atoms: O_29  and  C_30
REMARK                            x       y       z     vdW  Elec       q    Type
REMARK                         _______ _______ _______ _____ _____    ______ ____
ROOT
ATOM      1  C   UNL     1       4.097   4.542  15.869  0.00  0.00    +0.000 C 
ATOM      2  C   UNL     1       4.948   3.834  14.827  0.00  0.00    +0.000 C 
ATOM      3  C   UNL     1       6.304   3.427  15.373  0.00  0.00    +0.000 C 
ATOM      4  C   UNL     1       7.007   4.407  16.298  0.00  0.00    +0.000 C 
ATOM      5  O   UNL     1       8.213   4.229  16.503  0.00  0.00    +0.000 OA
ATOM      6  N   UNL     1       6.259   5.445  16.866  0.00  0.00    +0.000 N 
ATOM      7  C   UNL     1       4.880   5.747  16.412  0.00  0.00    +0.000 C 
ENDROOT
BRANCH   6   8
ATOM      8  C   UNL     1       7.003   6.493  17.524  0.00  0.00    +0.000 A 
ATOM      9  C   UNL     1       7.048   7.788  16.993  0.00  0.00    +0.000 A 
ATOM     10  C   UNL     1       7.790   8.790  17.618  0.00  0.00    +0.000 A 
ATOM     11  C   UNL     1       8.487   8.532  18.796  0.00  0.00    +0.000 A 
ATOM     12  C   UNL     1       8.450   7.251  19.341  0.00  0.00    +0.000 A 
ATOM     13  C   UNL     1       7.721   6.234  18.701  0.00  0.00    +0.000 A 
BRANCH  11  14
ATOM     14  O   UNL     1       9.203   9.592  19.277  0.00  0.00    +0.000 OA
ATOM     15  C   UNL     1       9.279  10.726  18.422  0.00  0.00    +0.000 C 
ENDBRANCH  11  14
ENDBRANCH   6   8
BRANCH   7  16
ATOM     16  C   UNL     1       4.047   6.529  17.433  0.00  0.00    +0.000 A 
ATOM     17  C   UNL     1       3.888   6.038  18.739  0.00  0.00    +0.000 A 
ATOM     18  C   UNL     1       3.045   6.688  19.644  0.00  0.00    +0.000 A 
ATOM     19  C   UNL     1       2.388   7.863  19.284  0.00  0.00    +0.000 A 
ATOM     20  C   UNL     1       2.555   8.372  17.999  0.00  0.00    +0.000 A 
ATOM     21  C   UNL     1       3.368   7.705  17.078  0.00  0.00    +0.000 A 
BRANCH  19  22
ATOM     22  O   UNL     1       1.572   8.393  20.245  0.00  0.00    +0.000 OA
ATOM     23  C   UNL     1       0.783   9.505  19.838  0.00  0.00    +0.000 C 
ENDBRANCH  19  22
ENDBRANCH   7  16
BRANCH   1  24
ATOM     24  C   UNL     1       3.630   3.564  16.933  0.00  0.00    +0.000 C 
ATOM     25  O   UNL     1       4.338   3.107  17.815  0.00  0.00    +0.000 OA
BRANCH  24  26
ATOM     26  O   UNL     1       2.318   3.249  16.737  0.00  0.00    +0.000 OA
BRANCH  26  27
ATOM     27  C   UNL     1       1.370   3.924  17.577  0.00  0.00    +0.000 C 
BRANCH  27  29
ATOM     28  N   UNL     1       1.447   3.638  20.003  0.00  0.00    +0.000 N 
ATOM     29  C   UNL     1       1.012   3.100  18.812  0.00  0.00    +0.000 C 
ATOM     30  O   UNL     1       0.335   2.077  18.743  0.00  0.00    +0.000 OA
ATOM     31  H   UNL     1       2.021   4.473  19.972  0.00  0.00    +0.000 HD
BRANCH  28  33
ATOM     32  C   UNL     1       2.444   2.440  21.906  0.00  0.00    +0.000 C 
ATOM     33  C   UNL     1       1.184   3.009  21.279  0.00  0.00    +0.000 C 
ENDBRANCH  28  33
ENDBRANCH  27  29
ENDBRANCH  26  27
ENDBRANCH  24  26
ENDBRANCH   1  24
TORSDOF 9
ENDMDL
MODEL 3
REMARK VINA RESULT:      -6.7      0.480      1.348
REMARK  Name = 
REMARK  12 active torsions:
REMARK  status: ('A' for Active; 'I' for Inactive)
REMARK    1  A    between atoms: C_1  and  C_2
REMARK    2  A    between atoms: C_2  and  N_3
REMARK    3  A    between atoms: C_4  and  C_6
REMARK    4  A    between atoms: C_6  and  O_7
REMARK    5  A    between atoms: O_7  and  C_8
REMARK    6  A    between atoms: C_8  and  C_10
REMARK    7  A    between atoms: N_15  and  C_16
REMARK    8  A    between atoms: C_19  and  O_20
REMARK    9  A    between atoms: O_20  and  C_21
REMARK   10  A    between atoms: C_24  and  C_25
REMARK   11  A    between atoms: C_28  and  O_29
REMARK   12  A    between atoms: O_29  and  C_30
REMARK                            x       y       z     vdW  Elec       q    Type
REMARK                         _______ _______ _______ _____ _____    ______ ____
ROOT
ATOM      1  C   UNL     1       5.000   3.449  17.490  0.00  0.00    +0.000 C 
ATOM      2  C   UNL     1       4.000   2.341  17.783  0.00  0.00    +0.000 C 
ATOM      3  C   UNL     1       2.588   2.720  17.376  0.00  0.00    +0.000 C 
ATOM      4  C   UNL     1       2.144   4.148  17.643  0.00  0.00    +0.000 C 
ATOM      5  O   UNL     1       0.931   4.383  17.599  0.00  0.00    +0.000 OA
ATOM      6  N   UNL     1       3.120   5.113  17.919  0.00  0.00    +0.000 N 
ATOM      7  C   UNL     1       4.530   4.736  18.185  0.00  0.00    +0.000 C 
ENDROOT
BRANCH   6   8
ATOM      8  C   UNL     1       2.651   6.384  18.416  0.00  0.00    +0.000 A 
ATOM      9  C   UNL     1       2.451   6.594  19.786  0.00  0.00    +0.000 A 
ATOM     10  C   UNL     1       1.972   7.816  20.258  0.00  0.00    +0.000 A 
ATOM     11  C   UNL     1       1.702   8.863  19.381  0.00  0.00    +0.000 A 
ATOM     12  C   UNL     1       1.899   8.674  18.015  0.00  0.00    +0.000 A 
ATOM     13  C   UNL     1       2.361   7.437  17.535  0.00  0.00    +0.000 A 
BRANCH  11  14
ATOM     14  O   UNL     1       1.201   9.988  19.975  0.00  0.00    +0.000 OA
ATOM     15  C   UNL     1       0.818  11.035  19.092  0.00  0.00    +0.000 C 
ENDBRANCH  11  14
ENDBRANCH   6   8
BRANCH   7  16
ATOM     16  C   UNL     1       5.530   5.877  17.963  0.00  0.00    +0.000 A 
ATOM     17  C   UNL     1       6.762   5.876  18.637  0.00  0.00    +0.000 A 
ATOM     18  C   UNL     1       7.633   6.962  18.524  0.00  0.00    +0.000 A 
ATOM     19  C   UNL     1       7.318   8.042  17.700  0.00  0.00    +0.000 A 
ATOM     20  C   UNL     1       6.109   8.043  17.010  0.00  0.00    +0.000 A 
ATOM     21  C   UNL     1       5.218   6.976  17.149  0.00  0.00    +0.000 A 
BRANCH  19  22
ATOM     22  O   UNL     1       8.236   9.055  17.690  0.00  0.00    +0.000 OA
ATOM     23  C   UNL     1       8.855   9.338  18.940  0.00  0.00    +0.000 C 
ENDBRANCH  19  22
ENDBRANCH   7  16
BRANCH   1  24
ATOM     24  C   UNL     1       5.223   3.587  15.994  0.00  0.00    +0.000 C 
ATOM     25  O   UNL     1       4.333   3.692  15.166  0.00  0.00    +0.000 OA
BRANCH  24  26
ATOM     26  O   UNL     1       6.556   3.543  15.712  0.00  0.00    +0.000 OA
BRANCH  26  27
ATOM     27  C   UNL     1       7.118   4.717  15.109  0.00  0.00    +0.000 C 
BRANCH  27  29
ATOM     28  N   UNL     1       6.527   3.517  13.063  0.00  0.00    +0.000 N 
ATOM     29  C   UNL     1       7.209   4.592  13.589  0.00  0.00    +0.000 C 
ATOM     30  O   UNL     1       7.792   5.423  12.897  0.00  0.00    +0.000 OA
ATOM     31  H   UNL     1       6.092   2.864  13.704  0.00  0.00    +0.000 HD
BRANCH  28  33
ATOM     32  C   UNL     1       7.120   1.916  11.293  0.00  0.00    +0.000 C 
ATOM     33  C   UNL     1       6.482   3.248  11.642  0.00  0.00    +0.000 C 
ENDBRANCH  28  33
ENDBRANCH  27  29
ENDBRANCH  26  27
ENDBRANCH  24  26
ENDBRANCH   1  24
TORSDOF 9
ENDMDL
MODEL 4
REMARK VINA RESULT:      -6.4      1.201      1.345
REMARK  Name = 
REMARK  12 active torsions:
REMARK  status: ('A' for Active; 'I' for Inactive)
REMARK    1  A    between atoms: C_1  and  C_2
REMARK    2  A    between atoms: C_2  and  N_3
REMARK    3  A    between atoms: C_4  and  C_6
REMARK    4  A    between atoms: C_6  and  O_7
REMARK    5  A    between atoms: O_7  and  C_8
REMARK    6  A    between atoms: C_8  and  C_10
REMARK    7  A    between atoms: N_15  and  C_16
REMARK    8  A    between atoms: C_19  and  O_20
REMARK    9  A    between atoms: O_20  and  C_21
REMARK   10  A    between atoms: C_24  and  C_25
REMARK   11  A    between atoms: C_28  and  O_29
REMARK   12  A    between atoms: O_29  and  C_30
REMARK                            x       y       z     vdW  Elec       q    Type
REMARK                         _______ _______ _______ _____ _____    ______ ____
ROOT
ATOM      1  C   UNL     1       5.121   3.523  16.898  0.00  0.00    +0.000 C 
ATOM      2  C   UNL     1       4.178   2.332  16.959  0.00  0.00    +0.000 C 
ATOM      3  C   UNL     1       2.732   2.733  16.726  0.00  0.00    +0.000 C 
ATOM      4  C   UNL     1       2.258   4.032  17.355  0.00  0.00    +0.000 C 
ATOM      5  O   UNL     1       1.037   4.215  17.428  0.00  0.00    +0.000 OA
ATOM      6  N   UNL     1       3.217   4.945  17.810  0.00  0.00    +0.000 N 
ATOM      7  C   UNL     1       4.651   4.581  17.908  0.00  0.00    +0.000 C 
ENDROOT
BRANCH   6   8
ATOM      8  C   UNL     1       2.735   6.035  18.625  0.00  0.00    +0.000 A 
ATOM      9  C   UNL     1       2.429   7.279  18.060  0.00  0.00    +0.000 A 
ATOM     10  C   UNL     1       1.990   8.336  18.856  0.00  0.00    +0.000 A 
ATOM     11  C   UNL     1       1.825   8.174  20.229  0.00  0.00    +0.000 A 
ATOM     12  C   UNL     1       2.121   6.942  20.809  0.00  0.00    +0.000 A 
ATOM     13  C   UNL     1       2.584   5.882  20.012  0.00  0.00    +0.000 A 
BRANCH  11  14
ATOM     14  O   UNL     1       1.428   9.302  20.892  0.00  0.00    +0.000 OA
ATOM     15  C   UNL     1       1.019   9.115  22.241  0.00  0.00    +0.000 C 
ENDBRANCH  11  14
ENDBRANCH   6   8
BRANCH   7  16
ATOM     16  C   UNL     1       5.598   5.785  17.924  0.00  0.00    +0.000 A 
ATOM     17  C   UNL     1       5.263   6.957  17.227  0.00  0.00    +0.000 A 
ATOM     18  C   UNL     1       6.166   8.019  17.147  0.00  0.00    +0.000 A 
ATOM     19  C   UNL     1       7.395   7.956  17.803  0.00  0.00    +0.000 A 
ATOM     20  C   UNL     1       7.729   6.809  18.516  0.00  0.00    +0.000 A 
ATOM     21  C   UNL     1       6.845   5.728  18.567  0.00  0.00    +0.000 A 
BRANCH  19  22
ATOM     22  O   UNL     1       8.203   9.046  17.633  0.00  0.00    +0.000 OA
ATOM     23  C   UNL     1       8.860   9.515  18.804  0.00  0.00    +0.000 C 
ENDBRANCH  19  22
ENDBRANCH   7  16
BRANCH   1  24
ATOM     24  C   UNL     1       5.253   4.029  15.471  0.00  0.00    +0.000 C 
ATOM     25  O   UNL     1       4.500   4.834  14.948  0.00  0.00    +0.000 OA
BRANCH  24  26
ATOM     26  O   UNL     1       6.312   3.430  14.857  0.00  0.00    +0.000 OA
BRANCH  26  27
ATOM     27  C   UNL     1       6.720   3.992  13.601  0.00  0.00    +0.000 C 
BRANCH  27  29
ATOM     28  N   UNL     1       7.088   2.306  11.870  0.00  0.00    +0.000 N 
ATOM     29  C   UNL     1       6.185   3.192  12.415  0.00  0.00    +0.000 C 
ATOM     30  O   UNL     1       5.023   3.293  12.028  0.00  0.00    +0.000 OA
ATOM     31  H   UNL     1       8.035   2.302  12.231  0.00  0.00    +0.000 HD
BRANCH  28  33
ATOM     32  C   UNL     1       6.136   0.139  11.205  0.00  0.00    +0.000 C 
ATOM     33  C   UNL     1       6.754   1.449  10.753  0.00  0.00    +0.000 C 
ENDBRANCH  28  33
ENDBRANCH  27  29
ENDBRANCH  26  27
ENDBRANCH  24  26
ENDBRANCH   1  24
TORSDOF 9
ENDMDL
MODEL 5
REMARK VINA RESULT:      -6.4      1.952      6.253
REMARK  Name = 
REMARK  12 active torsions:
REMARK  status: ('A' for Active; 'I' for Inactive)
REMARK    1  A    between atoms: C_1  and  C_2
REMARK    2  A    between atoms: C_2  and  N_3
REMARK    3  A    between atoms: C_4  and  C_6
REMARK    4  A    between atoms: C_6  and  O_7
REMARK    5  A    between atoms: O_7  and  C_8
REMARK    6  A    between atoms: C_8  and  C_10
REMARK    7  A    between atoms: N_15  and  C_16
REMARK    8  A    between atoms: C_19  and  O_20
REMARK    9  A    between atoms: O_20  and  C_21
REMARK   10  A    between atoms: C_24  and  C_25
REMARK   11  A    between atoms: C_28  and  O_29
REMARK   12  A    between atoms: O_29  and  C_30
REMARK                            x       y       z     vdW  Elec       q    Type
REMARK                         _______ _______ _______ _____ _____    ______ ____
ROOT
ATOM      1  C   UNL     1       4.105   4.480  15.939  0.00  0.00    +0.000 C 
ATOM      2  C   UNL     1       4.919   3.853  14.818  0.00  0.00    +0.000 C 
ATOM      3  C   UNL     1       6.333   3.515  15.256  0.00  0.00    +0.000 C 
ATOM      4  C   UNL     1       7.041   4.510  16.159  0.00  0.00    +0.000 C 
ATOM      5  O   UNL     1       8.267   4.401  16.274  0.00  0.00    +0.000 OA
ATOM      6  N   UNL     1       6.276   5.485  16.811  0.00  0.00    +0.000 N 
ATOM      7  C   UNL     1       4.853   5.715  16.464  0.00  0.00    +0.000 C 
ENDROOT
BRANCH   6   8
ATOM      8  C   UNL     1       7.003   6.558  17.448  0.00  0.00    +0.000 A 
ATOM      9  C   UNL     1       7.756   6.332  18.606  0.00  0.00    +0.000 A 
ATOM     10  C   UNL     1       8.434   7.378  19.231  0.00  0.00    +0.000 A 
ATOM     11  C   UNL     1       8.396   8.667  18.707  0.00  0.00    +0.000 A 
ATOM     12  C   UNL     1       7.656   8.910  17.552  0.00  0.00    +0.000 A 
ATOM     13  C   UNL     1       6.953   7.862  16.933  0.00  0.00    +0.000 A 
BRANCH  11  14
ATOM     14  O   UNL     1       9.072   9.601  19.442  0.00  0.00    +0.000 OA
ATOM     15  C   UNL     1       9.414  10.799  18.756  0.00  0.00    +0.000 C 
ENDBRANCH  11  14
ENDBRANCH   6   8
BRANCH   7  16
ATOM     16  C   UNL     1       4.051   6.417  17.565  0.00  0.00    +0.000 A 
ATOM     17  C   UNL     1       3.946   5.839  18.840  0.00  0.00    +0.000 A 
ATOM     18  C   UNL     1       3.131   6.415  19.817  0.00  0.00    +0.000 A 
ATOM     19  C   UNL     1       2.448   7.604  19.560  0.00  0.00    +0.000 A 
ATOM     20  C   UNL     1       2.562   8.198  18.307  0.00  0.00    +0.000 A 
ATOM     21  C   UNL     1       3.346   7.605  17.314  0.00  0.00    +0.000 A 
BRANCH  19  22
ATOM     22  O   UNL     1       1.664   8.058  20.584  0.00  0.00    +0.000 OA
ATOM     23  C   UNL     1       0.980   9.281  20.339  0.00  0.00    +0.000 C 
ENDBRANCH  19  22
ENDBRANCH   7  16
BRANCH   1  24
ATOM     24  C   UNL     1       3.774   3.446  17.002  0.00  0.00    +0.000 C 
ATOM     25  O   UNL     1       4.587   2.946  17.761  0.00  0.00    +0.000 OA
BRANCH  24  26
ATOM     26  O   UNL     1       2.446   3.139  16.959  0.00  0.00    +0.000 OA
BRANCH  26  27
ATOM     27  C   UNL     1       1.997   2.131  17.875  0.00  0.00    +0.000 C 
BRANCH  27  29
ATOM     28  N   UNL     1       2.527   2.689  20.195  0.00  0.00    +0.000 N 
ATOM     29  C   UNL     1       1.562   2.725  19.213  0.00  0.00    +0.000 C 
ATOM     30  O   UNL     1       0.461   3.248  19.371  0.00  0.00    +0.000 OA
ATOM     31  H   UNL     1       3.401   2.218  19.992  0.00  0.00    +0.000 HD
BRANCH  28  33
ATOM     32  C   UNL     1       1.286   2.412  22.300  0.00  0.00    +0.000 C 
ATOM     33  C   UNL     1       2.304   3.224  21.521  0.00  0.00    +0.000 C 
ENDBRANCH  28  33
ENDBRANCH  27  29
ENDBRANCH  26  27
ENDBRANCH  24  26
ENDBRANCH   1  24
TORSDOF 9
ENDMDL
MODEL 6
REMARK VINA RESULT:      -6.1      8.133     12.460
REMARK  Name = 
REMARK  12 active torsions:
REMARK  status: ('A' for Active; 'I' for Inactive)
REMARK    1  A    between atoms: C_1  and  C_2
REMARK    2  A    between atoms: C_2  and  N_3
REMARK    3  A    between atoms: C_4  and  C_6
REMARK    4  A    between atoms: C_6  and  O_7
REMARK    5  A    between atoms: O_7  and  C_8
REMARK    6  A    between atoms: C_8  and  C_10
REMARK    7  A    between atoms: N_15  and  C_16
REMARK    8  A    between atoms: C_19  and  O_20
REMARK    9  A    between atoms: O_20  and  C_21
REMARK   10  A    between atoms: C_24  and  C_25
REMARK   11  A    between atoms: C_28  and  O_29
REMARK   12  A    between atoms: O_29  and  C_30
REMARK                            x       y       z     vdW  Elec       q    Type
REMARK                         _______ _______ _______ _____ _____    ______ ____
ROOT
ATOM      1  C   UNL     1      -5.446  12.776  22.054  0.00  0.00    +0.000 C 
ATOM      2  C   UNL     1      -6.740  13.380  22.580  0.00  0.00    +0.000 C 
ATOM      3  C   UNL     1      -6.662  14.891  22.697  0.00  0.00    +0.000 C 
ATOM      4  C   UNL     1      -5.358  15.487  23.202  0.00  0.00    +0.000 C 
ATOM      5  O   UNL     1      -5.381  16.663  23.581  0.00  0.00    +0.000 OA
ATOM      6  N   UNL     1      -4.212  14.682  23.207  0.00  0.00    +0.000 N 
ATOM      7  C   UNL     1      -4.288  13.222  22.959  0.00  0.00    +0.000 C 
ENDROOT
BRANCH   6   8
ATOM      8  C   UNL     1      -3.068  15.192  23.925  0.00  0.00    +0.000 A 
ATOM      9  C   UNL     1      -2.081  15.939  23.272  0.00  0.00    +0.000 A 
ATOM     10  C   UNL     1      -0.964  16.406  23.966  0.00  0.00    +0.000 A 
ATOM     11  C   UNL     1      -0.816  16.158  25.328  0.00  0.00    +0.000 A 
ATOM     12  C   UNL     1      -1.790  15.420  25.995  0.00  0.00    +0.000 A 
ATOM     13  C   UNL     1      -2.905  14.930  25.294  0.00  0.00    +0.000 A 
BRANCH  11  14
ATOM     14  O   UNL     1       0.343  16.639  25.871  0.00  0.00    +0.000 OA
ATOM     15  C   UNL     1       0.467  16.505  27.281  0.00  0.00    +0.000 C 
ENDBRANCH  11  14
ENDBRANCH   6   8
BRANCH   7  16
ATOM     16  C   UNL     1      -2.964  12.600  22.503  0.00  0.00    +0.000 A 
ATOM     17  C   UNL     1      -2.316  11.649  23.307  0.00  0.00    +0.000 A 
ATOM     18  C   UNL     1      -1.058  11.156  22.951  0.00  0.00    +0.000 A 
ATOM     19  C   UNL     1      -0.447  11.561  21.765  0.00  0.00    +0.000 A 
ATOM     20  C   UNL     1      -1.090  12.487  20.948  0.00  0.00    +0.000 A 
ATOM     21  C   UNL     1      -2.331  13.011  21.319  0.00  0.00    +0.000 A 
BRANCH  19  22
ATOM     22  O   UNL     1       0.792  11.030  21.537  0.00  0.00    +0.000 OA
ATOM     23  C   UNL     1       0.846   9.611  21.441  0.00  0.00    +0.000 C 
ENDBRANCH  19  22
ENDBRANCH   7  16
BRANCH   1  24
ATOM     24  C   UNL     1      -5.261  13.108  20.584  0.00  0.00    +0.000 C 
ATOM     25  O   UNL     1      -5.176  14.239  20.133  0.00  0.00    +0.000 OA
BRANCH  24  26
ATOM     26  O   UNL     1      -5.234  11.963  19.844  0.00  0.00    +0.000 OA
BRANCH  26  27
ATOM     27  C   UNL     1      -5.632  12.084  18.471  0.00  0.00    +0.000 C 
BRANCH  27  29
ATOM     28  N   UNL     1      -3.763  10.558  18.079  0.00  0.00    +0.000 N 
ATOM     29  C   UNL     1      -4.583  11.514  17.519  0.00  0.00    +0.000 C 
ATOM     30  O   UNL     1      -4.524  11.841  16.336  0.00  0.00    +0.000 OA
ATOM     31  H   UNL     1      -3.861  10.362  19.068  0.00  0.00    +0.000 HD
BRANCH  28  33
ATOM     32  C   UNL     1      -1.345  10.146  17.905  0.00  0.00    +0.000 C 
ATOM     33  C   UNL     1      -2.724   9.891  17.325  0.00  0.00    +0.000 C 
ENDBRANCH  28  33
ENDBRANCH  27  29
ENDBRANCH  26  27
ENDBRANCH  24  26
ENDBRANCH   1  24
TORSDOF 9
ENDMDL
MODEL 7
REMARK VINA RESULT:      -6.1      1.486      2.011
REMARK  Name = 
REMARK  12 active torsions:
REMARK  status: ('A' for Active; 'I' for Inactive)
REMARK    1  A    between atoms: C_1  and  C_2
REMARK    2  A    between atoms: C_2  and  N_3
REMARK    3  A    between atoms: C_4  and  C_6
REMARK    4  A    between atoms: C_6  and  O_7
REMARK    5  A    between atoms: O_7  and  C_8
REMARK    6  A    between atoms: C_8  and  C_10
REMARK    7  A    between atoms: N_15  and  C_16
REMARK    8  A    between atoms: C_19  and  O_20
REMARK    9  A    between atoms: O_20  and  C_21
REMARK   10  A    between atoms: C_24  and  C_25
REMARK   11  A    between atoms: C_28  and  O_29
REMARK   12  A    between atoms: O_29  and  C_30
REMARK                            x       y       z     vdW  Elec       q    Type
REMARK                         _______ _______ _______ _____ _____    ______ ____
ROOT
ATOM      1  C   UNL     1       4.263   3.105  19.693  0.00  0.00    +0.000 C 
ATOM      2  C   UNL     1       3.296   2.338  20.582  0.00  0.00    +0.000 C 
ATOM      3  C   UNL     1       1.847   2.634  20.241  0.00  0.00    +0.000 C 
ATOM      4  C   UNL     1       1.489   4.070  19.897  0.00  0.00    +0.000 C 
ATOM      5  O   UNL     1       0.291   4.377  19.914  0.00  0.00    +0.000 OA
ATOM      6  N   UNL     1       2.522   4.959  19.578  0.00  0.00    +0.000 N 
ATOM      7  C   UNL     1       3.946   4.605  19.793  0.00  0.00    +0.000 C 
ENDROOT
BRANCH   6   8
ATOM      8  C   UNL     1       2.173   6.359  19.511  0.00  0.00    +0.000 A 
ATOM      9  C   UNL     1       2.010   7.003  18.279  0.00  0.00    +0.000 A 
ATOM     10  C   UNL     1       1.698   8.362  18.220  0.00  0.00    +0.000 A 
ATOM     11  C   UNL     1       1.521   9.103  19.385  0.00  0.00    +0.000 A 
ATOM     12  C   UNL     1       1.675   8.478  20.620  0.00  0.00    +0.000 A 
ATOM     13  C   UNL     1       2.011   7.115  20.681  0.00  0.00    +0.000 A 
BRANCH  11  14
ATOM     14  O   UNL     1       1.259  10.430  19.180  0.00  0.00    +0.000 OA
ATOM     15  C   UNL     1       0.849  11.163  20.328  0.00  0.00    +0.000 C 
ENDBRANCH  11  14
ENDBRANCH   6   8
BRANCH   7  16
ATOM     16  C   UNL     1       4.926   5.431  18.953  0.00  0.00    +0.000 A 
ATOM     17  C   UNL     1       6.286   5.480  19.299  0.00  0.00    +0.000 A 
ATOM     18  C   UNL     1       7.165   6.314  18.605  0.00  0.00    +0.000 A 
ATOM     19  C   UNL     1       6.720   7.072  17.523  0.00  0.00    +0.000 A 
ATOM     20  C   UNL     1       5.378   7.015  17.157  0.00  0.00    +0.000 A 
ATOM     21  C   UNL     1       4.487   6.211  17.872  0.00  0.00    +0.000 A 
BRANCH  19  22
ATOM     22  O   UNL     1       7.667   7.867  16.939  0.00  0.00    +0.000 OA
ATOM     23  C   UNL     1       8.135   8.951  17.732  0.00  0.00    +0.000 C 
ENDBRANCH  19  22
ENDBRANCH   7  16
BRANCH   1  24
ATOM     24  C   UNL     1       4.244   2.550  18.279  0.00  0.00    +0.000 C 
ATOM     25  O   UNL     1       3.487   1.679  17.885  0.00  0.00    +0.000 OA
BRANCH  24  26
ATOM     26  O   UNL     1       5.214   3.146  17.528  0.00  0.00    +0.000 OA
BRANCH  26  27
ATOM     27  C   UNL     1       4.877   3.431  16.163  0.00  0.00    +0.000 C 
BRANCH  27  29
ATOM     28  N   UNL     1       5.859   4.020  14.004  0.00  0.00    +0.000 N 
ATOM     29  C   UNL     1       6.095   3.868  15.352  0.00  0.00    +0.000 C 
ATOM     30  O   UNL     1       7.176   4.123  15.879  0.00  0.00    +0.000 OA
ATOM     31  H   UNL     1       4.946   3.765  13.645  0.00  0.00    +0.000 HD
BRANCH  28  33
ATOM     32  C   UNL     1       6.930   3.582  11.834  0.00  0.00    +0.000 C 
ATOM     33  C   UNL     1       6.887   4.447  13.080  0.00  0.00    +0.000 C 
ENDBRANCH  28  33
ENDBRANCH  27  29
ENDBRANCH  26  27
ENDBRANCH  24  26
ENDBRANCH   1  24
TORSDOF 9
ENDMDL
MODEL 8
REMARK VINA RESULT:      -6.1      8.243     11.882
REMARK  Name = 
REMARK  12 active torsions:
REMARK  status: ('A' for Active; 'I' for Inactive)
REMARK    1  A    between atoms: C_1  and  C_2
REMARK    2  A    between atoms: C_2  and  N_3
REMARK    3  A    between atoms: C_4  and  C_6
REMARK    4  A    between atoms: C_6  and  O_7
REMARK    5  A    between atoms: O_7  and  C_8
REMARK    6  A    between atoms: C_8  and  C_10
REMARK    7  A    between atoms: N_15  and  C_16
REMARK    8  A    between atoms: C_19  and  O_20
REMARK    9  A    between atoms: O_20  and  C_21
REMARK   10  A    between atoms: C_24  and  C_25
REMARK   11  A    between atoms: C_28  and  O_29
REMARK   12  A    between atoms: O_29  and  C_30
REMARK                            x       y       z     vdW  Elec       q    Type
REMARK                         _______ _______ _______ _____ _____    ______ ____
ROOT
ATOM      1  C   UNL     1      -2.055  12.529  22.485  0.00  0.00    +0.000 C 
ATOM      2  C   UNL     1      -1.780  13.234  23.804  0.00  0.00    +0.000 C 
ATOM      3  C   UNL     1      -1.402  14.691  23.608  0.00  0.00    +0.000 C 
ATOM      4  C   UNL     1      -0.495  15.026  22.436  0.00  0.00    +0.000 C 
ATOM      5  O   UNL     1       0.054  16.133  22.441  0.00  0.00    +0.000 OA
ATOM      6  N   UNL     1      -0.333  14.074  21.422  0.00  0.00    +0.000 N 
ATOM      7  C   UNL     1      -0.828  12.684  21.575  0.00  0.00    +0.000 C 
ENDROOT
BRANCH   6   8
ATOM      8  C   UNL     1       0.723  14.319  20.469  0.00  0.00    +0.000 A 
ATOM      9  C   UNL     1       0.558  15.240  19.429  0.00  0.00    +0.000 A 
ATOM     10  C   UNL     1       1.572  15.453  18.495  0.00  0.00    +0.000 A 
ATOM     11  C   UNL     1       2.781  14.769  18.588  0.00  0.00    +0.000 A 
ATOM     12  C   UNL     1       2.966  13.851  19.619  0.00  0.00    +0.000 A 
ATOM     13  C   UNL     1       1.937  13.619  20.548  0.00  0.00    +0.000 A 
BRANCH  11  14
ATOM     14  O   UNL     1       3.669  15.044  17.586  0.00  0.00    +0.000 OA
ATOM     15  C   UNL     1       5.044  14.917  17.926  0.00  0.00    +0.000 C 
ENDBRANCH  11  14
ENDBRANCH   6   8
BRANCH   7  16
ATOM     16  C   UNL     1      -1.031  11.947  20.247  0.00  0.00    +0.000 A 
ATOM     17  C   UNL     1      -1.725  12.567  19.195  0.00  0.00    +0.000 A 
ATOM     18  C   UNL     1      -2.008  11.865  18.021  0.00  0.00    +0.000 A 
ATOM     19  C   UNL     1      -1.561  10.555  17.851  0.00  0.00    +0.000 A 
ATOM     20  C   UNL     1      -0.853   9.939  18.879  0.00  0.00    +0.000 A 
ATOM     21  C   UNL     1      -0.600  10.623  20.070  0.00  0.00    +0.000 A 
BRANCH  19  22
ATOM     22  O   UNL     1      -1.920   9.965  16.672  0.00  0.00    +0.000 OA
ATOM     23  C   UNL     1      -2.677  10.777  15.782  0.00  0.00    +0.000 C 
ENDBRANCH  19  22
ENDBRANCH   7  16
BRANCH   1  24
ATOM     24  C   UNL     1      -3.357  13.022  21.876  0.00  0.00    +0.000 C 
ATOM     25  O   UNL     1      -3.448  13.952  21.093  0.00  0.00    +0.000 OA
BRANCH  24  26
ATOM     26  O   UNL     1      -4.405  12.295  22.358  0.00  0.00    +0.000 OA
BRANCH  26  27
ATOM     27  C   UNL     1      -5.715  12.818  22.097  0.00  0.00    +0.000 C 
BRANCH  27  29
ATOM     28  N   UNL     1      -6.306  12.889  19.726  0.00  0.00    +0.000 N 
ATOM     29  C   UNL     1      -6.367  12.151  20.888  0.00  0.00    +0.000 C 
ATOM     30  O   UNL     1      -6.849  11.022  20.943  0.00  0.00    +0.000 OA
ATOM     31  H   UNL     1      -5.913  13.822  19.770  0.00  0.00    +0.000 HD
BRANCH  28  33
ATOM     32  C   UNL     1      -5.772  11.897  17.540  0.00  0.00    +0.000 C 
ATOM     33  C   UNL     1      -6.852  12.411  18.475  0.00  0.00    +0.000 C 
ENDBRANCH  28  33
ENDBRANCH  27  29
ENDBRANCH  26  27
ENDBRANCH  24  26
ENDBRANCH   1  24
TORSDOF 9
ENDMDL
MODEL 9
REMARK VINA RESULT:      -5.9      8.847     12.564
REMARK  Name = 
REMARK  12 active torsions:
REMARK  status: ('A' for Active; 'I' for Inactive)
REMARK    1  A    between atoms: C_1  and  C_2
REMARK    2  A    between atoms: C_2  and  N_3
REMARK    3  A    between atoms: C_4  and  C_6
REMARK    4  A    between atoms: C_6  and  O_7
REMARK    5  A    between atoms: O_7  and  C_8
REMARK    6  A    between atoms: C_8  and  C_10
REMARK    7  A    between atoms: N_15  and  C_16
REMARK    8  A    between atoms: C_19  and  O_20
REMARK    9  A    between atoms: O_20  and  C_21
REMARK   10  A    between atoms: C_24  and  C_25
REMARK   11  A    between atoms: C_28  and  O_29
REMARK   12  A    between atoms: O_29  and  C_30
REMARK                            x       y       z     vdW  Elec       q    Type
REMARK                         _______ _______ _______ _____ _____    ______ ____
ROOT
ATOM      1  C   UNL     1      -5.298  12.690  22.415  0.00  0.00    +0.000 C 
ATOM      2  C   UNL     1      -6.603  13.052  23.108  0.00  0.00    +0.000 C 
ATOM      3  C   UNL     1      -6.741  14.548  23.325  0.00  0.00    +0.000 C 
ATOM      4  C   UNL     1      -5.496  15.311  23.741  0.00  0.00    +0.000 C 
ATOM      5  O   UNL     1      -5.654  16.446  24.206  0.00  0.00    +0.000 OA
ATOM      6  N   UNL     1      -4.248  14.698  23.575  0.00  0.00    +0.000 N 
ATOM      7  C   UNL     1      -4.129  13.261  23.231  0.00  0.00    +0.000 C 
ENDROOT
BRANCH   6   8
ATOM      8  C   UNL     1      -3.123  15.340  24.213  0.00  0.00    +0.000 A 
ATOM      9  C   UNL     1      -2.658  14.910  25.461  0.00  0.00    +0.000 A 
ATOM     10  C   UNL     1      -1.587  15.551  26.084  0.00  0.00    +0.000 A 
ATOM     11  C   UNL     1      -0.941  16.620  25.469  0.00  0.00    +0.000 A 
ATOM     12  C   UNL     1      -1.386  17.059  24.225  0.00  0.00    +0.000 A 
ATOM     13  C   UNL     1      -2.479  16.429  23.605  0.00  0.00    +0.000 A 
BRANCH  11  14
ATOM     14  O   UNL     1       0.064  17.178  26.209  0.00  0.00    +0.000 OA
ATOM     15  C   UNL     1      -0.337  18.158  27.158  0.00  0.00    +0.000 C 
ENDBRANCH  11  14
ENDBRANCH   6   8
BRANCH   7  16
ATOM     16  C   UNL     1      -2.783  12.882  22.603  0.00  0.00    +0.000 A 
ATOM     17  C   UNL     1      -2.310  13.575  21.478  0.00  0.00    +0.000 A 
ATOM     18  C   UNL     1      -1.138  13.168  20.835  0.00  0.00    +0.000 A 
ATOM     19  C   UNL     1      -0.391  12.100  21.330  0.00  0.00    +0.000 A 
ATOM     20  C   UNL     1      -0.839  11.420  22.459  0.00  0.00    +0.000 A 
ATOM     21  C   UNL     1      -2.030  11.799  23.083  0.00  0.00    +0.000 A 
BRANCH  19  22
ATOM     22  O   UNL     1       0.722  11.780  20.603  0.00  0.00    +0.000 OA
ATOM     23  C   UNL     1       1.722  12.790  20.531  0.00  0.00    +0.000 C 
ENDBRANCH  19  22
ENDBRANCH   7  16
BRANCH   1  24
ATOM     24  C   UNL     1      -5.325  13.130  20.961  0.00  0.00    +0.000 C 
ATOM     25  O   UNL     1      -5.479  14.281  20.587  0.00  0.00    +0.000 OA
BRANCH  24  26
ATOM     26  O   UNL     1      -5.184  12.049  20.141  0.00  0.00    +0.000 OA
BRANCH  26  27
ATOM     27  C   UNL     1      -5.103  12.324  18.736  0.00  0.00    +0.000 C 
BRANCH  27  29
ATOM     28  N   UNL     1      -3.854  11.744  16.717  0.00  0.00    +0.000 N 
ATOM     29  C   UNL     1      -3.890  11.657  18.091  0.00  0.00    +0.000 C 
ATOM     30  O   UNL     1      -2.994  11.143  18.757  0.00  0.00    +0.000 OA
ATOM     31  H   UNL     1      -4.644  12.162  16.241  0.00  0.00    +0.000 HD
BRANCH  28  33
ATOM     32  C   UNL     1      -3.001   9.726  15.600  0.00  0.00    +0.000 C 
ATOM     33  C   UNL     1      -2.771  11.188  15.934  0.00  0.00    +0.000 C 
ENDBRANCH  28  33
ENDBRANCH  27  29
ENDBRANCH  26  27
ENDBRANCH  24  26
ENDBRANCH   1  24
TORSDOF 9
ENDMDL
