MODEL 1
REMARK VINA RESULT:      -8.5      0.000      0.000
REMARK  Name = 
REMARK  5 active torsions:
REMARK  status: ('A' for Active; 'I' for Inactive)
REMARK    1  A    between atoms: C_1  and  O_2
REMARK    2  A    between atoms: O_2  and  C_3
REMARK    3  A    between atoms: C_8  and  C_9
REMARK    4  A    between atoms: C_13  and  C_14
REMARK    5  A    between atoms: C_15  and  C_16
REMARK                            x       y       z     vdW  Elec       q    Type
REMARK                         _______ _______ _______ _____ _____    ______ ____
ROOT
ATOM      1  C   UNL     1       3.420   3.504  20.119  0.00  0.00    +0.000 A 
ATOM      2  N   UNL     1       3.574   2.357  20.804  0.00  0.00    +0.000 NA
ATOM      3  N   UNL     1       2.608   2.415  21.738  0.00  0.00    +0.000 N 
ATOM      4  C   UNL     1       1.836   3.537  21.665  0.00  0.00    +0.000 A 
ATOM      5  C   UNL     1       2.328   4.273  20.611  0.00  0.00    +0.000 A 
ATOM      6  H   UNL     1       2.531   1.650  22.400  0.00  0.00    +0.000 HD
ENDROOT
BRANCH   1  12
ATOM      7  C   UNL     1       6.554   4.555  15.095  0.00  0.00    +0.000 A 
ATOM      8  C   UNL     1       7.589   4.764  16.012  0.00  0.00    +0.000 A 
ATOM      9  C   UNL     1       7.358   4.668  17.391  0.00  0.00    +0.000 A 
ATOM     10  C   UNL     1       6.069   4.352  17.837  0.00  0.00    +0.000 A 
ATOM     11  N   UNL     1       5.610   4.187  19.115  0.00  0.00    +0.000 NA
ATOM     12  C   UNL     1       4.340   3.854  18.995  0.00  0.00    +0.000 A 
ATOM     13  N   UNL     1       3.958   3.847  17.675  0.00  0.00    +0.000 N 
ATOM     14  C   UNL     1       5.053   4.154  16.909  0.00  0.00    +0.000 A 
ATOM     15  C   UNL     1       5.251   4.267  15.531  0.00  0.00    +0.000 A 
ATOM     16  H   UNL     1       3.027   3.619  17.358  0.00  0.00    +0.000 HD
BRANCH   7  18
ATOM     17  C   UNL     1       6.092   3.590  12.985  0.00  0.00    +0.000 C 
ATOM     18  O   UNL     1       6.695   4.641  13.734  0.00  0.00    +0.000 OA
ENDBRANCH   7  18
ENDBRANCH   1  12
BRANCH   5  19
ATOM     19  C   UNL     1       1.835   5.524  20.127  0.00  0.00    +0.000 C 
ATOM     20  C   UNL     1       2.460   6.712  20.177  0.00  0.00    +0.000 C 
BRANCH  20  21
ATOM     21  C   UNL     1       1.865   7.964  19.681  0.00  0.00    +0.000 A 
ATOM     22  C   UNL     1       1.949   8.377  18.346  0.00  0.00    +0.000 A 
ATOM     23  C   UNL     1       1.338   9.563  17.941  0.00  0.00    +0.000 A 
ATOM     24  C   UNL     1       0.641  10.298  18.885  0.00  0.00    +0.000 A 
ATOM     25  N   UNL     1       0.516   9.930  20.177  0.00  0.00    +0.000 NA
ATOM     26  C   UNL     1       1.125   8.774  20.540  0.00  0.00    +0.000 A 
ENDBRANCH  20  21
ENDBRANCH   5  19
TORSDOF 4
ENDMDL
MODEL 2
REMARK VINA RESULT:      -8.3      2.731      6.690
REMARK  Name = 
REMARK  5 active torsions:
REMARK  status: ('A' for Active; 'I' for Inactive)
REMARK    1  A    between atoms: C_1  and  O_2
REMARK    2  A    between atoms: O_2  and  C_3
REMARK    3  A    between atoms: C_8  and  C_9
REMARK    4  A    between atoms: C_13  and  C_14
REMARK    5  A    between atoms: C_15  and  C_16
REMARK                            x       y       z     vdW  Elec       q    Type
REMARK                         _______ _______ _______ _____ _____    ______ ____
ROOT
ATOM      1  C   UNL     1       2.650   4.561  20.457  0.00  0.00    +0.000 A 
ATOM      2  N   UNL     1       2.185   4.077  21.622  0.00  0.00    +0.000 NA
ATOM      3  N   UNL     1       2.614   2.803  21.628  0.00  0.00    +0.000 N 
ATOM      4  C   UNL     1       3.345   2.460  20.529  0.00  0.00    +0.000 A 
ATOM      5  C   UNL     1       3.402   3.587  19.740  0.00  0.00    +0.000 A 
ATOM      6  H   UNL     1       2.369   2.216  22.419  0.00  0.00    +0.000 HD
ENDROOT
BRANCH   1  12
ATOM      7  C   UNL     1       0.952  10.239  19.431  0.00  0.00    +0.000 A 
ATOM      8  C   UNL     1       1.491   9.970  18.169  0.00  0.00    +0.000 A 
ATOM      9  C   UNL     1       2.077   8.729  17.887  0.00  0.00    +0.000 A 
ATOM     10  C   UNL     1       2.110   7.756  18.893  0.00  0.00    +0.000 A 
ATOM     11  N   UNL     1       2.606   6.482  18.851  0.00  0.00    +0.000 NA
ATOM     12  C   UNL     1       2.354   5.965  20.037  0.00  0.00    +0.000 A 
ATOM     13  N   UNL     1       1.752   6.888  20.857  0.00  0.00    +0.000 N 
ATOM     14  C   UNL     1       1.575   8.045  20.142  0.00  0.00    +0.000 A 
ATOM     15  C   UNL     1       1.006   9.282  20.456  0.00  0.00    +0.000 A 
ATOM     16  H   UNL     1       1.473   6.701  21.809  0.00  0.00    +0.000 HD
BRANCH   7  18
ATOM     17  C   UNL     1      -0.620  11.923  18.895  0.00  0.00    +0.000 C 
ATOM     18  O   UNL     1       0.372  11.428  19.790  0.00  0.00    +0.000 OA
ENDBRANCH   7  18
ENDBRANCH   1  12
BRANCH   5  19
ATOM     19  C   UNL     1       4.075   3.732  18.489  0.00  0.00    +0.000 C 
ATOM     20  C   UNL     1       5.273   4.302  18.277  0.00  0.00    +0.000 C 
BRANCH  20  21
ATOM     21  C   UNL     1       5.884   4.437  16.945  0.00  0.00    +0.000 A 
ATOM     22  C   UNL     1       5.409   3.767  15.811  0.00  0.00    +0.000 A 
ATOM     23  C   UNL     1       6.022   3.965  14.574  0.00  0.00    +0.000 A 
ATOM     24  C   UNL     1       7.087   4.845  14.503  0.00  0.00    +0.000 A 
ATOM     25  N   UNL     1       7.567   5.528  15.563  0.00  0.00    +0.000 NA
ATOM     26  C   UNL     1       6.952   5.311  16.752  0.00  0.00    +0.000 A 
ENDBRANCH  20  21
ENDBRANCH   5  19
TORSDOF 4
ENDMDL
MODEL 3
REMARK VINA RESULT:      -7.9      0.846      1.471
REMARK  Name = 
REMARK  5 active torsions:
REMARK  status: ('A' for Active; 'I' for Inactive)
REMARK    1  A    between atoms: C_1  and  O_2
REMARK    2  A    between atoms: O_2  and  C_3
REMARK    3  A    between atoms: C_8  and  C_9
REMARK    4  A    between atoms: C_13  and  C_14
REMARK    5  A    between atoms: C_15  and  C_16
REMARK                            x       y       z     vdW  Elec       q    Type
REMARK                         _______ _______ _______ _____ _____    ______ ____
ROOT
ATOM      1  C   UNL     1       3.579   3.367  19.725  0.00  0.00    +0.000 A 
ATOM      2  N   UNL     1       3.840   2.244  20.417  0.00  0.00    +0.000 NA
ATOM      3  N   UNL     1       3.067   2.360  21.511  0.00  0.00    +0.000 N 
ATOM      4  C   UNL     1       2.313   3.496  21.537  0.00  0.00    +0.000 A 
ATOM      5  C   UNL     1       2.611   4.180  20.380  0.00  0.00    +0.000 A 
ATOM      6  H   UNL     1       3.102   1.622  22.206  0.00  0.00    +0.000 HD
ENDROOT
BRANCH   1  12
ATOM      7  C   UNL     1       6.934   4.962  14.996  0.00  0.00    +0.000 A 
ATOM      8  C   UNL     1       5.794   4.558  14.293  0.00  0.00    +0.000 A 
ATOM      9  C   UNL     1       4.678   4.045  14.968  0.00  0.00    +0.000 A 
ATOM     10  C   UNL     1       4.722   3.948  16.364  0.00  0.00    +0.000 A 
ATOM     11  N   UNL     1       3.763   3.501  17.232  0.00  0.00    +0.000 NA
ATOM     12  C   UNL     1       4.278   3.654  18.436  0.00  0.00    +0.000 A 
ATOM     13  N   UNL     1       5.560   4.142  18.363  0.00  0.00    +0.000 N 
ATOM     14  C   UNL     1       5.866   4.348  17.043  0.00  0.00    +0.000 A 
ATOM     15  C   UNL     1       7.000   4.841  16.393  0.00  0.00    +0.000 A 
ATOM     16  H   UNL     1       6.138   4.332  19.169  0.00  0.00    +0.000 HD
BRANCH   7  18
ATOM     17  C   UNL     1       8.088   5.441  12.987  0.00  0.00    +0.000 C 
ATOM     18  O   UNL     1       8.069   5.463  14.411  0.00  0.00    +0.000 OA
ENDBRANCH   7  18
ENDBRANCH   1  12
BRANCH   5  19
ATOM     19  C   UNL     1       2.057   5.423  19.946  0.00  0.00    +0.000 C 
ATOM     20  C   UNL     1       2.677   6.614  19.905  0.00  0.00    +0.000 C 
BRANCH  20  21
ATOM     21  C   UNL     1       2.020   7.858  19.470  0.00  0.00    +0.000 A 
ATOM     22  C   UNL     1       2.044   8.317  18.148  0.00  0.00    +0.000 A 
ATOM     23  C   UNL     1       1.375   9.491  17.803  0.00  0.00    +0.000 A 
ATOM     24  C   UNL     1       0.685  10.168  18.793  0.00  0.00    +0.000 A 
ATOM     25  N   UNL     1       0.618   9.755  20.076  0.00  0.00    +0.000 NA
ATOM     26  C   UNL     1       1.281   8.611  20.380  0.00  0.00    +0.000 A 
ENDBRANCH  20  21
ENDBRANCH   5  19
TORSDOF 4
ENDMDL
MODEL 4
REMARK VINA RESULT:      -7.9      0.724      1.124
REMARK  Name = 
REMARK  5 active torsions:
REMARK  status: ('A' for Active; 'I' for Inactive)
REMARK    1  A    between atoms: C_1  and  O_2
REMARK    2  A    between atoms: O_2  and  C_3
REMARK    3  A    between atoms: C_8  and  C_9
REMARK    4  A    between atoms: C_13  and  C_14
REMARK    5  A    between atoms: C_15  and  C_16
REMARK                            x       y       z     vdW  Elec       q    Type
REMARK                         _______ _______ _______ _____ _____    ______ ____
ROOT
ATOM      1  C   UNL     1       3.461   3.654  19.791  0.00  0.00    +0.000 A 
ATOM      2  N   UNL     1       3.472   2.443  20.372  0.00  0.00    +0.000 NA
ATOM      3  N   UNL     1       2.566   2.557  21.359  0.00  0.00    +0.000 N 
ATOM      4  C   UNL     1       1.966   3.781  21.420  0.00  0.00    +0.000 A 
ATOM      5  C   UNL     1       2.516   4.527  20.402  0.00  0.00    +0.000 A 
ATOM      6  H   UNL     1       2.405   1.756  21.961  0.00  0.00    +0.000 HD
ENDROOT
BRANCH   1  12
ATOM      7  C   UNL     1       6.590   4.483  14.722  0.00  0.00    +0.000 A 
ATOM      8  C   UNL     1       7.604   4.813  15.628  0.00  0.00    +0.000 A 
ATOM      9  C   UNL     1       7.363   4.810  17.009  0.00  0.00    +0.000 A 
ATOM     10  C   UNL     1       6.087   4.462  17.468  0.00  0.00    +0.000 A 
ATOM     11  N   UNL     1       5.624   4.372  18.752  0.00  0.00    +0.000 NA
ATOM     12  C   UNL     1       4.373   3.966  18.649  0.00  0.00    +0.000 A 
ATOM     13  N   UNL     1       4.006   3.839  17.332  0.00  0.00    +0.000 N 
ATOM     14  C   UNL     1       5.093   4.143  16.552  0.00  0.00    +0.000 A 
ATOM     15  C   UNL     1       5.299   4.162  15.171  0.00  0.00    +0.000 A 
ATOM     16  H   UNL     1       3.091   3.541  17.027  0.00  0.00    +0.000 HD
BRANCH   7  18
ATOM     17  C   UNL     1       6.032   3.447  12.669  0.00  0.00    +0.000 C 
ATOM     18  O   UNL     1       6.741   4.473  13.360  0.00  0.00    +0.000 OA
ENDBRANCH   7  18
ENDBRANCH   1  12
BRANCH   5  19
ATOM     19  C   UNL     1       2.194   5.873  20.048  0.00  0.00    +0.000 C 
ATOM     20  C   UNL     1       1.714   6.830  20.860  0.00  0.00    +0.000 C 
BRANCH  20  21
ATOM     21  C   UNL     1       1.379   8.189  20.405  0.00  0.00    +0.000 A 
ATOM     22  C   UNL     1       0.777   9.148  21.228  0.00  0.00    +0.000 A 
ATOM     23  C   UNL     1       0.512  10.425  20.735  0.00  0.00    +0.000 A 
ATOM     24  C   UNL     1       0.875  10.714  19.432  0.00  0.00    +0.000 A 
ATOM     25  N   UNL     1       1.474   9.829  18.608  0.00  0.00    +0.000 NA
ATOM     26  C   UNL     1       1.714   8.595  19.115  0.00  0.00    +0.000 A 
ENDBRANCH  20  21
ENDBRANCH   5  19
TORSDOF 4
ENDMDL
MODEL 5
REMARK VINA RESULT:      -7.7      1.070      1.458
REMARK  Name = 
REMARK  5 active torsions:
REMARK  status: ('A' for Active; 'I' for Inactive)
REMARK    1  A    between atoms: C_1  and  O_2
REMARK    2  A    between atoms: O_2  and  C_3
REMARK    3  A    between atoms: C_8  and  C_9
REMARK    4  A    between atoms: C_13  and  C_14
REMARK    5  A    between atoms: C_15  and  C_16
REMARK                            x       y       z     vdW  Elec       q    Type
REMARK                         _______ _______ _______ _____ _____    ______ ____
ROOT
ATOM      1  C   UNL     1       2.916   3.680  20.028  0.00  0.00    +0.000 A 
ATOM      2  N   UNL     1       2.989   2.398  20.425  0.00  0.00    +0.000 NA
ATOM      3  N   UNL     1       1.940   2.265  21.256  0.00  0.00    +0.000 N 
ATOM      4  C   UNL     1       1.193   3.398  21.390  0.00  0.00    +0.000 A 
ATOM      5  C   UNL     1       1.793   4.348  20.593  0.00  0.00    +0.000 A 
ATOM      6  H   UNL     1       1.790   1.366  21.703  0.00  0.00    +0.000 HD
ENDROOT
BRANCH   1  12
ATOM      7  C   UNL     1       6.911   5.331  15.846  0.00  0.00    +0.000 A 
ATOM      8  C   UNL     1       7.346   6.179  16.871  0.00  0.00    +0.000 A 
ATOM      9  C   UNL     1       6.690   6.206  18.108  0.00  0.00    +0.000 A 
ATOM     10  C   UNL     1       5.591   5.361  18.306  0.00  0.00    +0.000 A 
ATOM     11  N   UNL     1       4.812   5.199  19.419  0.00  0.00    +0.000 NA
ATOM     12  C   UNL     1       3.943   4.258  19.108  0.00  0.00    +0.000 A 
ATOM     13  N   UNL     1       4.112   3.843  17.809  0.00  0.00    +0.000 N 
ATOM     14  C   UNL     1       5.171   4.531  17.274  0.00  0.00    +0.000 A 
ATOM     15  C   UNL     1       5.792   4.502  16.023  0.00  0.00    +0.000 A 
ATOM     16  H   UNL     1       3.552   3.130  17.366  0.00  0.00    +0.000 HD
BRANCH   7  18
ATOM     17  C   UNL     1       6.809   4.434  13.659  0.00  0.00    +0.000 C 
ATOM     18  O   UNL     1       7.490   5.253  14.606  0.00  0.00    +0.000 OA
ENDBRANCH   7  18
ENDBRANCH   1  12
BRANCH   5  19
ATOM     19  C   UNL     1       1.365   5.695  20.386  0.00  0.00    +0.000 C 
ATOM     20  C   UNL     1       1.881   6.802  20.946  0.00  0.00    +0.000 C 
BRANCH  20  21
ATOM     21  C   UNL     1       1.358   8.155  20.700  0.00  0.00    +0.000 A 
ATOM     22  C   UNL     1       0.784   8.951  21.700  0.00  0.00    +0.000 A 
ATOM     23  C   UNL     1       0.334  10.235  21.399  0.00  0.00    +0.000 A 
ATOM     24  C   UNL     1       0.486  10.697  20.103  0.00  0.00    +0.000 A 
ATOM     25  N   UNL     1       1.050   9.976  19.112  0.00  0.00    +0.000 NA
ATOM     26  C   UNL     1       1.474   8.729  19.436  0.00  0.00    +0.000 A 
ENDBRANCH  20  21
ENDBRANCH   5  19
TORSDOF 4
ENDMDL
MODEL 6
REMARK VINA RESULT:      -7.7      1.067      1.772
REMARK  Name = 
REMARK  5 active torsions:
REMARK  status: ('A' for Active; 'I' for Inactive)
REMARK    1  A    between atoms: C_1  and  O_2
REMARK    2  A    between atoms: O_2  and  C_3
REMARK    3  A    between atoms: C_8  and  C_9
REMARK    4  A    between atoms: C_13  and  C_14
REMARK    5  A    between atoms: C_15  and  C_16
REMARK                            x       y       z     vdW  Elec       q    Type
REMARK                         _______ _______ _______ _____ _____    ______ ____
ROOT
ATOM      1  C   UNL     1       3.534   3.628  19.636  0.00  0.00    +0.000 A 
ATOM      2  N   UNL     1       3.677   2.510  20.368  0.00  0.00    +0.000 NA
ATOM      3  N   UNL     1       2.875   2.720  21.427  0.00  0.00    +0.000 N 
ATOM      4  C   UNL     1       2.214   3.912  21.392  0.00  0.00    +0.000 A 
ATOM      5  C   UNL     1       2.609   4.535  20.230  0.00  0.00    +0.000 A 
ATOM      6  H   UNL     1       2.825   2.003  22.143  0.00  0.00    +0.000 HD
ENDROOT
BRANCH   1  12
ATOM      7  C   UNL     1       7.013   5.022  14.933  0.00  0.00    +0.000 A 
ATOM      8  C   UNL     1       6.061   4.259  14.247  0.00  0.00    +0.000 A 
ATOM      9  C   UNL     1       5.001   3.648  14.931  0.00  0.00    +0.000 A 
ATOM     10  C   UNL     1       4.907   3.819  16.317  0.00  0.00    +0.000 A 
ATOM     11  N   UNL     1       3.965   3.342  17.186  0.00  0.00    +0.000 NA
ATOM     12  C   UNL     1       4.301   3.819  18.369  0.00  0.00    +0.000 A 
ATOM     13  N   UNL     1       5.460   4.552  18.290  0.00  0.00    +0.000 N 
ATOM     14  C   UNL     1       5.865   4.575  16.980  0.00  0.00    +0.000 A 
ATOM     15  C   UNL     1       6.944   5.175  16.327  0.00  0.00    +0.000 A 
ATOM     16  H   UNL     1       5.895   5.007  19.079  0.00  0.00    +0.000 HD
BRANCH   7  18
ATOM     17  C   UNL     1       8.162   5.513  12.925  0.00  0.00    +0.000 C 
ATOM     18  O   UNL     1       8.082   5.642  14.341  0.00  0.00    +0.000 OA
ENDBRANCH   7  18
ENDBRANCH   1  12
BRANCH   5  19
ATOM     19  C   UNL     1       2.174   5.804  19.739  0.00  0.00    +0.000 C 
ATOM     20  C   UNL     1       2.099   6.955  20.429  0.00  0.00    +0.000 C 
BRANCH  20  21
ATOM     21  C   UNL     1       1.608   8.217  19.853  0.00  0.00    +0.000 A 
ATOM     22  C   UNL     1       0.826   9.134  20.566  0.00  0.00    +0.000 A 
ATOM     23  C   UNL     1       0.418  10.323  19.962  0.00  0.00    +0.000 A 
ATOM     24  C   UNL     1       0.820  10.570  18.661  0.00  0.00    +0.000 A 
ATOM     25  N   UNL     1       1.588   9.726  17.942  0.00  0.00    +0.000 NA
ATOM     26  C   UNL     1       1.965   8.577  18.555  0.00  0.00    +0.000 A 
ENDBRANCH  20  21
ENDBRANCH   5  19
TORSDOF 4
ENDMDL
MODEL 7
REMARK VINA RESULT:      -7.7      1.515      2.357
REMARK  Name = 
REMARK  5 active torsions:
REMARK  status: ('A' for Active; 'I' for Inactive)
REMARK    1  A    between atoms: C_1  and  O_2
REMARK    2  A    between atoms: O_2  and  C_3
REMARK    3  A    between atoms: C_8  and  C_9
REMARK    4  A    between atoms: C_13  and  C_14
REMARK    5  A    between atoms: C_15  and  C_16
REMARK                            x       y       z     vdW  Elec       q    Type
REMARK                         _______ _______ _______ _____ _____    ______ ____
ROOT
ATOM      1  C   UNL     1       3.059   3.417  20.337  0.00  0.00    +0.000 A 
ATOM      2  N   UNL     1       3.195   2.183  20.852  0.00  0.00    +0.000 NA
ATOM      3  N   UNL     1       2.149   2.073  21.690  0.00  0.00    +0.000 N 
ATOM      4  C   UNL     1       1.344   3.175  21.717  0.00  0.00    +0.000 A 
ATOM      5  C   UNL     1       1.900   4.076  20.837  0.00  0.00    +0.000 A 
ATOM      6  H   UNL     1       2.042   1.214  22.218  0.00  0.00    +0.000 HD
ENDROOT
BRANCH   1  12
ATOM      7  C   UNL     1       7.077   6.293  16.909  0.00  0.00    +0.000 A 
ATOM      8  C   UNL     1       6.739   5.284  16.000  0.00  0.00    +0.000 A 
ATOM      9  C   UNL     1       5.819   4.285  16.345  0.00  0.00    +0.000 A 
ATOM     10  C   UNL     1       5.237   4.317  17.618  0.00  0.00    +0.000 A 
ATOM     11  N   UNL     1       4.313   3.472  18.170  0.00  0.00    +0.000 NA
ATOM     12  C   UNL     1       4.061   3.959  19.369  0.00  0.00    +0.000 A 
ATOM     13  N   UNL     1       4.833   5.067  19.621  0.00  0.00    +0.000 N 
ATOM     14  C   UNL     1       5.592   5.323  18.508  0.00  0.00    +0.000 A 
ATOM     15  C   UNL     1       6.523   6.317  18.198  0.00  0.00    +0.000 A 
ATOM     16  H   UNL     1       4.799   5.595  20.481  0.00  0.00    +0.000 HD
BRANCH   7  18
ATOM     17  C   UNL     1       7.991   8.363  17.599  0.00  0.00    +0.000 C 
ATOM     18  O   UNL     1       7.974   7.298  16.653  0.00  0.00    +0.000 OA
ENDBRANCH   7  18
ENDBRANCH   1  12
BRANCH   5  19
ATOM     19  C   UNL     1       1.405   5.374  20.505  0.00  0.00    +0.000 C 
ATOM     20  C   UNL     1       1.956   6.556  20.829  0.00  0.00    +0.000 C 
BRANCH  20  21
ATOM     21  C   UNL     1       1.362   7.855  20.471  0.00  0.00    +0.000 A 
ATOM     22  C   UNL     1       0.489   8.557  21.311  0.00  0.00    +0.000 A 
ATOM     23  C   UNL     1      -0.014   9.796  20.916  0.00  0.00    +0.000 A 
ATOM     24  C   UNL     1       0.384  10.308  19.694  0.00  0.00    +0.000 A 
ATOM     25  N   UNL     1       1.237   9.677  18.860  0.00  0.00    +0.000 NA
ATOM     26  C   UNL     1       1.706   8.473  19.271  0.00  0.00    +0.000 A 
ENDBRANCH  20  21
ENDBRANCH   5  19
TORSDOF 4
ENDMDL
MODEL 8
REMARK VINA RESULT:      -7.6      3.392      5.040
REMARK  Name = 
REMARK  5 active torsions:
REMARK  status: ('A' for Active; 'I' for Inactive)
REMARK    1  A    between atoms: C_1  and  O_2
REMARK    2  A    between atoms: O_2  and  C_3
REMARK    3  A    between atoms: C_8  and  C_9
REMARK    4  A    between atoms: C_13  and  C_14
REMARK    5  A    between atoms: C_15  and  C_16
REMARK                            x       y       z     vdW  Elec       q    Type
REMARK                         _______ _______ _______ _____ _____    ______ ____
ROOT
ATOM      1  C   UNL     1       7.186   5.497  17.517  0.00  0.00    +0.000 A 
ATOM      2  N   UNL     1       8.264   6.232  17.839  0.00  0.00    +0.000 NA
ATOM      3  N   UNL     1       8.139   6.414  19.165  0.00  0.00    +0.000 N 
ATOM      4  C   UNL     1       7.040   5.812  19.704  0.00  0.00    +0.000 A 
ATOM      5  C   UNL     1       6.393   5.191  18.660  0.00  0.00    +0.000 A 
ATOM      6  H   UNL     1       8.844   6.964  19.645  0.00  0.00    +0.000 HD
ENDROOT
BRANCH   1  12
ATOM      7  C   UNL     1       5.602   3.331  12.135  0.00  0.00    +0.000 A 
ATOM      8  C   UNL     1       6.751   4.020  11.733  0.00  0.00    +0.000 A 
ATOM      9  C   UNL     1       7.506   4.758  12.654  0.00  0.00    +0.000 A 
ATOM     10  C   UNL     1       7.093   4.789  13.991  0.00  0.00    +0.000 A 
ATOM     11  N   UNL     1       7.669   5.417  15.061  0.00  0.00    +0.000 NA
ATOM     12  C   UNL     1       6.921   5.102  16.101  0.00  0.00    +0.000 A 
ATOM     13  N   UNL     1       5.854   4.326  15.719  0.00  0.00    +0.000 N 
ATOM     14  C   UNL     1       5.946   4.103  14.369  0.00  0.00    +0.000 A 
ATOM     15  C   UNL     1       5.162   3.379  13.467  0.00  0.00    +0.000 A 
ATOM     16  H   UNL     1       5.155   3.973  16.358  0.00  0.00    +0.000 HD
BRANCH   7  18
ATOM     17  C   UNL     1       3.631   3.256  10.828  0.00  0.00    +0.000 C 
ATOM     18  O   UNL     1       4.804   2.596  11.296  0.00  0.00    +0.000 OA
ENDBRANCH   7  18
ENDBRANCH   1  12
BRANCH   5  19
ATOM     19  C   UNL     1       5.198   4.411  18.727  0.00  0.00    +0.000 C 
ATOM     20  C   UNL     1       3.956   4.856  18.982  0.00  0.00    +0.000 C 
BRANCH  20  21
ATOM     21  C   UNL     1       2.779   3.975  19.063  0.00  0.00    +0.000 A 
ATOM     22  C   UNL     1       1.850   4.030  20.109  0.00  0.00    +0.000 A 
ATOM     23  C   UNL     1       0.743   3.182  20.106  0.00  0.00    +0.000 A 
ATOM     24  C   UNL     1       0.587   2.310  19.043  0.00  0.00    +0.000 A 
ATOM     25  N   UNL     1       1.445   2.235  18.004  0.00  0.00    +0.000 NA
ATOM     26  C   UNL     1       2.513   3.070  18.038  0.00  0.00    +0.000 A 
ENDBRANCH  20  21
ENDBRANCH   5  19
TORSDOF 4
ENDMDL
MODEL 9
REMARK VINA RESULT:      -7.5      3.145      5.680
REMARK  Name = 
REMARK  5 active torsions:
REMARK  status: ('A' for Active; 'I' for Inactive)
REMARK    1  A    between atoms: C_1  and  O_2
REMARK    2  A    between atoms: O_2  and  C_3
REMARK    3  A    between atoms: C_8  and  C_9
REMARK    4  A    between atoms: C_13  and  C_14
REMARK    5  A    between atoms: C_15  and  C_16
REMARK                            x       y       z     vdW  Elec       q    Type
REMARK                         _______ _______ _______ _____ _____    ______ ____
ROOT
ATOM      1  C   UNL     1       0.864   9.025  21.169  0.00  0.00    +0.000 A 
ATOM      2  N   UNL     1       1.214   9.262  22.445  0.00  0.00    +0.000 NA
ATOM      3  N   UNL     1       0.379  10.245  22.825  0.00  0.00    +0.000 N 
ATOM      4  C   UNL     1      -0.499  10.631  21.854  0.00  0.00    +0.000 A 
ATOM      5  C   UNL     1      -0.222   9.849  20.755  0.00  0.00    +0.000 A 
ATOM      6  H   UNL     1       0.462  10.611  23.768  0.00  0.00    +0.000 HD
ENDROOT
BRANCH   1  12
ATOM      7  C   UNL     1       3.867   4.498  18.590  0.00  0.00    +0.000 A 
ATOM      8  C   UNL     1       4.029   5.441  17.569  0.00  0.00    +0.000 A 
ATOM      9  C   UNL     1       3.458   6.716  17.670  0.00  0.00    +0.000 A 
ATOM     10  C   UNL     1       2.724   7.035  18.819  0.00  0.00    +0.000 A 
ATOM     11  N   UNL     1       2.096   8.205  19.150  0.00  0.00    +0.000 NA
ATOM     12  C   UNL     1       1.590   8.007  20.351  0.00  0.00    +0.000 A 
ATOM     13  N   UNL     1       1.835   6.726  20.782  0.00  0.00    +0.000 N 
ATOM     14  C   UNL     1       2.570   6.083  19.819  0.00  0.00    +0.000 A 
ATOM     15  C   UNL     1       3.109   4.797  19.733  0.00  0.00    +0.000 A 
ATOM     16  H   UNL     1       1.534   6.364  21.675  0.00  0.00    +0.000 HD
BRANCH   7  18
ATOM     17  C   UNL     1       4.298   2.502  19.785  0.00  0.00    +0.000 C 
ATOM     18  O   UNL     1       4.384   3.229  18.562  0.00  0.00    +0.000 OA
ENDBRANCH   7  18
ENDBRANCH   1  12
BRANCH   5  19
ATOM     19  C   UNL     1      -0.889   9.868  19.493  0.00  0.00    +0.000 C 
ATOM     20  C   UNL     1      -1.745  10.801  19.045  0.00  0.00    +0.000 C 
BRANCH  20  21
ATOM     21  C   UNL     1      -2.416  10.728  17.737  0.00  0.00    +0.000 A 
ATOM     22  C   UNL     1      -1.986   9.891  16.699  0.00  0.00    +0.000 A 
ATOM     23  C   UNL     1      -2.687   9.854  15.495  0.00  0.00    +0.000 A 
ATOM     24  C   UNL     1      -3.815  10.646  15.367  0.00  0.00    +0.000 A 
ATOM     25  N   UNL     1      -4.278  11.452  16.344  0.00  0.00    +0.000 NA
ATOM     26  C   UNL     1      -3.572  11.469  17.502  0.00  0.00    +0.000 A 
ENDBRANCH  20  21
ENDBRANCH   5  19
TORSDOF 4
ENDMDL
