MODEL 1
REMARK VINA RESULT:      -7.8      0.000      0.000
REMARK  Name = 
REMARK  6 active torsions:
REMARK  status: ('A' for Active; 'I' for Inactive)
REMARK    1  A    between atoms: C_2  and  C_17
REMARK    2  A    between atoms: N_3  and  C_4
REMARK    3  A    between atoms: C_4  and  C_5
REMARK    4  A    between atoms: C_5  and  C_6
REMARK    5  A    between atoms: C_9  and  N_10
REMARK    6  A    between atoms: C_20  and  O_21
REMARK                            x       y       z     vdW  Elec       q    Type
REMARK                         _______ _______ _______ _____ _____    ______ ____
ROOT
ATOM      1  C   UNL     1       8.180   8.192  18.390  0.00  0.00    +0.000 C 
ENDROOT
BRANCH   1   4
ATOM      2  O   UNL     1       9.306  10.209  20.020  0.00  0.00    +0.000 OA
ATOM      3  C   UNL     1       9.215  10.399  18.814  0.00  0.00    +0.000 C 
ATOM      4  N   UNL     1       8.675   9.480  17.935  0.00  0.00    +0.000 N 
ATOM      5  H   UNL     1       8.821   9.602  16.943  0.00  0.00    +0.000 HD
BRANCH   3   6
ATOM      6  C   UNL     1       9.735  11.652  18.204  0.00  0.00    +0.000 A 
ATOM      7  C   UNL     1       8.912  12.787  18.205  0.00  0.00    +0.000 A 
ATOM      8  C   UNL     1       9.370  13.988  17.655  0.00  0.00    +0.000 A 
ATOM      9  C   UNL     1      10.644  14.042  17.096  0.00  0.00    +0.000 A 
ATOM     10  C   UNL     1      11.461  12.916  17.068  0.00  0.00    +0.000 A 
ATOM     11  C   UNL     1      11.006  11.717  17.617  0.00  0.00    +0.000 A 
BRANCH   9  12
ATOM     12  O   UNL     1      11.135  15.191  16.553  0.00  0.00    +0.000 OA
ATOM     13  H   UNL     1      11.356  15.027  15.621  0.00  0.00    +0.000 HD
ENDBRANCH   9  12
ENDBRANCH   3   6
ENDBRANCH   1   4
BRANCH   1  14
ATOM     14  C   UNL     1       7.529   7.399  17.256  0.00  0.00    +0.000 C 
BRANCH  14  15
ATOM     15  C   UNL     1       6.403   6.533  17.756  0.00  0.00    +0.000 A 
ATOM     16  C   UNL     1       6.613   5.615  18.783  0.00  0.00    +0.000 A 
ATOM     17  C   UNL     1       5.569   4.792  19.228  0.00  0.00    +0.000 A 
ATOM     18  C   UNL     1       4.293   4.819  18.652  0.00  0.00    +0.000 A 
ATOM     19  C   UNL     1       4.100   5.772  17.636  0.00  0.00    +0.000 A 
ATOM     20  C   UNL     1       5.132   6.613  17.188  0.00  0.00    +0.000 A 
BRANCH  18  21
ATOM     21  N   UNL     1       3.266   3.981  19.053  0.00  0.00    +0.000 N 
ATOM     22  C   UNL     1       2.564   3.051  18.167  0.00  0.00    +0.000 C 
ATOM     23  C   UNL     1       1.094   3.274  18.494  0.00  0.00    +0.000 C 
ATOM     24  C   UNL     1       1.119   3.555  19.985  0.00  0.00    +0.000 C 
ATOM     25  C   UNL     1       2.398   4.369  20.175  0.00  0.00    +0.000 C 
ENDBRANCH  18  21
ENDBRANCH  14  15
ENDBRANCH   1  14
TORSDOF 6
ENDMDL
MODEL 2
REMARK VINA RESULT:      -7.8      0.557      1.139
REMARK  Name = 
REMARK  6 active torsions:
REMARK  status: ('A' for Active; 'I' for Inactive)
REMARK    1  A    between atoms: C_2  and  C_17
REMARK    2  A    between atoms: N_3  and  C_4
REMARK    3  A    between atoms: C_4  and  C_5
REMARK    4  A    between atoms: C_5  and  C_6
REMARK    5  A    between atoms: C_9  and  N_10
REMARK    6  A    between atoms: C_20  and  O_21
REMARK                            x       y       z     vdW  Elec       q    Type
REMARK                         _______ _______ _______ _____ _____    ______ ____
ROOT
ATOM      1  C   UNL     1       8.296   8.715  18.492  0.00  0.00    +0.000 C 
ENDROOT
BRANCH   1   4
ATOM      2  O   UNL     1       9.485  10.708  20.107  0.00  0.00    +0.000 OA
ATOM      3  C   UNL     1       9.434  10.874  18.895  0.00  0.00    +0.000 C 
ATOM      4  N   UNL     1       8.868   9.965  18.022  0.00  0.00    +0.000 N 
ATOM      5  H   UNL     1       9.045  10.056  17.032  0.00  0.00    +0.000 HD
BRANCH   3   6
ATOM      6  C   UNL     1      10.034  12.084  18.272  0.00  0.00    +0.000 A 
ATOM      7  C   UNL     1       9.362  13.307  18.404  0.00  0.00    +0.000 A 
ATOM      8  C   UNL     1       9.900  14.470  17.846  0.00  0.00    +0.000 A 
ATOM      9  C   UNL     1      11.102  14.399  17.147  0.00  0.00    +0.000 A 
ATOM     10  C   UNL     1      11.767  13.187  16.988  0.00  0.00    +0.000 A 
ATOM     11  C   UNL     1      11.231  12.026  17.546  0.00  0.00    +0.000 A 
BRANCH   9  12
ATOM     12  O   UNL     1      11.668  15.506  16.590  0.00  0.00    +0.000 OA
ATOM     13  H   UNL     1      11.472  16.274  17.153  0.00  0.00    +0.000 HD
ENDBRANCH   9  12
ENDBRANCH   3   6
ENDBRANCH   1   4
BRANCH   1  14
ATOM     14  C   UNL     1       7.959   7.772  17.336  0.00  0.00    +0.000 C 
BRANCH  14  15
ATOM     15  C   UNL     1       6.832   6.838  17.689  0.00  0.00    +0.000 A 
ATOM     16  C   UNL     1       5.623   6.888  17.000  0.00  0.00    +0.000 A 
ATOM     17  C   UNL     1       4.566   6.035  17.348  0.00  0.00    +0.000 A 
ATOM     18  C   UNL     1       4.653   5.128  18.411  0.00  0.00    +0.000 A 
ATOM     19  C   UNL     1       5.892   5.078  19.074  0.00  0.00    +0.000 A 
ATOM     20  C   UNL     1       6.964   5.917  18.729  0.00  0.00    +0.000 A 
BRANCH  18  21
ATOM     21  N   UNL     1       3.602   4.310  18.794  0.00  0.00    +0.000 N 
ATOM     22  C   UNL     1       2.830   3.472  17.876  0.00  0.00    +0.000 C 
ATOM     23  C   UNL     1       1.383   3.736  18.269  0.00  0.00    +0.000 C 
ATOM     24  C   UNL     1       1.470   3.917  19.773  0.00  0.00    +0.000 C 
ATOM     25  C   UNL     1       2.790   4.661  19.969  0.00  0.00    +0.000 C 
ENDBRANCH  18  21
ENDBRANCH  14  15
ENDBRANCH   1  14
TORSDOF 6
ENDMDL
MODEL 3
REMARK VINA RESULT:      -7.7      0.607      1.227
REMARK  Name = 
REMARK  6 active torsions:
REMARK  status: ('A' for Active; 'I' for Inactive)
REMARK    1  A    between atoms: C_2  and  C_17
REMARK    2  A    between atoms: N_3  and  C_4
REMARK    3  A    between atoms: C_4  and  C_5
REMARK    4  A    between atoms: C_5  and  C_6
REMARK    5  A    between atoms: C_9  and  N_10
REMARK    6  A    between atoms: C_20  and  O_21
REMARK                            x       y       z     vdW  Elec       q    Type
REMARK                         _______ _______ _______ _____ _____    ______ ____
ROOT
ATOM      1  C   UNL     1       7.938   7.891  18.227  0.00  0.00    +0.000 C 
ENDROOT
BRANCH   1   4
ATOM      2  O   UNL     1       9.286   9.737  19.891  0.00  0.00    +0.000 OA
ATOM      3  C   UNL     1       9.059  10.039  18.726  0.00  0.00    +0.000 C 
ATOM      4  N   UNL     1       8.402   9.211  17.836  0.00  0.00    +0.000 N 
ATOM      5  H   UNL     1       8.434   9.423  16.850  0.00  0.00    +0.000 HD
BRANCH   3   6
ATOM      6  C   UNL     1       9.531  11.338  18.177  0.00  0.00    +0.000 A 
ATOM      7  C   UNL     1       8.605  12.382  18.043  0.00  0.00    +0.000 A 
ATOM      8  C   UNL     1       9.012  13.623  17.544  0.00  0.00    +0.000 A 
ATOM      9  C   UNL     1      10.340  13.807  17.170  0.00  0.00    +0.000 A 
ATOM     10  C   UNL     1      11.263  12.772  17.275  0.00  0.00    +0.000 A 
ATOM     11  C   UNL     1      10.859  11.533  17.774  0.00  0.00    +0.000 A 
BRANCH   9  12
ATOM     12  O   UNL     1      10.784  15.000  16.684  0.00  0.00    +0.000 OA
ATOM     13  H   UNL     1      10.689  14.998  15.717  0.00  0.00    +0.000 HD
ENDBRANCH   9  12
ENDBRANCH   3   6
ENDBRANCH   1   4
BRANCH   1  14
ATOM     14  C   UNL     1       7.223   7.176  17.080  0.00  0.00    +0.000 C 
BRANCH  14  15
ATOM     15  C   UNL     1       6.133   6.267  17.582  0.00  0.00    +0.000 A 
ATOM     16  C   UNL     1       4.907   6.193  16.924  0.00  0.00    +0.000 A 
ATOM     17  C   UNL     1       3.885   5.366  17.410  0.00  0.00    +0.000 A 
ATOM     18  C   UNL     1       4.023   4.610  18.580  0.00  0.00    +0.000 A 
ATOM     19  C   UNL     1       5.278   4.681  19.211  0.00  0.00    +0.000 A 
ATOM     20  C   UNL     1       6.316   5.495  18.730  0.00  0.00    +0.000 A 
BRANCH  18  21
ATOM     21  N   UNL     1       3.006   3.823  19.095  0.00  0.00    +0.000 N 
ATOM     22  C   UNL     1       1.588   3.985  18.769  0.00  0.00    +0.000 C 
ATOM     23  C   UNL     1       0.892   3.920  20.121  0.00  0.00    +0.000 C 
ATOM     24  C   UNL     1       1.729   2.911  20.883  0.00  0.00    +0.000 C 
ATOM     25  C   UNL     1       3.156   3.206  20.421  0.00  0.00    +0.000 C 
ENDBRANCH  18  21
ENDBRANCH  14  15
ENDBRANCH   1  14
TORSDOF 6
ENDMDL
MODEL 4
REMARK VINA RESULT:      -7.5      4.213      6.617
REMARK  Name = 
REMARK  6 active torsions:
REMARK  status: ('A' for Active; 'I' for Inactive)
REMARK    1  A    between atoms: C_2  and  C_17
REMARK    2  A    between atoms: N_3  and  C_4
REMARK    3  A    between atoms: C_4  and  C_5
REMARK    4  A    between atoms: C_5  and  C_6
REMARK    5  A    between atoms: C_9  and  N_10
REMARK    6  A    between atoms: C_20  and  O_21
REMARK                            x       y       z     vdW  Elec       q    Type
REMARK                         _______ _______ _______ _____ _____    ______ ____
ROOT
ATOM      1  C   UNL     1       3.466   2.042  17.908  0.00  0.00    +0.000 C 
ENDROOT
BRANCH   1   4
ATOM      2  O   UNL     1       5.305   3.158  19.742  0.00  0.00    +0.000 OA
ATOM      3  C   UNL     1       5.126   3.713  18.665  0.00  0.00    +0.000 C 
ATOM      4  N   UNL     1       4.246   3.251  17.705  0.00  0.00    +0.000 N 
ATOM      5  H   UNL     1       4.299   3.623  16.768  0.00  0.00    +0.000 HD
BRANCH   3   6
ATOM      6  C   UNL     1       5.902   4.929  18.302  0.00  0.00    +0.000 A 
ATOM      7  C   UNL     1       5.430   5.736  17.257  0.00  0.00    +0.000 A 
ATOM      8  C   UNL     1       6.122   6.895  16.895  0.00  0.00    +0.000 A 
ATOM      9  C   UNL     1       7.290   7.232  17.574  0.00  0.00    +0.000 A 
ATOM     10  C   UNL     1       7.782   6.428  18.596  0.00  0.00    +0.000 A 
ATOM     11  C   UNL     1       7.092   5.271  18.959  0.00  0.00    +0.000 A 
BRANCH   9  12
ATOM     12  O   UNL     1       7.996   8.355  17.259  0.00  0.00    +0.000 OA
ATOM     13  H   UNL     1       7.685   8.690  16.402  0.00  0.00    +0.000 HD
ENDBRANCH   9  12
ENDBRANCH   3   6
ENDBRANCH   1   4
BRANCH   1  14
ATOM     14  C   UNL     1       2.068   2.349  18.444  0.00  0.00    +0.000 C 
BRANCH  14  15
ATOM     15  C   UNL     1       1.935   3.789  18.864  0.00  0.00    +0.000 A 
ATOM     16  C   UNL     1       1.944   4.811  17.918  0.00  0.00    +0.000 A 
ATOM     17  C   UNL     1       1.848   6.152  18.314  0.00  0.00    +0.000 A 
ATOM     18  C   UNL     1       1.775   6.535  19.659  0.00  0.00    +0.000 A 
ATOM     19  C   UNL     1       1.741   5.484  20.594  0.00  0.00    +0.000 A 
ATOM     20  C   UNL     1       1.824   4.135  20.212  0.00  0.00    +0.000 A 
BRANCH  18  21
ATOM     21  N   UNL     1       1.723   7.858  20.067  0.00  0.00    +0.000 N 
ATOM     22  C   UNL     1       1.234   8.303  21.372  0.00  0.00    +0.000 C 
ATOM     23  C   UNL     1       0.313   9.469  21.039  0.00  0.00    +0.000 C 
ATOM     24  C   UNL     1       1.002  10.115  19.852  0.00  0.00    +0.000 C 
ATOM     25  C   UNL     1       1.558   8.926  19.069  0.00  0.00    +0.000 C 
ENDBRANCH  18  21
ENDBRANCH  14  15
ENDBRANCH   1  14
TORSDOF 6
ENDMDL
MODEL 5
REMARK VINA RESULT:      -7.3      5.685      7.389
REMARK  Name = 
REMARK  6 active torsions:
REMARK  status: ('A' for Active; 'I' for Inactive)
REMARK    1  A    between atoms: C_2  and  C_17
REMARK    2  A    between atoms: N_3  and  C_4
REMARK    3  A    between atoms: C_4  and  C_5
REMARK    4  A    between atoms: C_5  and  C_6
REMARK    5  A    between atoms: C_9  and  N_10
REMARK    6  A    between atoms: C_20  and  O_21
REMARK                            x       y       z     vdW  Elec       q    Type
REMARK                         _______ _______ _______ _____ _____    ______ ____
ROOT
ATOM      1  C   UNL     1       3.475   2.127  19.262  0.00  0.00    +0.000 C 
ENDROOT
BRANCH   1   4
ATOM      2  O   UNL     1       5.569   4.026  19.301  0.00  0.00    +0.000 OA
ATOM      3  C   UNL     1       5.147   3.625  18.224  0.00  0.00    +0.000 C 
ATOM      4  N   UNL     1       4.124   2.705  18.098  0.00  0.00    +0.000 N 
ATOM      5  H   UNL     1       3.968   2.260  17.205  0.00  0.00    +0.000 HD
BRANCH   3   6
ATOM      6  C   UNL     1       5.760   4.091  16.951  0.00  0.00    +0.000 A 
ATOM      7  C   UNL     1       7.066   4.603  16.987  0.00  0.00    +0.000 A 
ATOM      8  C   UNL     1       7.683   5.038  15.811  0.00  0.00    +0.000 A 
ATOM      9  C   UNL     1       6.986   4.970  14.608  0.00  0.00    +0.000 A 
ATOM     10  C   UNL     1       5.682   4.487  14.563  0.00  0.00    +0.000 A 
ATOM     11  C   UNL     1       5.064   4.051  15.736  0.00  0.00    +0.000 A 
BRANCH   9  12
ATOM     12  O   UNL     1       7.548   5.377  13.436  0.00  0.00    +0.000 OA
ATOM     13  H   UNL     1       7.876   4.596  12.959  0.00  0.00    +0.000 HD
ENDBRANCH   9  12
ENDBRANCH   3   6
ENDBRANCH   1   4
BRANCH   1  14
ATOM     14  C   UNL     1       2.059   2.671  19.454  0.00  0.00    +0.000 C 
BRANCH  14  15
ATOM     15  C   UNL     1       2.035   4.177  19.445  0.00  0.00    +0.000 A 
ATOM     16  C   UNL     1       1.980   4.896  20.637  0.00  0.00    +0.000 A 
ATOM     17  C   UNL     1       1.931   6.297  20.624  0.00  0.00    +0.000 A 
ATOM     18  C   UNL     1       1.896   7.036  19.435  0.00  0.00    +0.000 A 
ATOM     19  C   UNL     1       1.979   6.289  18.247  0.00  0.00    +0.000 A 
ATOM     20  C   UNL     1       2.042   4.886  18.243  0.00  0.00    +0.000 A 
BRANCH  18  21
ATOM     21  N   UNL     1       1.803   8.418  19.408  0.00  0.00    +0.000 N 
ATOM     22  C   UNL     1       0.997   9.211  20.337  0.00  0.00    +0.000 C 
ATOM     23  C   UNL     1       0.266  10.197  19.437  0.00  0.00    +0.000 C 
ATOM     24  C   UNL     1       1.287  10.487  18.354  0.00  0.00    +0.000 C 
ATOM     25  C   UNL     1       1.974   9.139  18.138  0.00  0.00    +0.000 C 
ENDBRANCH  18  21
ENDBRANCH  14  15
ENDBRANCH   1  14
TORSDOF 6
ENDMDL
MODEL 6
REMARK VINA RESULT:      -7.3      1.046      1.196
REMARK  Name = 
REMARK  6 active torsions:
REMARK  status: ('A' for Active; 'I' for Inactive)
REMARK    1  A    between atoms: C_2  and  C_17
REMARK    2  A    between atoms: N_3  and  C_4
REMARK    3  A    between atoms: C_4  and  C_5
REMARK    4  A    between atoms: C_5  and  C_6
REMARK    5  A    between atoms: C_9  and  N_10
REMARK    6  A    between atoms: C_20  and  O_21
REMARK                            x       y       z     vdW  Elec       q    Type
REMARK                         _______ _______ _______ _____ _____    ______ ____
ROOT
ATOM      1  C   UNL     1       8.401   8.465  18.609  0.00  0.00    +0.000 C 
ENDROOT
BRANCH   1   4
ATOM      2  O   UNL     1       9.203  10.383  20.525  0.00  0.00    +0.000 OA
ATOM      3  C   UNL     1       9.464  10.574  19.344  0.00  0.00    +0.000 C 
ATOM      4  N   UNL     1       9.110   9.702  18.333  0.00  0.00    +0.000 N 
ATOM      5  H   UNL     1       9.532   9.806  17.422  0.00  0.00    +0.000 HD
BRANCH   3   6
ATOM      6  C   UNL     1      10.237  11.774  18.925  0.00  0.00    +0.000 A 
ATOM      7  C   UNL     1       9.986  12.322  17.659  0.00  0.00    +0.000 A 
ATOM      8  C   UNL     1      10.682  13.458  17.234  0.00  0.00    +0.000 A 
ATOM      9  C   UNL     1      11.634  14.029  18.074  0.00  0.00    +0.000 A 
ATOM     10  C   UNL     1      11.909  13.481  19.322  0.00  0.00    +0.000 A 
ATOM     11  C   UNL     1      11.215  12.348  19.748  0.00  0.00    +0.000 A 
BRANCH   9  12
ATOM     12  O   UNL     1      12.333  15.140  17.704  0.00  0.00    +0.000 OA
ATOM     13  H   UNL     1      13.271  15.002  17.915  0.00  0.00    +0.000 HD
ENDBRANCH   9  12
ENDBRANCH   3   6
ENDBRANCH   1   4
BRANCH   1  14
ATOM     14  C   UNL     1       7.691   7.925  17.367  0.00  0.00    +0.000 C 
BRANCH  14  15
ATOM     15  C   UNL     1       6.615   6.934  17.726  0.00  0.00    +0.000 A 
ATOM     16  C   UNL     1       6.819   5.996  18.735  0.00  0.00    +0.000 A 
ATOM     17  C   UNL     1       5.826   5.057  19.048  0.00  0.00    +0.000 A 
ATOM     18  C   UNL     1       4.612   4.988  18.354  0.00  0.00    +0.000 A 
ATOM     19  C   UNL     1       4.420   5.963  17.358  0.00  0.00    +0.000 A 
ATOM     20  C   UNL     1       5.400   6.917  17.041  0.00  0.00    +0.000 A 
BRANCH  18  21
ATOM     21  N   UNL     1       3.640   4.039  18.624  0.00  0.00    +0.000 N 
ATOM     22  C   UNL     1       3.754   2.619  18.287  0.00  0.00    +0.000 C 
ATOM     23  C   UNL     1       2.410   2.284  17.657  0.00  0.00    +0.000 C 
ATOM     24  C   UNL     1       1.443   3.145  18.447  0.00  0.00    +0.000 C 
ATOM     25  C   UNL     1       2.225   4.435  18.687  0.00  0.00    +0.000 C 
ENDBRANCH  18  21
ENDBRANCH  14  15
ENDBRANCH   1  14
TORSDOF 6
ENDMDL
MODEL 7
REMARK VINA RESULT:      -7.3      4.603      6.932
REMARK  Name = 
REMARK  6 active torsions:
REMARK  status: ('A' for Active; 'I' for Inactive)
REMARK    1  A    between atoms: C_2  and  C_17
REMARK    2  A    between atoms: N_3  and  C_4
REMARK    3  A    between atoms: C_4  and  C_5
REMARK    4  A    between atoms: C_5  and  C_6
REMARK    5  A    between atoms: C_9  and  N_10
REMARK    6  A    between atoms: C_20  and  O_21
REMARK                            x       y       z     vdW  Elec       q    Type
REMARK                         _______ _______ _______ _____ _____    ______ ____
ROOT
ATOM      1  C   UNL     1       3.224   1.649  18.367  0.00  0.00    +0.000 C 
ENDROOT
BRANCH   1   4
ATOM      2  O   UNL     1       5.198   2.922  19.942  0.00  0.00    +0.000 OA
ATOM      3  C   UNL     1       4.990   3.325  18.804  0.00  0.00    +0.000 C 
ATOM      4  N   UNL     1       4.044   2.776  17.960  0.00  0.00    +0.000 N 
ATOM      5  H   UNL     1       4.067   3.008  16.978  0.00  0.00    +0.000 HD
BRANCH   3   6
ATOM      6  C   UNL     1       5.798   4.437  18.237  0.00  0.00    +0.000 A 
ATOM      7  C   UNL     1       6.584   5.205  19.110  0.00  0.00    +0.000 A 
ATOM      8  C   UNL     1       7.369   6.250  18.615  0.00  0.00    +0.000 A 
ATOM      9  C   UNL     1       7.355   6.528  17.251  0.00  0.00    +0.000 A 
ATOM     10  C   UNL     1       6.562   5.790  16.378  0.00  0.00    +0.000 A 
ATOM     11  C   UNL     1       5.778   4.746  16.871  0.00  0.00    +0.000 A 
BRANCH   9  12
ATOM     12  O   UNL     1       8.108   7.533  16.722  0.00  0.00    +0.000 OA
ATOM     13  H   UNL     1       7.774   7.738  15.833  0.00  0.00    +0.000 HD
ENDBRANCH   9  12
ENDBRANCH   3   6
ENDBRANCH   1   4
BRANCH   1  14
ATOM     14  C   UNL     1       1.867   2.098  18.911  0.00  0.00    +0.000 C 
BRANCH  14  15
ATOM     15  C   UNL     1       1.819   3.587  19.128  0.00  0.00    +0.000 A 
ATOM     16  C   UNL     1       1.874   4.467  18.049  0.00  0.00    +0.000 A 
ATOM     17  C   UNL     1       1.856   5.853  18.257  0.00  0.00    +0.000 A 
ATOM     18  C   UNL     1       1.819   6.421  19.536  0.00  0.00    +0.000 A 
ATOM     19  C   UNL     1       1.737   5.513  20.607  0.00  0.00    +0.000 A 
ATOM     20  C   UNL     1       1.742   4.122  20.415  0.00  0.00    +0.000 A 
BRANCH  18  21
ATOM     21  N   UNL     1       1.844   7.788  19.756  0.00  0.00    +0.000 N 
ATOM     22  C   UNL     1       1.277   8.447  20.933  0.00  0.00    +0.000 C 
ATOM     23  C   UNL     1       0.495   9.619  20.355  0.00  0.00    +0.000 C 
ATOM     24  C   UNL     1       1.344  10.039  19.171  0.00  0.00    +0.000 C 
ATOM     25  C   UNL     1       1.865   8.714  18.614  0.00  0.00    +0.000 C 
ENDBRANCH  18  21
ENDBRANCH  14  15
ENDBRANCH   1  14
TORSDOF 6
ENDMDL
MODEL 8
REMARK VINA RESULT:      -7.3      4.020      6.432
REMARK  Name = 
REMARK  6 active torsions:
REMARK  status: ('A' for Active; 'I' for Inactive)
REMARK    1  A    between atoms: C_2  and  C_17
REMARK    2  A    between atoms: N_3  and  C_4
REMARK    3  A    between atoms: C_4  and  C_5
REMARK    4  A    between atoms: C_5  and  C_6
REMARK    5  A    between atoms: C_9  and  N_10
REMARK    6  A    between atoms: C_20  and  O_21
REMARK                            x       y       z     vdW  Elec       q    Type
REMARK                         _______ _______ _______ _____ _____    ______ ____
ROOT
ATOM      1  C   UNL     1       3.830   2.296  18.510  0.00  0.00    +0.000 C 
ENDROOT
BRANCH   1   4
ATOM      2  O   UNL     1       5.117   3.612  16.364  0.00  0.00    +0.000 OA
ATOM      3  C   UNL     1       5.333   3.986  17.510  0.00  0.00    +0.000 C 
ATOM      4  N   UNL     1       4.760   3.406  18.625  0.00  0.00    +0.000 N 
ATOM      5  H   UNL     1       4.808   3.887  19.511  0.00  0.00    +0.000 HD
BRANCH   3   6
ATOM      6  C   UNL     1       6.221   5.151  17.769  0.00  0.00    +0.000 A 
ATOM      7  C   UNL     1       6.064   6.299  16.979  0.00  0.00    +0.000 A 
ATOM      8  C   UNL     1       6.869   7.421  17.200  0.00  0.00    +0.000 A 
ATOM      9  C   UNL     1       7.835   7.381  18.202  0.00  0.00    +0.000 A 
ATOM     10  C   UNL     1       8.017   6.240  18.976  0.00  0.00    +0.000 A 
ATOM     11  C   UNL     1       7.213   5.120  18.758  0.00  0.00    +0.000 A 
BRANCH   9  12
ATOM     12  O   UNL     1       8.639   8.451  18.457  0.00  0.00    +0.000 OA
ATOM     13  H   UNL     1       8.086   9.195  18.750  0.00  0.00    +0.000 HD
ENDBRANCH   9  12
ENDBRANCH   3   6
ENDBRANCH   1   4
BRANCH   1  14
ATOM     14  C   UNL     1       2.379   2.773  18.435  0.00  0.00    +0.000 C 
BRANCH  14  15
ATOM     15  C   UNL     1       2.235   4.196  18.906  0.00  0.00    +0.000 A 
ATOM     16  C   UNL     1       2.042   4.483  20.256  0.00  0.00    +0.000 A 
ATOM     17  C   UNL     1       1.881   5.807  20.688  0.00  0.00    +0.000 A 
ATOM     18  C   UNL     1       1.869   6.890  19.802  0.00  0.00    +0.000 A 
ATOM     19  C   UNL     1       2.092   6.577  18.449  0.00  0.00    +0.000 A 
ATOM     20  C   UNL     1       2.267   5.258  18.002  0.00  0.00    +0.000 A 
BRANCH  18  21
ATOM     21  N   UNL     1       1.668   8.198  20.211  0.00  0.00    +0.000 N 
ATOM     22  C   UNL     1       1.237   8.588  21.554  0.00  0.00    +0.000 C 
ATOM     23  C   UNL     1       0.136   9.609  21.304  0.00  0.00    +0.000 C 
ATOM     24  C   UNL     1       0.621  10.329  20.060  0.00  0.00    +0.000 C 
ATOM     25  C   UNL     1       1.266   9.219  19.231  0.00  0.00    +0.000 C 
ENDBRANCH  18  21
ENDBRANCH  14  15
ENDBRANCH   1  14
TORSDOF 6
ENDMDL
MODEL 9
REMARK VINA RESULT:      -7.2      6.994      9.275
REMARK  Name = 
REMARK  6 active torsions:
REMARK  status: ('A' for Active; 'I' for Inactive)
REMARK    1  A    between atoms: C_2  and  C_17
REMARK    2  A    between atoms: N_3  and  C_4
REMARK    3  A    between atoms: C_4  and  C_5
REMARK    4  A    between atoms: C_5  and  C_6
REMARK    5  A    between atoms: C_9  and  N_10
REMARK    6  A    between atoms: C_20  and  O_21
REMARK                            x       y       z     vdW  Elec       q    Type
REMARK                         _______ _______ _______ _____ _____    ______ ____
ROOT
ATOM      1  C   UNL     1       1.282  10.665  18.671  0.00  0.00    +0.000 C 
ENDROOT
BRANCH   1   4
ATOM      2  O   UNL     1      -1.005  11.067  20.285  0.00  0.00    +0.000 OA
ATOM      3  C   UNL     1      -1.132  11.030  19.067  0.00  0.00    +0.000 C 
ATOM      4  N   UNL     1      -0.080  10.832  18.194  0.00  0.00    +0.000 N 
ATOM      5  H   UNL     1      -0.212  11.023  17.212  0.00  0.00    +0.000 HD
BRANCH   3   6
ATOM      6  C   UNL     1      -2.464  11.244  18.440  0.00  0.00    +0.000 A 
ATOM      7  C   UNL     1      -3.469  11.860  19.199  0.00  0.00    +0.000 A 
ATOM      8  C   UNL     1      -4.730  12.092  18.642  0.00  0.00    +0.000 A 
ATOM      9  C   UNL     1      -4.980  11.696  17.331  0.00  0.00    +0.000 A 
ATOM     10  C   UNL     1      -3.999  11.063  16.575  0.00  0.00    +0.000 A 
ATOM     11  C   UNL     1      -2.740  10.831  17.130  0.00  0.00    +0.000 A 
BRANCH   9  12
ATOM     12  O   UNL     1      -6.192  11.906  16.744  0.00  0.00    +0.000 OA
ATOM     13  H   UNL     1      -6.807  12.252  17.412  0.00  0.00    +0.000 HD
ENDBRANCH   9  12
ENDBRANCH   3   6
ENDBRANCH   1   4
BRANCH   1  14
ATOM     14  C   UNL     1       2.090   9.728  17.773  0.00  0.00    +0.000 C 
BRANCH  14  15
ATOM     15  C   UNL     1       2.199   8.347  18.362  0.00  0.00    +0.000 A 
ATOM     16  C   UNL     1       1.800   8.098  19.673  0.00  0.00    +0.000 A 
ATOM     17  C   UNL     1       1.928   6.817  20.228  0.00  0.00    +0.000 A 
ATOM     18  C   UNL     1       2.488   5.746  19.521  0.00  0.00    +0.000 A 
ATOM     19  C   UNL     1       2.859   6.016  18.192  0.00  0.00    +0.000 A 
ATOM     20  C   UNL     1       2.725   7.290  17.618  0.00  0.00    +0.000 A 
BRANCH  18  21
ATOM     21  N   UNL     1       2.660   4.486  20.072  0.00  0.00    +0.000 N 
ATOM     22  C   UNL     1       2.779   3.252  19.293  0.00  0.00    +0.000 C 
ATOM     23  C   UNL     1       1.847   2.281  20.004  0.00  0.00    +0.000 C 
ATOM     24  C   UNL     1       2.000   2.672  21.462  0.00  0.00    +0.000 C 
ATOM     25  C   UNL     1       2.132   4.194  21.413  0.00  0.00    +0.000 C 
ENDBRANCH  18  21
ENDBRANCH  14  15
ENDBRANCH   1  14
TORSDOF 6
ENDMDL
