MODEL 1
REMARK VINA RESULT:      -7.1      0.000      0.000
REMARK  Name = 
REMARK  6 active torsions:
REMARK  status: ('A' for Active; 'I' for Inactive)
REMARK    1  A    between atoms: C_1  and  C_2
REMARK    2  A    between atoms: C_2  and  O_3
REMARK    3  A    between atoms: C_2  and  C_12
REMARK    4  A    between atoms: O_3  and  C_4
REMARK    5  A    between atoms: C_4  and  C_6
REMARK    6  A    between atoms: N_14  and  C_15
REMARK                            x       y       z     vdW  Elec       q    Type
REMARK                         _______ _______ _______ _____ _____    ______ ____
ROOT
ATOM      1  C   UNL     1       2.861   2.980  20.543  0.00  0.00    +0.000 C 
ATOM      2  C   UNL     1       3.659   4.185  20.041  0.00  0.00    +0.000 C 
ENDROOT
BRANCH   2   3
ATOM      3  C   UNL     1       2.665   5.232  19.503  0.00  0.00    +0.000 C 
ATOM      4  O   UNL     1       1.682   4.877  18.854  0.00  0.00    +0.000 OA
ATOM      5  N   UNL     1       2.959   6.546  19.841  0.00  0.00    +0.000 N 
ATOM      6  H   UNL     1       3.888   6.714  20.211  0.00  0.00    +0.000 HD
BRANCH   5   7
ATOM      7  C   UNL     1       2.167   7.671  19.503  0.00  0.00    +0.000 A 
ATOM      8  C   UNL     1       2.130   8.208  18.210  0.00  0.00    +0.000 A 
ATOM      9  C   UNL     1       1.385   9.353  17.923  0.00  0.00    +0.000 A 
ATOM     10  C   UNL     1       0.655   9.975  18.929  0.00  0.00    +0.000 A 
ATOM     11  C   UNL     1       0.657   9.429  20.211  0.00  0.00    +0.000 A 
ATOM     12 CL   UNL     1      -0.247  10.203  21.455  0.00  0.00    +0.000 Cl
ATOM     13  C   UNL     1       1.395   8.275  20.501  0.00  0.00    +0.000 A 
ENDBRANCH   5   7
ENDBRANCH   2   3
BRANCH   2  14
ATOM     14  O   UNL     1       4.598   3.767  19.039  0.00  0.00    +0.000 OA
BRANCH  14  15
ATOM     15  C   UNL     1       5.675   4.582  18.897  0.00  0.00    +0.000 C 
ATOM     16  O   UNL     1       6.390   4.994  19.797  0.00  0.00    +0.000 OA
BRANCH  15  17
ATOM     17  C   UNL     1       5.897   4.922  17.468  0.00  0.00    +0.000 A 
ATOM     18  C   UNL     1       7.080   4.497  16.857  0.00  0.00    +0.000 A 
ATOM     19  C   UNL     1       7.278   4.822  15.528  0.00  0.00    +0.000 A 
ATOM     20  N   UNL     1       6.392   5.526  14.791  0.00  0.00    +0.000 NA
ATOM     21  C   UNL     1       5.255   5.918  15.403  0.00  0.00    +0.000 A 
ATOM     22  C   UNL     1       4.961   5.642  16.725  0.00  0.00    +0.000 A 
ENDBRANCH  15  17
ENDBRANCH  14  15
ENDBRANCH   2  14
TORSDOF 5
ENDMDL
MODEL 2
REMARK VINA RESULT:      -7.1      4.021      6.953
REMARK  Name = 
REMARK  6 active torsions:
REMARK  status: ('A' for Active; 'I' for Inactive)
REMARK    1  A    between atoms: C_1  and  C_2
REMARK    2  A    between atoms: C_2  and  O_3
REMARK    3  A    between atoms: C_2  and  C_12
REMARK    4  A    between atoms: O_3  and  C_4
REMARK    5  A    between atoms: C_4  and  C_6
REMARK    6  A    between atoms: N_14  and  C_15
REMARK                            x       y       z     vdW  Elec       q    Type
REMARK                         _______ _______ _______ _____ _____    ______ ____
ROOT
ATOM      1  C   UNL     1       7.264   7.465  17.626  0.00  0.00    +0.000 C 
ATOM      2  C   UNL     1       6.912   5.999  17.890  0.00  0.00    +0.000 C 
ENDROOT
BRANCH   2   3
ATOM      3  C   UNL     1       7.234   5.190  16.619  0.00  0.00    +0.000 C 
ATOM      4  O   UNL     1       7.993   4.223  16.675  0.00  0.00    +0.000 OA
ATOM      5  N   UNL     1       6.581   5.621  15.471  0.00  0.00    +0.000 N 
ATOM      6  H   UNL     1       6.140   6.531  15.524  0.00  0.00    +0.000 HD
BRANCH   5   7
ATOM      7  C   UNL     1       6.680   5.006  14.199  0.00  0.00    +0.000 A 
ATOM      8  C   UNL     1       7.807   5.143  13.379  0.00  0.00    +0.000 A 
ATOM      9  C   UNL     1       7.849   4.572  12.105  0.00  0.00    +0.000 A 
ATOM     10  C   UNL     1       6.763   3.845  11.635  0.00  0.00    +0.000 A 
ATOM     11  C   UNL     1       5.650   3.672  12.457  0.00  0.00    +0.000 A 
ATOM     12 CL   UNL     1       4.304   2.771  11.872  0.00  0.00    +0.000 Cl
ATOM     13  C   UNL     1       5.607   4.234  13.739  0.00  0.00    +0.000 A 
ENDBRANCH   5   7
ENDBRANCH   2   3
BRANCH   2  14
ATOM     14  O   UNL     1       5.531   5.888  18.266  0.00  0.00    +0.000 OA
BRANCH  14  15
ATOM     15  C   UNL     1       5.190   4.696  18.821  0.00  0.00    +0.000 C 
ATOM     16  O   UNL     1       5.873   4.039  19.590  0.00  0.00    +0.000 OA
BRANCH  15  17
ATOM     17  C   UNL     1       3.839   4.272  18.373  0.00  0.00    +0.000 A 
ATOM     18  C   UNL     1       3.614   2.916  18.121  0.00  0.00    +0.000 A 
ATOM     19  C   UNL     1       2.354   2.533  17.701  0.00  0.00    +0.000 A 
ATOM     20  N   UNL     1       1.332   3.396  17.521  0.00  0.00    +0.000 NA
ATOM     21  C   UNL     1       1.573   4.699  17.779  0.00  0.00    +0.000 A 
ATOM     22  C   UNL     1       2.796   5.183  18.205  0.00  0.00    +0.000 A 
ENDBRANCH  15  17
ENDBRANCH  14  15
ENDBRANCH   2  14
TORSDOF 5
ENDMDL
MODEL 3
REMARK VINA RESULT:      -6.9      3.940      7.342
REMARK  Name = 
REMARK  6 active torsions:
REMARK  status: ('A' for Active; 'I' for Inactive)
REMARK    1  A    between atoms: C_1  and  C_2
REMARK    2  A    between atoms: C_2  and  O_3
REMARK    3  A    between atoms: C_2  and  C_12
REMARK    4  A    between atoms: O_3  and  C_4
REMARK    5  A    between atoms: C_4  and  C_6
REMARK    6  A    between atoms: N_14  and  C_15
REMARK                            x       y       z     vdW  Elec       q    Type
REMARK                         _______ _______ _______ _____ _____    ______ ____
ROOT
ATOM      1  C   UNL     1       3.577   6.763  17.871  0.00  0.00    +0.000 C 
ATOM      2  C   UNL     1       4.900   6.011  17.711  0.00  0.00    +0.000 C 
ENDROOT
BRANCH   2   3
ATOM      3  C   UNL     1       5.255   5.973  16.212  0.00  0.00    +0.000 C 
ATOM      4  O   UNL     1       4.958   6.917  15.481  0.00  0.00    +0.000 OA
ATOM      5  N   UNL     1       5.942   4.838  15.803  0.00  0.00    +0.000 N 
ATOM      6  H   UNL     1       5.954   4.064  16.457  0.00  0.00    +0.000 HD
BRANCH   5   7
ATOM      7  C   UNL     1       6.416   4.602  14.489  0.00  0.00    +0.000 A 
ATOM      8  C   UNL     1       7.475   5.327  13.926  0.00  0.00    +0.000 A 
ATOM      9  C   UNL     1       7.880   5.111  12.607  0.00  0.00    +0.000 A 
ATOM     10  C   UNL     1       7.234   4.155  11.833  0.00  0.00    +0.000 A 
ATOM     11  C   UNL     1       6.204   3.403  12.394  0.00  0.00    +0.000 A 
ATOM     12 CL   UNL     1       5.405   2.220  11.431  0.00  0.00    +0.000 Cl
ATOM     13  C   UNL     1       5.800   3.610  13.719  0.00  0.00    +0.000 A 
ENDBRANCH   5   7
ENDBRANCH   2   3
BRANCH   2  14
ATOM     14  O   UNL     1       4.784   4.694  18.271  0.00  0.00    +0.000 OA
BRANCH  14  15
ATOM     15  C   UNL     1       3.654   4.027  17.923  0.00  0.00    +0.000 C 
ATOM     16  O   UNL     1       3.308   3.741  16.787  0.00  0.00    +0.000 OA
BRANCH  15  17
ATOM     17  C   UNL     1       2.860   3.666  19.126  0.00  0.00    +0.000 A 
ATOM     18  C   UNL     1       1.516   4.044  19.176  0.00  0.00    +0.000 A 
ATOM     19  C   UNL     1       0.788   3.707  20.302  0.00  0.00    +0.000 A 
ATOM     20  N   UNL     1       1.306   3.034  21.352  0.00  0.00    +0.000 NA
ATOM     21  C   UNL     1       2.604   2.674  21.275  0.00  0.00    +0.000 A 
ATOM     22  C   UNL     1       3.416   2.961  20.193  0.00  0.00    +0.000 A 
ENDBRANCH  15  17
ENDBRANCH  14  15
ENDBRANCH   2  14
TORSDOF 5
ENDMDL
MODEL 4
REMARK VINA RESULT:      -6.9      3.178      4.506
REMARK  Name = 
REMARK  6 active torsions:
REMARK  status: ('A' for Active; 'I' for Inactive)
REMARK    1  A    between atoms: C_1  and  C_2
REMARK    2  A    between atoms: C_2  and  O_3
REMARK    3  A    between atoms: C_2  and  C_12
REMARK    4  A    between atoms: O_3  and  C_4
REMARK    5  A    between atoms: C_4  and  C_6
REMARK    6  A    between atoms: N_14  and  C_15
REMARK                            x       y       z     vdW  Elec       q    Type
REMARK                         _______ _______ _______ _____ _____    ______ ____
ROOT
ATOM      1  C   UNL     1       8.049   5.747  18.776  0.00  0.00    +0.000 C 
ATOM      2  C   UNL     1       6.786   5.851  17.918  0.00  0.00    +0.000 C 
ENDROOT
BRANCH   2   3
ATOM      3  C   UNL     1       5.651   5.099  18.639  0.00  0.00    +0.000 C 
ATOM      4  O   UNL     1       5.898   4.095  19.306  0.00  0.00    +0.000 OA
ATOM      5  N   UNL     1       4.392   5.666  18.495  0.00  0.00    +0.000 N 
ATOM      6  H   UNL     1       4.300   6.372  17.774  0.00  0.00    +0.000 HD
BRANCH   5   7
ATOM      7  C   UNL     1       3.207   5.184  19.104  0.00  0.00    +0.000 A 
ATOM      8  C   UNL     1       2.626   5.799  20.220  0.00  0.00    +0.000 A 
ATOM      9  C   UNL     1       1.491   5.264  20.833  0.00  0.00    +0.000 A 
ATOM     10  C   UNL     1       0.912   4.106  20.329  0.00  0.00    +0.000 A 
ATOM     11  C   UNL     1       1.461   3.506  19.197  0.00  0.00    +0.000 A 
ATOM     12 CL   UNL     1       0.742   2.070  18.575  0.00  0.00    +0.000 Cl
ATOM     13  C   UNL     1       2.593   4.043  18.574  0.00  0.00    +0.000 A 
ENDBRANCH   5   7
ENDBRANCH   2   3
BRANCH   2  14
ATOM     14  O   UNL     1       7.039   5.318  16.609  0.00  0.00    +0.000 OA
BRANCH  14  15
ATOM     15  C   UNL     1       6.178   5.743  15.649  0.00  0.00    +0.000 C 
ATOM     16  O   UNL     1       5.326   6.608  15.778  0.00  0.00    +0.000 OA
BRANCH  15  17
ATOM     17  C   UNL     1       6.403   5.013  14.375  0.00  0.00    +0.000 A 
ATOM     18  C   UNL     1       5.457   4.067  13.971  0.00  0.00    +0.000 A 
ATOM     19  C   UNL     1       5.679   3.390  12.786  0.00  0.00    +0.000 A 
ATOM     20  N   UNL     1       6.759   3.594  12.001  0.00  0.00    +0.000 NA
ATOM     21  C   UNL     1       7.654   4.517  12.410  0.00  0.00    +0.000 A 
ATOM     22  C   UNL     1       7.523   5.248  13.576  0.00  0.00    +0.000 A 
ENDBRANCH  15  17
ENDBRANCH  14  15
ENDBRANCH   2  14
TORSDOF 5
ENDMDL
MODEL 5
REMARK VINA RESULT:      -6.9      3.993      7.266
REMARK  Name = 
REMARK  6 active torsions:
REMARK  status: ('A' for Active; 'I' for Inactive)
REMARK    1  A    between atoms: C_1  and  C_2
REMARK    2  A    between atoms: C_2  and  O_3
REMARK    3  A    between atoms: C_2  and  C_12
REMARK    4  A    between atoms: O_3  and  C_4
REMARK    5  A    between atoms: C_4  and  C_6
REMARK    6  A    between atoms: N_14  and  C_15
REMARK                            x       y       z     vdW  Elec       q    Type
REMARK                         _______ _______ _______ _____ _____    ______ ____
ROOT
ATOM      1  C   UNL     1       6.805   5.761  19.117  0.00  0.00    +0.000 C 
ATOM      2  C   UNL     1       6.489   4.402  18.488  0.00  0.00    +0.000 C 
ENDROOT
BRANCH   2   3
ATOM      3  C   UNL     1       7.111   4.367  17.078  0.00  0.00    +0.000 C 
ATOM      4  O   UNL     1       8.325   4.217  16.940  0.00  0.00    +0.000 OA
ATOM      5  N   UNL     1       6.202   4.479  16.035  0.00  0.00    +0.000 N 
ATOM      6  H   UNL     1       5.270   4.785  16.287  0.00  0.00    +0.000 HD
BRANCH   5   7
ATOM      7  C   UNL     1       6.532   4.424  14.658  0.00  0.00    +0.000 A 
ATOM      8  C   UNL     1       7.501   5.253  14.079  0.00  0.00    +0.000 A 
ATOM      9  C   UNL     1       7.760   5.214  12.708  0.00  0.00    +0.000 A 
ATOM     10  C   UNL     1       7.057   4.335  11.894  0.00  0.00    +0.000 A 
ATOM     11  C   UNL     1       6.116   3.480  12.465  0.00  0.00    +0.000 A 
ATOM     12 CL   UNL     1       5.245   2.392  11.454  0.00  0.00    +0.000 Cl
ATOM     13  C   UNL     1       5.859   3.508  13.841  0.00  0.00    +0.000 A 
ENDBRANCH   5   7
ENDBRANCH   2   3
BRANCH   2  14
ATOM     14  O   UNL     1       5.068   4.197  18.455  0.00  0.00    +0.000 OA
BRANCH  14  15
ATOM     15  C   UNL     1       4.595   3.358  19.413  0.00  0.00    +0.000 C 
ATOM     16  O   UNL     1       5.199   2.420  19.910  0.00  0.00    +0.000 OA
BRANCH  15  17
ATOM     17  C   UNL     1       3.212   3.731  19.806  0.00  0.00    +0.000 A 
ATOM     18  C   UNL     1       2.236   2.731  19.838  0.00  0.00    +0.000 A 
ATOM     19  C   UNL     1       0.951   3.090  20.200  0.00  0.00    +0.000 A 
ATOM     20  N   UNL     1       0.590   4.350  20.525  0.00  0.00    +0.000 NA
ATOM     21  C   UNL     1       1.554   5.295  20.494  0.00  0.00    +0.000 A 
ATOM     22  C   UNL     1       2.867   5.039  20.146  0.00  0.00    +0.000 A 
ENDBRANCH  15  17
ENDBRANCH  14  15
ENDBRANCH   2  14
TORSDOF 5
ENDMDL
MODEL 6
REMARK VINA RESULT:      -6.8      2.055      2.332
REMARK  Name = 
REMARK  6 active torsions:
REMARK  status: ('A' for Active; 'I' for Inactive)
REMARK    1  A    between atoms: C_1  and  C_2
REMARK    2  A    between atoms: C_2  and  O_3
REMARK    3  A    between atoms: C_2  and  C_12
REMARK    4  A    between atoms: O_3  and  C_4
REMARK    5  A    between atoms: C_4  and  C_6
REMARK    6  A    between atoms: N_14  and  C_15
REMARK                            x       y       z     vdW  Elec       q    Type
REMARK                         _______ _______ _______ _____ _____    ______ ____
ROOT
ATOM      1  C   UNL     1       3.471   2.940  17.824  0.00  0.00    +0.000 C 
ATOM      2  C   UNL     1       3.989   4.366  17.625  0.00  0.00    +0.000 C 
ENDROOT
BRANCH   2   3
ATOM      3  C   UNL     1       2.838   5.344  17.928  0.00  0.00    +0.000 C 
ATOM      4  O   UNL     1       1.669   4.969  17.850  0.00  0.00    +0.000 OA
ATOM      5  N   UNL     1       3.240   6.616  18.314  0.00  0.00    +0.000 N 
ATOM      6  H   UNL     1       4.214   6.845  18.154  0.00  0.00    +0.000 HD
BRANCH   5   7
ATOM      7  C   UNL     1       2.366   7.667  18.689  0.00  0.00    +0.000 A 
ATOM      8  C   UNL     1       1.928   8.644  17.786  0.00  0.00    +0.000 A 
ATOM      9  C   UNL     1       1.115   9.701  18.201  0.00  0.00    +0.000 A 
ATOM     10  C   UNL     1       0.718   9.789  19.529  0.00  0.00    +0.000 A 
ATOM     11  C   UNL     1       1.119   8.802  20.428  0.00  0.00    +0.000 A 
ATOM     12 CL   UNL     1       0.627   8.915  22.075  0.00  0.00    +0.000 Cl
ATOM     13  C   UNL     1       1.927   7.736  20.015  0.00  0.00    +0.000 A 
ENDBRANCH   5   7
ENDBRANCH   2   3
BRANCH   2  14
ATOM     14  O   UNL     1       4.491   4.521  16.289  0.00  0.00    +0.000 OA
BRANCH  14  15
ATOM     15  C   UNL     1       5.827   4.310  16.157  0.00  0.00    +0.000 C 
ATOM     16  O   UNL     1       6.357   3.487  15.428  0.00  0.00    +0.000 OA
BRANCH  15  17
ATOM     17  C   UNL     1       6.597   5.234  17.028  0.00  0.00    +0.000 A 
ATOM     18  C   UNL     1       7.221   4.715  18.166  0.00  0.00    +0.000 A 
ATOM     19  C   UNL     1       7.931   5.585  18.972  0.00  0.00    +0.000 A 
ATOM     20  N   UNL     1       8.053   6.906  18.719  0.00  0.00    +0.000 NA
ATOM     21  C   UNL     1       7.447   7.381  17.611  0.00  0.00    +0.000 A 
ATOM     22  C   UNL     1       6.716   6.594  16.740  0.00  0.00    +0.000 A 
ENDBRANCH  15  17
ENDBRANCH  14  15
ENDBRANCH   2  14
TORSDOF 5
ENDMDL
MODEL 7
REMARK VINA RESULT:      -6.8      3.984      7.253
REMARK  Name = 
REMARK  6 active torsions:
REMARK  status: ('A' for Active; 'I' for Inactive)
REMARK    1  A    between atoms: C_1  and  C_2
REMARK    2  A    between atoms: C_2  and  O_3
REMARK    3  A    between atoms: C_2  and  C_12
REMARK    4  A    between atoms: O_3  and  C_4
REMARK    5  A    between atoms: C_4  and  C_6
REMARK    6  A    between atoms: N_14  and  C_15
REMARK                            x       y       z     vdW  Elec       q    Type
REMARK                         _______ _______ _______ _____ _____    ______ ____
ROOT
ATOM      1  C   UNL     1       3.717   6.402  18.235  0.00  0.00    +0.000 C 
ATOM      2  C   UNL     1       4.991   5.603  17.952  0.00  0.00    +0.000 C 
ENDROOT
BRANCH   2   3
ATOM      3  C   UNL     1       5.290   5.691  16.443  0.00  0.00    +0.000 C 
ATOM      4  O   UNL     1       4.937   6.678  15.797  0.00  0.00    +0.000 OA
ATOM      5  N   UNL     1       5.995   4.614  15.923  0.00  0.00    +0.000 N 
ATOM      6  H   UNL     1       6.055   3.793  16.514  0.00  0.00    +0.000 HD
BRANCH   5   7
ATOM      7  C   UNL     1       6.426   4.495  14.579  0.00  0.00    +0.000 A 
ATOM      8  C   UNL     1       7.437   5.297  14.035  0.00  0.00    +0.000 A 
ATOM      9  C   UNL     1       7.797   5.195  12.690  0.00  0.00    +0.000 A 
ATOM     10  C   UNL     1       7.154   4.278  11.868  0.00  0.00    +0.000 A 
ATOM     11  C   UNL     1       6.172   3.449  12.407  0.00  0.00    +0.000 A 
ATOM     12 CL   UNL     1       5.376   2.314  11.386  0.00  0.00    +0.000 Cl
ATOM     13  C   UNL     1       5.813   3.542  13.758  0.00  0.00    +0.000 A 
ENDBRANCH   5   7
ENDBRANCH   2   3
BRANCH   2  14
ATOM     14  O   UNL     1       4.826   4.246  18.391  0.00  0.00    +0.000 OA
BRANCH  14  15
ATOM     15  C   UNL     1       3.653   3.670  18.020  0.00  0.00    +0.000 C 
ATOM     16  O   UNL     1       3.317   3.391  16.880  0.00  0.00    +0.000 OA
BRANCH  15  17
ATOM     17  C   UNL     1       2.798   3.401  19.204  0.00  0.00    +0.000 A 
ATOM     18  C   UNL     1       3.395   2.876  20.353  0.00  0.00    +0.000 A 
ATOM     19  C   UNL     1       2.589   2.625  21.448  0.00  0.00    +0.000 A 
ATOM     20  N   UNL     1       1.260   2.860  21.466  0.00  0.00    +0.000 NA
ATOM     21  C   UNL     1       0.709   3.375  20.347  0.00  0.00    +0.000 A 
ATOM     22  C   UNL     1       1.427   3.662  19.201  0.00  0.00    +0.000 A 
ENDBRANCH  15  17
ENDBRANCH  14  15
ENDBRANCH   2  14
TORSDOF 5
ENDMDL
MODEL 8
REMARK VINA RESULT:      -6.7      3.987      7.172
REMARK  Name = 
REMARK  6 active torsions:
REMARK  status: ('A' for Active; 'I' for Inactive)
REMARK    1  A    between atoms: C_1  and  C_2
REMARK    2  A    between atoms: C_2  and  O_3
REMARK    3  A    between atoms: C_2  and  C_12
REMARK    4  A    between atoms: O_3  and  C_4
REMARK    5  A    between atoms: C_4  and  C_6
REMARK    6  A    between atoms: N_14  and  C_15
REMARK                            x       y       z     vdW  Elec       q    Type
REMARK                         _______ _______ _______ _____ _____    ______ ____
ROOT
ATOM      1  C   UNL     1       3.895   6.904  17.900  0.00  0.00    +0.000 C 
ATOM      2  C   UNL     1       3.877   5.375  17.945  0.00  0.00    +0.000 C 
ENDROOT
BRANCH   2   3
ATOM      3  C   UNL     1       4.975   4.851  16.998  0.00  0.00    +0.000 C 
ATOM      4  O   UNL     1       5.868   4.123  17.428  0.00  0.00    +0.000 OA
ATOM      5  N   UNL     1       4.835   5.238  15.672  0.00  0.00    +0.000 N 
ATOM      6  H   UNL     1       4.174   5.983  15.492  0.00  0.00    +0.000 HD
BRANCH   5   7
ATOM      7  C   UNL     1       5.691   4.841  14.614  0.00  0.00    +0.000 A 
ATOM      8  C   UNL     1       6.947   5.422  14.400  0.00  0.00    +0.000 A 
ATOM      9  C   UNL     1       7.741   5.050  13.313  0.00  0.00    +0.000 A 
ATOM     10  C   UNL     1       7.290   4.080  12.427  0.00  0.00    +0.000 A 
ATOM     11  C   UNL     1       6.057   3.470  12.651  0.00  0.00    +0.000 A 
ATOM     12 CL   UNL     1       5.501   2.269  11.549  0.00  0.00    +0.000 Cl
ATOM     13  C   UNL     1       5.262   3.833  13.744  0.00  0.00    +0.000 A 
ENDBRANCH   5   7
ENDBRANCH   2   3
BRANCH   2  14
ATOM     14  O   UNL     1       2.576   4.890  17.582  0.00  0.00    +0.000 OA
BRANCH  14  15
ATOM     15  C   UNL     1       2.383   3.563  17.803  0.00  0.00    +0.000 C 
ATOM     16  O   UNL     1       2.236   2.705  16.947  0.00  0.00    +0.000 OA
BRANCH  15  17
ATOM     17  C   UNL     1       2.381   3.264  19.258  0.00  0.00    +0.000 A 
ATOM     18  C   UNL     1       3.497   2.631  19.811  0.00  0.00    +0.000 A 
ATOM     19  C   UNL     1       3.482   2.353  21.165  0.00  0.00    +0.000 A 
ATOM     20  N   UNL     1       2.450   2.661  21.979  0.00  0.00    +0.000 NA
ATOM     21  C   UNL     1       1.387   3.279  21.422  0.00  0.00    +0.000 A 
ATOM     22  C   UNL     1       1.305   3.602  20.080  0.00  0.00    +0.000 A 
ENDBRANCH  15  17
ENDBRANCH  14  15
ENDBRANCH   2  14
TORSDOF 5
ENDMDL
MODEL 9
REMARK VINA RESULT:      -6.7      1.470      1.791
REMARK  Name = 
REMARK  6 active torsions:
REMARK  status: ('A' for Active; 'I' for Inactive)
REMARK    1  A    between atoms: C_1  and  C_2
REMARK    2  A    between atoms: C_2  and  O_3
REMARK    3  A    between atoms: C_2  and  C_12
REMARK    4  A    between atoms: O_3  and  C_4
REMARK    5  A    between atoms: C_4  and  C_6
REMARK    6  A    between atoms: N_14  and  C_15
REMARK                            x       y       z     vdW  Elec       q    Type
REMARK                         _______ _______ _______ _____ _____    ______ ____
ROOT
ATOM      1  C   UNL     1       1.677   4.181  20.566  0.00  0.00    +0.000 C 
ATOM      2  C   UNL     1       2.893   4.969  20.074  0.00  0.00    +0.000 C 
ENDROOT
BRANCH   2   3
ATOM      3  C   UNL     1       2.450   6.419  19.799  0.00  0.00    +0.000 C 
ATOM      4  O   UNL     1       2.749   6.968  18.739  0.00  0.00    +0.000 OA
ATOM      5  N   UNL     1       1.685   6.997  20.803  0.00  0.00    +0.000 N 
ATOM      6  H   UNL     1       1.673   6.510  21.691  0.00  0.00    +0.000 HD
BRANCH   5   7
ATOM      7  C   UNL     1       1.124   8.297  20.753  0.00  0.00    +0.000 A 
ATOM      8  C   UNL     1       1.305   9.157  19.663  0.00  0.00    +0.000 A 
ATOM      9  C   UNL     1       0.788  10.454  19.670  0.00  0.00    +0.000 A 
ATOM     10  C   UNL     1       0.072  10.908  20.770  0.00  0.00    +0.000 A 
ATOM     11  C   UNL     1      -0.145  10.048  21.846  0.00  0.00    +0.000 A 
ATOM     12 CL   UNL     1      -1.032  10.614  23.209  0.00  0.00    +0.000 Cl
ATOM     13  C   UNL     1       0.364   8.744  21.839  0.00  0.00    +0.000 A 
ENDBRANCH   5   7
ENDBRANCH   2   3
BRANCH   2  14
ATOM     14  O   UNL     1       3.443   4.342  18.906  0.00  0.00    +0.000 OA
BRANCH  14  15
ATOM     15  C   UNL     1       4.737   3.946  19.031  0.00  0.00    +0.000 C 
ATOM     16  O   UNL     1       5.153   3.072  19.774  0.00  0.00    +0.000 OA
BRANCH  15  17
ATOM     17  C   UNL     1       5.617   4.723  18.122  0.00  0.00    +0.000 A 
ATOM     18  C   UNL     1       6.685   5.436  18.675  0.00  0.00    +0.000 A 
ATOM     19  C   UNL     1       7.496   6.159  17.820  0.00  0.00    +0.000 A 
ATOM     20  N   UNL     1       7.311   6.214  16.483  0.00  0.00    +0.000 NA
ATOM     21  C   UNL     1       6.278   5.511  15.974  0.00  0.00    +0.000 A 
ATOM     22  C   UNL     1       5.411   4.756  16.742  0.00  0.00    +0.000 A 
ENDBRANCH  15  17
ENDBRANCH  14  15
ENDBRANCH   2  14
TORSDOF 5
ENDMDL
