MODEL 1
REMARK VINA RESULT:     -10.0      0.000      0.000
REMARK  Name = 
REMARK  7 active torsions:
REMARK  status: ('A' for Active; 'I' for Inactive)
REMARK    1  A    between atoms: C_2  and  C_3
REMARK    2  A    between atoms: C_3  and  N_4
REMARK    3  A    between atoms: N_4  and  C_5
REMARK    4  A    between atoms: C_12  and  C_13
REMARK    5  A    between atoms: N_19  and  C_20
REMARK    6  A    between atoms: N_22  and  C_23
REMARK    7  A    between atoms: C_26  and  C_27
REMARK                            x       y       z     vdW  Elec       q    Type
REMARK                         _______ _______ _______ _____ _____    ______ ____
ROOT
ATOM      1  O   UNL     1       7.176   7.933  16.845  0.00  0.00    +0.000 OA
ATOM      2  C   UNL     1       7.825   8.245  17.841  0.00  0.00    +0.000 C 
ATOM      3  N   UNL     1       8.233   7.364  18.829  0.00  0.00    +0.000 N 
ATOM      4  H   UNL     1       8.478   7.856  19.688  0.00  0.00    +0.000 HD
ENDROOT
BRANCH   3   5
ATOM      5  C   UNL     1       7.910   5.916  18.965  0.00  0.00    +0.000 C 
ATOM      6  C   UNL     1       6.535   5.467  19.473  0.00  0.00    +0.000 C 
ATOM      7  N   UNL     1       6.492   4.443  18.399  0.00  0.00    +0.000 NA
ATOM      8  C   UNL     1       7.556   5.174  17.665  0.00  0.00    +0.000 C 
BRANCH   7   9
ATOM      9  C   UNL     1       5.211   4.464  17.652  0.00  0.00    +0.000 C 
ATOM     10  C   UNL     1       4.445   3.157  17.963  0.00  0.00    +0.000 C 
ATOM     11  C   UNL     1       2.977   3.181  17.533  0.00  0.00    +0.000 C 
ATOM     12  C   UNL     1       2.212   4.391  18.093  0.00  0.00    +0.000 C 
ATOM     13  C   UNL     1       2.926   5.657  17.606  0.00  0.00    +0.000 C 
ATOM     14  C   UNL     1       4.389   5.715  18.038  0.00  0.00    +0.000 C 
BRANCH  12  15
ATOM     15  C   UNL     1       2.028   4.325  19.625  0.00  0.00    +0.000 C 
ATOM     16  C   UNL     1       0.695   3.761  20.093  0.00  0.00    +0.000 C 
ATOM     17  O   UNL     1       1.002   3.019  21.283  0.00  0.00    +0.000 OA
ATOM     18  C   UNL     1       2.347   2.796  21.311  0.00  0.00    +0.000 C 
ATOM     19  O   UNL     1       2.933   2.159  22.169  0.00  0.00    +0.000 OA
ATOM     20  N   UNL     1       2.944   3.421  20.251  0.00  0.00    +0.000 N 
ATOM     21  H   UNL     1       3.945   3.552  20.306  0.00  0.00    +0.000 HD
ENDBRANCH  12  15
ENDBRANCH   7   9
ENDBRANCH   3   5
BRANCH   2  22
ATOM     22  C   UNL     1       8.290   9.699  18.085  0.00  0.00    +0.000 C 
BRANCH  22  23
ATOM     23  N   UNL     1       9.506   9.834  18.909  0.00  0.00    +0.000 N 
ATOM     24  H   UNL     1      10.187   9.110  18.687  0.00  0.00    +0.000 HD
BRANCH  23  25
ATOM     25  C   UNL     1      10.132  11.091  18.953  0.00  0.00    +0.000 A 
ATOM     26  N   UNL     1      10.909  11.441  17.911  0.00  0.00    +0.000 NA
ATOM     27  C   UNL     1      11.573  12.599  18.012  0.00  0.00    +0.000 A 
ATOM     28  N   UNL     1      11.511  13.456  19.029  0.00  0.00    +0.000 NA
ATOM     29  C   UNL     1      10.680  13.142  20.023  0.00  0.00    +0.000 A 
ATOM     30  C   UNL     1      10.549  14.058  21.055  0.00  0.00    +0.000 A 
ATOM     31  C   UNL     1       9.658  13.859  22.110  0.00  0.00    +0.000 A 
ATOM     32  C   UNL     1       8.874  12.704  22.159  0.00  0.00    +0.000 A 
ATOM     33  C   UNL     1       9.035  11.742  21.143  0.00  0.00    +0.000 A 
ATOM     34  C   UNL     1       9.933  11.953  20.056  0.00  0.00    +0.000 A 
BRANCH  32  35
ATOM     35  C   UNL     1       7.855  12.518  23.260  0.00  0.00    +0.000 C 
ATOM     36  F   UNL     1       8.033  13.365  24.312  0.00  0.00    +0.000 F 
ATOM     37  F   UNL     1       6.582  12.728  22.826  0.00  0.00    +0.000 F 
ATOM     38  F   UNL     1       7.875  11.263  23.783  0.00  0.00    +0.000 F 
ENDBRANCH  32  35
ENDBRANCH  23  25
ENDBRANCH  22  23
ENDBRANCH   2  22
TORSDOF 7
ENDMDL
MODEL 2
REMARK VINA RESULT:      -9.9      1.432      1.779
REMARK  Name = 
REMARK  7 active torsions:
REMARK  status: ('A' for Active; 'I' for Inactive)
REMARK    1  A    between atoms: C_2  and  C_3
REMARK    2  A    between atoms: C_3  and  N_4
REMARK    3  A    between atoms: N_4  and  C_5
REMARK    4  A    between atoms: C_12  and  C_13
REMARK    5  A    between atoms: N_19  and  C_20
REMARK    6  A    between atoms: N_22  and  C_23
REMARK    7  A    between atoms: C_26  and  C_27
REMARK                            x       y       z     vdW  Elec       q    Type
REMARK                         _______ _______ _______ _____ _____    ______ ____
ROOT
ATOM      1  O   UNL     1       8.441   7.165  18.830  0.00  0.00    +0.000 OA
ATOM      2  C   UNL     1       7.979   7.938  17.994  0.00  0.00    +0.000 C 
ATOM      3  N   UNL     1       7.051   7.593  17.025  0.00  0.00    +0.000 N 
ATOM      4  H   UNL     1       7.036   8.276  16.267  0.00  0.00    +0.000 HD
ENDROOT
BRANCH   3   5
ATOM      5  C   UNL     1       6.498   6.247  16.715  0.00  0.00    +0.000 C 
ATOM      6  C   UNL     1       5.906   5.371  17.825  0.00  0.00    +0.000 C 
ATOM      7  N   UNL     1       4.764   5.043  16.935  0.00  0.00    +0.000 NA
ATOM      8  C   UNL     1       5.093   6.217  16.088  0.00  0.00    +0.000 C 
BRANCH   7   9
ATOM      9  C   UNL     1       3.455   5.217  17.611  0.00  0.00    +0.000 C 
ATOM     10  C   UNL     1       2.529   4.054  17.185  0.00  0.00    +0.000 C 
ATOM     11  C   UNL     1       1.272   3.915  18.045  0.00  0.00    +0.000 C 
ATOM     12  C   UNL     1       1.586   3.820  19.548  0.00  0.00    +0.000 C 
ATOM     13  C   UNL     1       2.358   5.085  19.940  0.00  0.00    +0.000 C 
ATOM     14  C   UNL     1       3.649   5.263  19.144  0.00  0.00    +0.000 C 
BRANCH  12  15
ATOM     15  C   UNL     1       2.303   2.505  19.927  0.00  0.00    +0.000 C 
ATOM     16  C   UNL     1       2.952   1.766  18.767  0.00  0.00    +0.000 C 
ATOM     17  O   UNL     1       4.150   1.194  19.314  0.00  0.00    +0.000 OA
ATOM     18  C   UNL     1       4.425   1.827  20.491  0.00  0.00    +0.000 C 
ATOM     19  O   UNL     1       5.397   1.609  21.193  0.00  0.00    +0.000 OA
ATOM     20  N   UNL     1       3.430   2.719  20.783  0.00  0.00    +0.000 N 
ATOM     21  H   UNL     1       3.381   3.050  21.737  0.00  0.00    +0.000 HD
ENDBRANCH  12  15
ENDBRANCH   7   9
ENDBRANCH   3   5
BRANCH   2  22
ATOM     22  C   UNL     1       8.380   9.430  17.958  0.00  0.00    +0.000 C 
BRANCH  22  23
ATOM     23  N   UNL     1       9.241   9.871  19.071  0.00  0.00    +0.000 N 
ATOM     24  H   UNL     1      10.002   9.214  19.234  0.00  0.00    +0.000 HD
BRANCH  23  25
ATOM     25  C   UNL     1       9.735  11.187  19.037  0.00  0.00    +0.000 A 
ATOM     26  N   UNL     1      10.296  11.616  17.892  0.00  0.00    +0.000 NA
ATOM     27  C   UNL     1      10.847  12.835  17.906  0.00  0.00    +0.000 A 
ATOM     28  N   UNL     1      10.861  13.681  18.934  0.00  0.00    +0.000 NA
ATOM     29  C   UNL     1      10.235  13.282  20.042  0.00  0.00    +0.000 A 
ATOM     30  C   UNL     1      10.178  14.179  21.097  0.00  0.00    +0.000 A 
ATOM     31  C   UNL     1       9.492  13.889  22.276  0.00  0.00    +0.000 A 
ATOM     32  C   UNL     1       8.848  12.659  22.429  0.00  0.00    +0.000 A 
ATOM     33  C   UNL     1       8.941  11.719  21.384  0.00  0.00    +0.000 A 
ATOM     34  C   UNL     1       9.628  12.022  20.172  0.00  0.00    +0.000 A 
BRANCH  32  35
ATOM     35  C   UNL     1       8.041  12.368  23.674  0.00  0.00    +0.000 C 
ATOM     36  F   UNL     1       7.759  13.480  24.410  0.00  0.00    +0.000 F 
ATOM     37  F   UNL     1       6.839  11.797  23.389  0.00  0.00    +0.000 F 
ATOM     38  F   UNL     1       8.677  11.512  24.520  0.00  0.00    +0.000 F 
ENDBRANCH  32  35
ENDBRANCH  23  25
ENDBRANCH  22  23
ENDBRANCH   2  22
TORSDOF 7
ENDMDL
MODEL 3
REMARK VINA RESULT:      -9.6      8.189     11.011
REMARK  Name = 
REMARK  7 active torsions:
REMARK  status: ('A' for Active; 'I' for Inactive)
REMARK    1  A    between atoms: C_2  and  C_3
REMARK    2  A    between atoms: C_3  and  N_4
REMARK    3  A    between atoms: N_4  and  C_5
REMARK    4  A    between atoms: C_12  and  C_13
REMARK    5  A    between atoms: N_19  and  C_20
REMARK    6  A    between atoms: N_22  and  C_23
REMARK    7  A    between atoms: C_26  and  C_27
REMARK                            x       y       z     vdW  Elec       q    Type
REMARK                         _______ _______ _______ _____ _____    ______ ____
ROOT
ATOM      1  O   UNL     1       0.680   9.216  19.514  0.00  0.00    +0.000 OA
ATOM      2  C   UNL     1       1.401   9.527  18.569  0.00  0.00    +0.000 C 
ATOM      3  N   UNL     1       1.686  10.827  18.185  0.00  0.00    +0.000 N 
ATOM      4  H   UNL     1       2.036  10.863  17.227  0.00  0.00    +0.000 HD
ENDROOT
BRANCH   3   5
ATOM      5  C   UNL     1       1.132  12.094  18.736  0.00  0.00    +0.000 C 
ATOM      6  C   UNL     1      -0.359  12.423  18.590  0.00  0.00    +0.000 C 
ATOM      7  N   UNL     1      -0.383  12.862  20.008  0.00  0.00    +0.000 NA
ATOM      8  C   UNL     1       0.882  12.124  20.253  0.00  0.00    +0.000 C 
BRANCH   7   9
ATOM      9  C   UNL     1      -1.511  12.262  20.763  0.00  0.00    +0.000 C 
ATOM     10  C   UNL     1      -1.110  12.183  22.254  0.00  0.00    +0.000 C 
ATOM     11  C   UNL     1      -2.280  11.895  23.197  0.00  0.00    +0.000 C 
ATOM     12  C   UNL     1      -3.449  12.878  23.012  0.00  0.00    +0.000 C 
ATOM     13  C   UNL     1      -3.909  12.782  21.553  0.00  0.00    +0.000 C 
ATOM     14  C   UNL     1      -2.795  13.098  20.558  0.00  0.00    +0.000 C 
BRANCH  12  15
ATOM     15  C   UNL     1      -3.100  14.313  23.466  0.00  0.00    +0.000 C 
ATOM     16  C   UNL     1      -4.246  15.085  24.102  0.00  0.00    +0.000 C 
ATOM     17  O   UNL     1      -3.634  15.877  25.131  0.00  0.00    +0.000 OA
ATOM     18  C   UNL     1      -2.395  15.365  25.384  0.00  0.00    +0.000 C 
ATOM     19  O   UNL     1      -1.625  15.779  26.232  0.00  0.00    +0.000 OA
ATOM     20  N   UNL     1      -2.132  14.337  24.520  0.00  0.00    +0.000 N 
ATOM     21  H   UNL     1      -1.166  14.055  24.428  0.00  0.00    +0.000 HD
ENDBRANCH  12  15
ENDBRANCH   7   9
ENDBRANCH   3   5
BRANCH   2  22
ATOM     22  C   UNL     1       2.109   8.461  17.701  0.00  0.00    +0.000 C 
BRANCH  22  23
ATOM     23  N   UNL     1       3.233   7.769  18.359  0.00  0.00    +0.000 N 
ATOM     24  H   UNL     1       2.979   7.454  19.294  0.00  0.00    +0.000 HD
BRANCH  23  25
ATOM     25  C   UNL     1       3.867   6.732  17.653  0.00  0.00    +0.000 A 
ATOM     26  N   UNL     1       4.929   7.050  16.891  0.00  0.00    +0.000 NA
ATOM     27  C   UNL     1       5.462   6.069  16.152  0.00  0.00    +0.000 A 
ATOM     28  N   UNL     1       5.064   4.799  16.126  0.00  0.00    +0.000 NA
ATOM     29  C   UNL     1       4.061   4.472  16.941  0.00  0.00    +0.000 A 
ATOM     30  C   UNL     1       3.682   3.139  16.979  0.00  0.00    +0.000 A 
ATOM     31  C   UNL     1       2.691   2.678  17.845  0.00  0.00    +0.000 A 
ATOM     32  C   UNL     1       2.034   3.568  18.698  0.00  0.00    +0.000 A 
ATOM     33  C   UNL     1       2.374   4.933  18.633  0.00  0.00    +0.000 A 
ATOM     34  C   UNL     1       3.400   5.402  17.761  0.00  0.00    +0.000 A 
BRANCH  32  35
ATOM     35  C   UNL     1       1.011   3.063  19.690  0.00  0.00    +0.000 C 
ATOM     36  F   UNL     1       0.003   2.350  19.113  0.00  0.00    +0.000 F 
ATOM     37  F   UNL     1       1.560   2.239  20.624  0.00  0.00    +0.000 F 
ATOM     38  F   UNL     1       0.409   4.070  20.379  0.00  0.00    +0.000 F 
ENDBRANCH  32  35
ENDBRANCH  23  25
ENDBRANCH  22  23
ENDBRANCH   2  22
TORSDOF 7
ENDMDL
MODEL 4
REMARK VINA RESULT:      -9.6      2.478      2.852
REMARK  Name = 
REMARK  7 active torsions:
REMARK  status: ('A' for Active; 'I' for Inactive)
REMARK    1  A    between atoms: C_2  and  C_3
REMARK    2  A    between atoms: C_3  and  N_4
REMARK    3  A    between atoms: N_4  and  C_5
REMARK    4  A    between atoms: C_12  and  C_13
REMARK    5  A    between atoms: N_19  and  C_20
REMARK    6  A    between atoms: N_22  and  C_23
REMARK    7  A    between atoms: C_26  and  C_27
REMARK                            x       y       z     vdW  Elec       q    Type
REMARK                         _______ _______ _______ _____ _____    ______ ____
ROOT
ATOM      1  O   UNL     1       7.310   8.231  17.267  0.00  0.00    +0.000 OA
ATOM      2  C   UNL     1       8.094   8.281  18.211  0.00  0.00    +0.000 C 
ATOM      3  N   UNL     1       8.479   7.195  18.980  0.00  0.00    +0.000 N 
ATOM      4  H   UNL     1       8.876   7.492  19.871  0.00  0.00    +0.000 HD
ENDROOT
BRANCH   3   5
ATOM      5  C   UNL     1       7.979   5.794  18.914  0.00  0.00    +0.000 C 
ATOM      6  C   UNL     1       6.594   5.431  19.464  0.00  0.00    +0.000 C 
ATOM      7  N   UNL     1       6.344   4.615  18.250  0.00  0.00    +0.000 NA
ATOM      8  C   UNL     1       7.442   5.328  17.550  0.00  0.00    +0.000 C 
BRANCH   7   9
ATOM      9  C   UNL     1       5.029   4.914  17.632  0.00  0.00    +0.000 C 
ATOM     10  C   UNL     1       4.138   3.655  17.755  0.00  0.00    +0.000 C 
ATOM     11  C   UNL     1       2.658   3.913  17.463  0.00  0.00    +0.000 C 
ATOM     12  C   UNL     1       2.076   5.060  18.305  0.00  0.00    +0.000 C 
ATOM     13  C   UNL     1       2.900   6.318  18.008  0.00  0.00    +0.000 C 
ATOM     14  C   UNL     1       4.384   6.141  18.317  0.00  0.00    +0.000 C 
BRANCH  12  15
ATOM     15  C   UNL     1       1.984   4.712  19.808  0.00  0.00    +0.000 C 
ATOM     16  C   UNL     1       0.731   3.955  20.220  0.00  0.00    +0.000 C 
ATOM     17  O   UNL     1       1.165   3.049  21.246  0.00  0.00    +0.000 OA
ATOM     18  C   UNL     1       2.524   2.949  21.180  0.00  0.00    +0.000 C 
ATOM     19  O   UNL     1       3.208   2.230  21.886  0.00  0.00    +0.000 OA
ATOM     20  N   UNL     1       3.006   3.801  20.226  0.00  0.00    +0.000 N 
ATOM     21  H   UNL     1       3.994   4.014  20.262  0.00  0.00    +0.000 HD
ENDBRANCH  12  15
ENDBRANCH   7   9
ENDBRANCH   3   5
BRANCH   2  22
ATOM     22  C   UNL     1       8.775   9.603  18.633  0.00  0.00    +0.000 C 
BRANCH  22  23
ATOM     23  N   UNL     1       8.382  10.785  17.843  0.00  0.00    +0.000 N 
ATOM     24  H   UNL     1       7.458  11.120  18.110  0.00  0.00    +0.000 HD
BRANCH  23  25
ATOM     25  C   UNL     1       9.286  11.860  17.777  0.00  0.00    +0.000 A 
ATOM     26  N   UNL     1      10.579  11.577  17.531  0.00  0.00    +0.000 NA
ATOM     27  C   UNL     1      11.441  12.600  17.566  0.00  0.00    +0.000 A 
ATOM     28  N   UNL     1      11.138  13.877  17.785  0.00  0.00    +0.000 NA
ATOM     29  C   UNL     1       9.846  14.163  17.951  0.00  0.00    +0.000 A 
ATOM     30  C   UNL     1       9.506  15.498  18.109  0.00  0.00    +0.000 A 
ATOM     31  C   UNL     1       8.179  15.913  18.223  0.00  0.00    +0.000 A 
ATOM     32  C   UNL     1       7.145  14.974  18.196  0.00  0.00    +0.000 A 
ATOM     33  C   UNL     1       7.481  13.611  18.087  0.00  0.00    +0.000 A 
ATOM     34  C   UNL     1       8.835  13.188  17.953  0.00  0.00    +0.000 A 
BRANCH  32  35
ATOM     35  C   UNL     1       5.702  15.424  18.245  0.00  0.00    +0.000 C 
ATOM     36  F   UNL     1       5.013  15.160  17.100  0.00  0.00    +0.000 F 
ATOM     37  F   UNL     1       5.006  14.817  19.245  0.00  0.00    +0.000 F 
ATOM     38  F   UNL     1       5.580  16.762  18.455  0.00  0.00    +0.000 F 
ENDBRANCH  32  35
ENDBRANCH  23  25
ENDBRANCH  22  23
ENDBRANCH   2  22
TORSDOF 7
ENDMDL
MODEL 5
REMARK VINA RESULT:      -9.3      7.719     10.253
REMARK  Name = 
REMARK  7 active torsions:
REMARK  status: ('A' for Active; 'I' for Inactive)
REMARK    1  A    between atoms: C_2  and  C_3
REMARK    2  A    between atoms: C_3  and  N_4
REMARK    3  A    between atoms: N_4  and  C_5
REMARK    4  A    between atoms: C_12  and  C_13
REMARK    5  A    between atoms: N_19  and  C_20
REMARK    6  A    between atoms: N_22  and  C_23
REMARK    7  A    between atoms: C_26  and  C_27
REMARK                            x       y       z     vdW  Elec       q    Type
REMARK                         _______ _______ _______ _____ _____    ______ ____
ROOT
ATOM      1  O   UNL     1      -0.253  11.070  20.155  0.00  0.00    +0.000 OA
ATOM      2  C   UNL     1      -0.562  10.525  19.099  0.00  0.00    +0.000 C 
ATOM      3  N   UNL     1       0.245   9.644  18.396  0.00  0.00    +0.000 N 
ATOM      4  H   UNL     1      -0.061   9.552  17.427  0.00  0.00    +0.000 HD
ENDROOT
BRANCH   3   5
ATOM      5  C   UNL     1       1.651   9.249  18.686  0.00  0.00    +0.000 C 
ATOM      6  C   UNL     1       1.969   7.870  19.277  0.00  0.00    +0.000 C 
ATOM      7  N   UNL     1       3.090   7.735  18.313  0.00  0.00    +0.000 NA
ATOM      8  C   UNL     1       2.497   8.811  17.479  0.00  0.00    +0.000 C 
BRANCH   7   9
ATOM      9  C   UNL     1       3.069   6.432  17.605  0.00  0.00    +0.000 C 
ATOM     10  C   UNL     1       4.504   5.855  17.607  0.00  0.00    +0.000 C 
ATOM     11  C   UNL     1       4.581   4.380  17.208  0.00  0.00    +0.000 C 
ATOM     12  C   UNL     1       3.649   3.488  18.046  0.00  0.00    +0.000 C 
ATOM     13  C   UNL     1       2.220   4.012  17.865  0.00  0.00    +0.000 C 
ATOM     14  C   UNL     1       2.066   5.472  18.284  0.00  0.00    +0.000 C 
BRANCH  12  15
ATOM     15  C   UNL     1       4.094   3.379  19.522  0.00  0.00    +0.000 C 
ATOM     16  C   UNL     1       3.013   2.927  20.491  0.00  0.00    +0.000 C 
ATOM     17  O   UNL     1       3.696   2.113  21.457  0.00  0.00    +0.000 OA
ATOM     18  C   UNL     1       4.907   1.761  20.936  0.00  0.00    +0.000 C 
ATOM     19  O   UNL     1       5.720   1.037  21.484  0.00  0.00    +0.000 OA
ATOM     20  N   UNL     1       5.086   2.367  19.724  0.00  0.00    +0.000 N 
ATOM     21  H   UNL     1       6.032   2.400  19.367  0.00  0.00    +0.000 HD
ENDBRANCH  12  15
ENDBRANCH   7   9
ENDBRANCH   3   5
BRANCH   2  22
ATOM     22  C   UNL     1      -1.942  10.752  18.440  0.00  0.00    +0.000 C 
BRANCH  22  23
ATOM     23  N   UNL     1      -2.568  12.053  18.739  0.00  0.00    +0.000 N 
ATOM     24  H   UNL     1      -2.251  12.775  18.094  0.00  0.00    +0.000 HD
BRANCH  23  25
ATOM     25  C   UNL     1      -3.968  12.094  18.863  0.00  0.00    +0.000 A 
ATOM     26  N   UNL     1      -4.702  11.776  17.781  0.00  0.00    +0.000 NA
ATOM     27  C   UNL     1      -6.029  11.912  17.888  0.00  0.00    +0.000 A 
ATOM     28  N   UNL     1      -6.696  12.298  18.973  0.00  0.00    +0.000 NA
ATOM     29  C   UNL     1      -5.970  12.538  20.065  0.00  0.00    +0.000 A 
ATOM     30  C   UNL     1      -6.655  12.871  21.223  0.00  0.00    +0.000 A 
ATOM     31  C   UNL     1      -5.997  13.077  22.436  0.00  0.00    +0.000 A 
ATOM     32  C   UNL     1      -4.607  12.964  22.510  0.00  0.00    +0.000 A 
ATOM     33  C   UNL     1      -3.896  12.676  21.329  0.00  0.00    +0.000 A 
ATOM     34  C   UNL     1      -4.568  12.449  20.093  0.00  0.00    +0.000 A 
BRANCH  32  35
ATOM     35  C   UNL     1      -3.897  13.113  23.836  0.00  0.00    +0.000 C 
ATOM     36  F   UNL     1      -2.549  13.272  23.714  0.00  0.00    +0.000 F 
ATOM     37  F   UNL     1      -4.335  14.193  24.538  0.00  0.00    +0.000 F 
ATOM     38  F   UNL     1      -4.074  12.036  24.647  0.00  0.00    +0.000 F 
ENDBRANCH  32  35
ENDBRANCH  23  25
ENDBRANCH  22  23
ENDBRANCH   2  22
TORSDOF 7
ENDMDL
MODEL 6
REMARK VINA RESULT:      -9.3      8.673     11.637
REMARK  Name = 
REMARK  7 active torsions:
REMARK  status: ('A' for Active; 'I' for Inactive)
REMARK    1  A    between atoms: C_2  and  C_3
REMARK    2  A    between atoms: C_3  and  N_4
REMARK    3  A    between atoms: N_4  and  C_5
REMARK    4  A    between atoms: C_12  and  C_13
REMARK    5  A    between atoms: N_19  and  C_20
REMARK    6  A    between atoms: N_22  and  C_23
REMARK    7  A    between atoms: C_26  and  C_27
REMARK                            x       y       z     vdW  Elec       q    Type
REMARK                         _______ _______ _______ _____ _____    ______ ____
ROOT
ATOM      1  O   UNL     1      -0.091   9.241  20.506  0.00  0.00    +0.000 OA
ATOM      2  C   UNL     1       0.848   9.487  19.753  0.00  0.00    +0.000 C 
ATOM      3  N   UNL     1       1.286  10.760  19.425  0.00  0.00    +0.000 N 
ATOM      4  H   UNL     1       1.853  10.751  18.576  0.00  0.00    +0.000 HD
ENDROOT
BRANCH   3   5
ATOM      5  C   UNL     1       0.689  12.069  19.808  0.00  0.00    +0.000 C 
ATOM      6  C   UNL     1      -0.773  12.389  19.473  0.00  0.00    +0.000 C 
ATOM      7  N   UNL     1      -0.947  12.940  20.840  0.00  0.00    +0.000 NA
ATOM      8  C   UNL     1       0.275  12.223  21.281  0.00  0.00    +0.000 C 
BRANCH   7   9
ATOM      9  C   UNL     1      -2.157  12.406  21.512  0.00  0.00    +0.000 C 
ATOM     10  C   UNL     1      -2.085  12.778  23.011  0.00  0.00    +0.000 C 
ATOM     11  C   UNL     1      -3.403  12.585  23.763  0.00  0.00    +0.000 C 
ATOM     12  C   UNL     1      -4.582  13.309  23.092  0.00  0.00    +0.000 C 
ATOM     13  C   UNL     1      -4.705  12.771  21.662  0.00  0.00    +0.000 C 
ATOM     14  C   UNL     1      -3.432  12.969  20.843  0.00  0.00    +0.000 C 
BRANCH  12  15
ATOM     15  C   UNL     1      -4.463  14.848  23.175  0.00  0.00    +0.000 C 
ATOM     16  C   UNL     1      -5.642  15.619  22.601  0.00  0.00    +0.000 C 
ATOM     17  O   UNL     1      -5.785  16.766  23.452  0.00  0.00    +0.000 OA
ATOM     18  C   UNL     1      -5.100  16.527  24.607  0.00  0.00    +0.000 C 
ATOM     19  O   UNL     1      -5.049  17.284  25.561  0.00  0.00    +0.000 OA
ATOM     20  N   UNL     1      -4.449  15.327  24.523  0.00  0.00    +0.000 N 
ATOM     21  H   UNL     1      -3.708  15.163  25.191  0.00  0.00    +0.000 HD
ENDBRANCH  12  15
ENDBRANCH   7   9
ENDBRANCH   3   5
BRANCH   2  22
ATOM     22  C   UNL     1       1.679   8.363  19.095  0.00  0.00    +0.000 C 
BRANCH  22  23
ATOM     23  N   UNL     1       2.404   7.491  20.038  0.00  0.00    +0.000 N 
ATOM     24  H   UNL     1       2.222   7.757  21.004  0.00  0.00    +0.000 HD
BRANCH  23  25
ATOM     25  C   UNL     1       2.266   6.101  19.884  0.00  0.00    +0.000 A 
ATOM     26  N   UNL     1       1.401   5.463  20.694  0.00  0.00    +0.000 NA
ATOM     27  C   UNL     1       1.352   4.129  20.600  0.00  0.00    +0.000 A 
ATOM     28  N   UNL     1       2.052   3.374  19.755  0.00  0.00    +0.000 NA
ATOM     29  C   UNL     1       2.849   4.016  18.902  0.00  0.00    +0.000 A 
ATOM     30  C   UNL     1       3.530   3.250  17.969  0.00  0.00    +0.000 A 
ATOM     31  C   UNL     1       4.338   3.826  16.989  0.00  0.00    +0.000 A 
ATOM     32  C   UNL     1       4.495   5.212  16.934  0.00  0.00    +0.000 A 
ATOM     33  C   UNL     1       3.850   5.998  17.907  0.00  0.00    +0.000 A 
ATOM     34  C   UNL     1       3.010   5.412  18.899  0.00  0.00    +0.000 A 
BRANCH  32  35
ATOM     35  C   UNL     1       5.310   5.846  15.830  0.00  0.00    +0.000 C 
ATOM     36  F   UNL     1       4.882   7.094  15.488  0.00  0.00    +0.000 F 
ATOM     37  F   UNL     1       6.621   5.984  16.169  0.00  0.00    +0.000 F 
ATOM     38  F   UNL     1       5.290   5.117  14.681  0.00  0.00    +0.000 F 
ENDBRANCH  32  35
ENDBRANCH  23  25
ENDBRANCH  22  23
ENDBRANCH   2  22
TORSDOF 7
ENDMDL
MODEL 7
REMARK VINA RESULT:      -9.2      2.562      2.901
REMARK  Name = 
REMARK  7 active torsions:
REMARK  status: ('A' for Active; 'I' for Inactive)
REMARK    1  A    between atoms: C_2  and  C_3
REMARK    2  A    between atoms: C_3  and  N_4
REMARK    3  A    between atoms: N_4  and  C_5
REMARK    4  A    between atoms: C_12  and  C_13
REMARK    5  A    between atoms: N_19  and  C_20
REMARK    6  A    between atoms: N_22  and  C_23
REMARK    7  A    between atoms: C_26  and  C_27
REMARK                            x       y       z     vdW  Elec       q    Type
REMARK                         _______ _______ _______ _____ _____    ______ ____
ROOT
ATOM      1  O   UNL     1       8.922   8.550  19.135  0.00  0.00    +0.000 OA
ATOM      2  C   UNL     1       8.350   8.906  18.107  0.00  0.00    +0.000 C 
ATOM      3  N   UNL     1       7.611   8.073  17.283  0.00  0.00    +0.000 N 
ATOM      4  H   UNL     1       7.486   8.482  16.357  0.00  0.00    +0.000 HD
ENDROOT
BRANCH   3   5
ATOM      5  C   UNL     1       7.428   6.599  17.386  0.00  0.00    +0.000 C 
ATOM      6  C   UNL     1       6.334   6.008  18.284  0.00  0.00    +0.000 C 
ATOM      7  N   UNL     1       5.979   5.061  17.197  0.00  0.00    +0.000 NA
ATOM      8  C   UNL     1       6.689   5.923  16.219  0.00  0.00    +0.000 C 
BRANCH   7   9
ATOM      9  C   UNL     1       4.520   5.033  16.931  0.00  0.00    +0.000 C 
ATOM     10  C   UNL     1       3.979   3.640  17.330  0.00  0.00    +0.000 C 
ATOM     11  C   UNL     1       2.454   3.570  17.422  0.00  0.00    +0.000 C 
ATOM     12  C   UNL     1       1.862   4.653  18.339  0.00  0.00    +0.000 C 
ATOM     13  C   UNL     1       2.296   6.016  17.788  0.00  0.00    +0.000 C 
ATOM     14  C   UNL     1       3.813   6.166  17.709  0.00  0.00    +0.000 C 
BRANCH  12  15
ATOM     15  C   UNL     1       2.218   4.436  19.827  0.00  0.00    +0.000 C 
ATOM     16  C   UNL     1       1.067   3.975  20.707  0.00  0.00    +0.000 C 
ATOM     17  O   UNL     1       1.660   3.075  21.655  0.00  0.00    +0.000 OA
ATOM     18  C   UNL     1       2.884   2.702  21.180  0.00  0.00    +0.000 C 
ATOM     19  O   UNL     1       3.635   1.912  21.725  0.00  0.00    +0.000 OA
ATOM     20  N   UNL     1       3.156   3.372  20.019  0.00  0.00    +0.000 N 
ATOM     21  H   UNL     1       4.120   3.385  19.717  0.00  0.00    +0.000 HD
ENDBRANCH  12  15
ENDBRANCH   7   9
ENDBRANCH   3   5
BRANCH   2  22
ATOM     22  C   UNL     1       8.376  10.376  17.631  0.00  0.00    +0.000 C 
BRANCH  22  23
ATOM     23  N   UNL     1       8.970  11.330  18.586  0.00  0.00    +0.000 N 
ATOM     24  H   UNL     1       9.448  10.847  19.345  0.00  0.00    +0.000 HD
BRANCH  23  25
ATOM     25  C   UNL     1       9.787  12.351  18.070  0.00  0.00    +0.000 A 
ATOM     26  N   UNL     1      10.985  12.001  17.567  0.00  0.00    +0.000 NA
ATOM     27  C   UNL     1      11.790  12.994  17.169  0.00  0.00    +0.000 A 
ATOM     28  N   UNL     1      11.504  14.294  17.189  0.00  0.00    +0.000 NA
ATOM     29  C   UNL     1      10.287  14.630  17.615  0.00  0.00    +0.000 A 
ATOM     30  C   UNL     1       9.948  15.974  17.575  0.00  0.00    +0.000 A 
ATOM     31  C   UNL     1       8.679  16.426  17.935  0.00  0.00    +0.000 A 
ATOM     32  C   UNL     1       7.707  15.520  18.367  0.00  0.00    +0.000 A 
ATOM     33  C   UNL     1       8.055  14.159  18.461  0.00  0.00    +0.000 A 
ATOM     34  C   UNL     1       9.346  13.694  18.077  0.00  0.00    +0.000 A 
BRANCH  32  35
ATOM     35  C   UNL     1       6.308  15.995  18.688  0.00  0.00    +0.000 C 
ATOM     36  F   UNL     1       6.132  17.333  18.495  0.00  0.00    +0.000 F 
ATOM     37  F   UNL     1       5.365  15.382  17.921  0.00  0.00    +0.000 F 
ATOM     38  F   UNL     1       5.959  15.756  19.981  0.00  0.00    +0.000 F 
ENDBRANCH  32  35
ENDBRANCH  23  25
ENDBRANCH  22  23
ENDBRANCH   2  22
TORSDOF 7
ENDMDL
MODEL 8
REMARK VINA RESULT:      -9.2      8.824     11.521
REMARK  Name = 
REMARK  7 active torsions:
REMARK  status: ('A' for Active; 'I' for Inactive)
REMARK    1  A    between atoms: C_2  and  C_3
REMARK    2  A    between atoms: C_3  and  N_4
REMARK    3  A    between atoms: N_4  and  C_5
REMARK    4  A    between atoms: C_12  and  C_13
REMARK    5  A    between atoms: N_19  and  C_20
REMARK    6  A    between atoms: N_22  and  C_23
REMARK    7  A    between atoms: C_26  and  C_27
REMARK                            x       y       z     vdW  Elec       q    Type
REMARK                         _______ _______ _______ _____ _____    ______ ____
ROOT
ATOM      1  O   UNL     1       2.496  10.669  17.796  0.00  0.00    +0.000 OA
ATOM      2  C   UNL     1       1.614   9.816  17.859  0.00  0.00    +0.000 C 
ATOM      3  N   UNL     1       0.280  10.075  18.127  0.00  0.00    +0.000 N 
ATOM      4  H   UNL     1      -0.208   9.232  18.431  0.00  0.00    +0.000 HD
ENDROOT
BRANCH   3   5
ATOM      5  C   UNL     1      -0.354  11.373  18.487  0.00  0.00    +0.000 C 
ATOM      6  C   UNL     1      -1.628  11.843  17.776  0.00  0.00    +0.000 C 
ATOM      7  N   UNL     1      -2.193  12.244  19.089  0.00  0.00    +0.000 NA
ATOM      8  C   UNL     1      -1.195  11.385  19.775  0.00  0.00    +0.000 C 
BRANCH   7   9
ATOM      9  C   UNL     1      -3.571  11.731  19.289  0.00  0.00    +0.000 C 
ATOM     10  C   UNL     1      -4.295  12.661  20.290  0.00  0.00    +0.000 C 
ATOM     11  C   UNL     1      -5.810  12.456  20.343  0.00  0.00    +0.000 C 
ATOM     12  C   UNL     1      -6.472  12.549  18.958  0.00  0.00    +0.000 C 
ATOM     13  C   UNL     1      -5.826  11.485  18.063  0.00  0.00    +0.000 C 
ATOM     14  C   UNL     1      -4.314  11.658  17.935  0.00  0.00    +0.000 C 
BRANCH  12  15
ATOM     15  C   UNL     1      -6.427  13.976  18.369  0.00  0.00    +0.000 C 
ATOM     16  C   UNL     1      -7.323  14.206  17.162  0.00  0.00    +0.000 C 
ATOM     17  O   UNL     1      -7.800  15.552  17.303  0.00  0.00    +0.000 OA
ATOM     18  C   UNL     1      -7.590  15.945  18.593  0.00  0.00    +0.000 C 
ATOM     19  O   UNL     1      -7.916  17.023  19.058  0.00  0.00    +0.000 OA
ATOM     20  N   UNL     1      -6.928  14.963  19.276  0.00  0.00    +0.000 N 
ATOM     21  H   UNL     1      -6.487  15.231  20.145  0.00  0.00    +0.000 HD
ENDBRANCH  12  15
ENDBRANCH   7   9
ENDBRANCH   3   5
BRANCH   2  22
ATOM     22  C   UNL     1       1.911   8.320  17.608  0.00  0.00    +0.000 C 
BRANCH  22  23
ATOM     23  N   UNL     1       3.157   7.821  18.221  0.00  0.00    +0.000 N 
ATOM     24  H   UNL     1       3.033   7.636  19.215  0.00  0.00    +0.000 HD
BRANCH  23  25
ATOM     25  C   UNL     1       3.803   6.737  17.603  0.00  0.00    +0.000 A 
ATOM     26  N   UNL     1       4.694   7.009  16.632  0.00  0.00    +0.000 NA
ATOM     27  C   UNL     1       5.228   5.963  15.989  0.00  0.00    +0.000 A 
ATOM     28  N   UNL     1       4.991   4.678  16.243  0.00  0.00    +0.000 NA
ATOM     29  C   UNL     1       4.168   4.413  17.257  0.00  0.00    +0.000 A 
ATOM     30  C   UNL     1       3.966   3.081  17.580  0.00  0.00    +0.000 A 
ATOM     31  C   UNL     1       3.178   2.695  18.664  0.00  0.00    +0.000 A 
ATOM     32  C   UNL     1       2.549   3.660  19.454  0.00  0.00    +0.000 A 
ATOM     33  C   UNL     1       2.705   5.016  19.106  0.00  0.00    +0.000 A 
ATOM     34  C   UNL     1       3.525   5.411  18.008  0.00  0.00    +0.000 A 
BRANCH  32  35
ATOM     35  C   UNL     1       1.754   3.252  20.673  0.00  0.00    +0.000 C 
ATOM     36  F   UNL     1       0.555   3.890  20.778  0.00  0.00    +0.000 F 
ATOM     37  F   UNL     1       1.468   1.921  20.681  0.00  0.00    +0.000 F 
ATOM     38  F   UNL     1       2.414   3.504  21.836  0.00  0.00    +0.000 F 
ENDBRANCH  32  35
ENDBRANCH  23  25
ENDBRANCH  22  23
ENDBRANCH   2  22
TORSDOF 7
ENDMDL
MODEL 9
REMARK VINA RESULT:      -9.2      8.647     11.942
REMARK  Name = 
REMARK  7 active torsions:
REMARK  status: ('A' for Active; 'I' for Inactive)
REMARK    1  A    between atoms: C_2  and  C_3
REMARK    2  A    between atoms: C_3  and  N_4
REMARK    3  A    between atoms: N_4  and  C_5
REMARK    4  A    between atoms: C_12  and  C_13
REMARK    5  A    between atoms: N_19  and  C_20
REMARK    6  A    between atoms: N_22  and  C_23
REMARK    7  A    between atoms: C_26  and  C_27
REMARK                            x       y       z     vdW  Elec       q    Type
REMARK                         _______ _______ _______ _____ _____    ______ ____
ROOT
ATOM      1  O   UNL     1       1.700   8.814  19.940  0.00  0.00    +0.000 OA
ATOM      2  C   UNL     1       1.040   8.323  20.853  0.00  0.00    +0.000 C 
ATOM      3  N   UNL     1       0.272   9.046  21.752  0.00  0.00    +0.000 N 
ATOM      4  H   UNL     1       0.063   8.498  22.587  0.00  0.00    +0.000 HD
ENDROOT
BRANCH   3   5
ATOM      5  C   UNL     1       0.153  10.524  21.884  0.00  0.00    +0.000 C 
ATOM      6  C   UNL     1      -0.736  11.325  20.925  0.00  0.00    +0.000 C 
ATOM      7  N   UNL     1      -1.262  12.092  22.081  0.00  0.00    +0.000 NA
ATOM      8  C   UNL     1      -0.773  11.034  23.001  0.00  0.00    +0.000 C 
BRANCH   7   9
ATOM      9  C   UNL     1      -2.744  12.163  22.082  0.00  0.00    +0.000 C 
ATOM     10  C   UNL     1      -3.221  12.370  23.538  0.00  0.00    +0.000 C 
ATOM     11  C   UNL     1      -4.688  12.787  23.658  0.00  0.00    +0.000 C 
ATOM     12  C   UNL     1      -5.027  14.022  22.806  0.00  0.00    +0.000 C 
ATOM     13  C   UNL     1      -4.689  13.688  21.349  0.00  0.00    +0.000 C 
ATOM     14  C   UNL     1      -3.225  13.302  21.154  0.00  0.00    +0.000 C 
BRANCH  12  15
ATOM     15  C   UNL     1      -4.351  15.311  23.327  0.00  0.00    +0.000 C 
ATOM     16  C   UNL     1      -4.635  16.564  22.514  0.00  0.00    +0.000 C 
ATOM     17  O   UNL     1      -4.711  17.624  23.479  0.00  0.00    +0.000 OA
ATOM     18  C   UNL     1      -4.879  17.067  24.712  0.00  0.00    +0.000 C 
ATOM     19  O   UNL     1      -5.019  17.690  25.749  0.00  0.00    +0.000 OA
ATOM     20  N   UNL     1      -4.833  15.703  24.616  0.00  0.00    +0.000 N 
ATOM     21  H   UNL     1      -4.681  15.191  25.475  0.00  0.00    +0.000 HD
ENDBRANCH  12  15
ENDBRANCH   7   9
ENDBRANCH   3   5
BRANCH   2  22
ATOM     22  C   UNL     1       0.974   6.796  21.079  0.00  0.00    +0.000 C 
BRANCH  22  23
ATOM     23  N   UNL     1       2.256   6.086  20.910  0.00  0.00    +0.000 N 
ATOM     24  H   UNL     1       2.783   6.058  21.781  0.00  0.00    +0.000 HD
BRANCH  23  25
ATOM     25  C   UNL     1       2.226   4.810  20.321  0.00  0.00    +0.000 A 
ATOM     26  N   UNL     1       1.457   3.870  20.900  0.00  0.00    +0.000 NA
ATOM     27  C   UNL     1       1.515   2.636  20.384  0.00  0.00    +0.000 A 
ATOM     28  N   UNL     1       2.232   2.257  19.329  0.00  0.00    +0.000 NA
ATOM     29  C   UNL     1       2.931   3.209  18.711  0.00  0.00    +0.000 A 
ATOM     30  C   UNL     1       3.626   2.846  17.568  0.00  0.00    +0.000 A 
ATOM     31  C   UNL     1       4.335   3.777  16.808  0.00  0.00    +0.000 A 
ATOM     32  C   UNL     1       4.374   5.118  17.198  0.00  0.00    +0.000 A 
ATOM     33  C   UNL     1       3.714   5.490  18.385  0.00  0.00    +0.000 A 
ATOM     34  C   UNL     1       2.975   4.542  19.152  0.00  0.00    +0.000 A 
BRANCH  32  35
ATOM     35  C   UNL     1       5.079   6.143  16.339  0.00  0.00    +0.000 C 
ATOM     36  F   UNL     1       5.404   5.681  15.099  0.00  0.00    +0.000 F 
ATOM     37  F   UNL     1       4.320   7.254  16.133  0.00  0.00    +0.000 F 
ATOM     38  F   UNL     1       6.243   6.577  16.894  0.00  0.00    +0.000 F 
ENDBRANCH  32  35
ENDBRANCH  23  25
ENDBRANCH  22  23
ENDBRANCH   2  22
TORSDOF 7
ENDMDL
