MODEL 1
REMARK VINA RESULT:      -7.4      0.000      0.000
REMARK  Name = 
REMARK  14 active torsions:
REMARK  status: ('A' for Active; 'I' for Inactive)
REMARK    1  A    between atoms: N_1  and  C_2
REMARK    2  A    between atoms: C_3  and  N_4
REMARK    3  A    between atoms: C_5  and  C_7
REMARK    4  A    between atoms: C_7  and  C_8
REMARK    5  A    between atoms: C_8  and  C_9
REMARK    6  A    between atoms: C_9  and  C_10
REMARK    7  A    between atoms: C_10  and  C_11
REMARK    8  A    between atoms: C_11  and  C_12
REMARK    9  A    between atoms: C_12  and  N_13
REMARK   10  A    between atoms: C_14  and  C_16
REMARK   11  A    between atoms: C_16  and  N_17
REMARK   12  A    between atoms: C_16  and  C_18
REMARK   13  A    between atoms: C_27  and  C_28
REMARK   14  A    between atoms: C_28  and  O_30
REMARK                            x       y       z     vdW  Elec       q    Type
REMARK                         _______ _______ _______ _____ _____    ______ ____
ROOT
ATOM      1  C   UNL     1       2.144   2.189  19.678  0.00  0.00    +0.000 C 
ENDROOT
BRANCH   1   2
ATOM      2  C   UNL     1       2.439   1.799  18.239  0.00  0.00    +0.000 C 
BRANCH   2   4
ATOM      3  N   UNL     1       4.497   2.922  17.567  0.00  0.00    +0.000 N 
ATOM      4  C   UNL     1       3.122   2.963  17.567  0.00  0.00    +0.000 C 
ATOM      5  O   UNL     1       2.433   3.891  17.125  0.00  0.00    +0.000 OA
ATOM      6  H   UNL     1       4.910   2.026  17.807  0.00  0.00    +0.000 HD
BRANCH   3   8
ATOM      7  C   UNL     1       6.164   4.833  17.852  0.00  0.00    +0.000 A 
ATOM      8  C   UNL     1       5.413   3.908  17.083  0.00  0.00    +0.000 A 
ATOM      9  C   UNL     1       5.597   3.952  15.694  0.00  0.00    +0.000 A 
ATOM     10  N   UNL     1       6.370   4.843  15.034  0.00  0.00    +0.000 NA
ATOM     11  C   UNL     1       7.008   5.765  15.793  0.00  0.00    +0.000 A 
ATOM     12  C   UNL     1       6.937   5.813  17.178  0.00  0.00    +0.000 A 
BRANCH   7  13
ATOM     13  N   UNL     1       6.065   4.929  19.273  0.00  0.00    +0.000 N 
ATOM     14  H   UNL     1       5.118   4.652  19.569  0.00  0.00    +0.000 HD
ATOM     15  H   UNL     1       6.061   5.925  19.530  0.00  0.00    +0.000 HD
ENDBRANCH   7  13
BRANCH  12  16
ATOM     16  C   UNL     1       7.684   6.906  17.849  0.00  0.00    +0.000 C 
ATOM     17  O   UNL     1       8.242   6.744  18.924  0.00  0.00    +0.000 OA
BRANCH  16  18
ATOM     18  O   UNL     1       7.722   8.086  17.187  0.00  0.00    +0.000 OA
ATOM     19  H   UNL     1       6.880   8.592  17.316  0.00  0.00    +0.000 HD
ENDBRANCH  16  18
ENDBRANCH  12  16
ENDBRANCH   3   8
ENDBRANCH   2   4
ENDBRANCH   1   2
BRANCH   1  20
ATOM     20  C   UNL     1       0.766   2.821  19.856  0.00  0.00    +0.000 C 
BRANCH  20  21
ATOM     21  C   UNL     1       0.914   4.186  20.526  0.00  0.00    +0.000 C 
BRANCH  21  22
ATOM     22  C   UNL     1       2.379   4.512  20.790  0.00  0.00    +0.000 C 
BRANCH  22  23
ATOM     23  C   UNL     1       2.768   5.819  20.108  0.00  0.00    +0.000 C 
BRANCH  23  24
ATOM     24  N   UNL     1       1.985   6.934  20.599  0.00  0.00    +0.000 N 
ATOM     25  C   UNL     1       1.773   8.053  19.811  0.00  0.00    +0.000 C 
ATOM     26  O   UNL     1       2.282   8.174  18.701  0.00  0.00    +0.000 OA
ATOM     27  H   UNL     1       1.576   6.881  21.522  0.00  0.00    +0.000 HD
BRANCH  25  28
ATOM     28  C   UNL     1       0.871   9.133  20.473  0.00  0.00    +0.000 C 
BRANCH  28  29
ATOM     29  C   UNL     1       0.922  10.485  19.697  0.00  0.00    +0.000 C 
ATOM     30  C   UNL     1       0.049  10.470  18.419  0.00  0.00    +0.000 C 
ATOM     31  C   UNL     1      -1.457  10.523  18.689  0.00  0.00    +0.000 C 
ATOM     32  C   UNL     1      -1.857  11.640  19.650  0.00  0.00    +0.000 C 
ATOM     33  C   UNL     1      -0.983  11.680  20.898  0.00  0.00    +0.000 C 
ATOM     34  C   UNL     1       0.498  11.712  20.527  0.00  0.00    +0.000 C 
ENDBRANCH  28  29
BRANCH  28  35
ATOM     35  N   UNL     1       1.302   9.291  21.883  0.00  0.00    +0.000 NA
ATOM     36  H   UNL     1       2.306   9.493  21.898  0.00  0.00    +0.000 HD
ATOM     37  H   UNL     1       1.187   8.413  22.382  0.00  0.00    +0.000 HD
ENDBRANCH  28  35
ENDBRANCH  25  28
ENDBRANCH  23  24
ENDBRANCH  22  23
ENDBRANCH  21  22
ENDBRANCH  20  21
ENDBRANCH   1  20
TORSDOF 14
ENDMDL
MODEL 2
REMARK VINA RESULT:      -7.1      1.499      1.819
REMARK  Name = 
REMARK  14 active torsions:
REMARK  status: ('A' for Active; 'I' for Inactive)
REMARK    1  A    between atoms: N_1  and  C_2
REMARK    2  A    between atoms: C_3  and  N_4
REMARK    3  A    between atoms: C_5  and  C_7
REMARK    4  A    between atoms: C_7  and  C_8
REMARK    5  A    between atoms: C_8  and  C_9
REMARK    6  A    between atoms: C_9  and  C_10
REMARK    7  A    between atoms: C_10  and  C_11
REMARK    8  A    between atoms: C_11  and  C_12
REMARK    9  A    between atoms: C_12  and  N_13
REMARK   10  A    between atoms: C_14  and  C_16
REMARK   11  A    between atoms: C_16  and  N_17
REMARK   12  A    between atoms: C_16  and  C_18
REMARK   13  A    between atoms: C_27  and  C_28
REMARK   14  A    between atoms: C_28  and  O_30
REMARK                            x       y       z     vdW  Elec       q    Type
REMARK                         _______ _______ _______ _____ _____    ______ ____
ROOT
ATOM      1  C   UNL     1       1.154   3.584  18.416  0.00  0.00    +0.000 C 
ENDROOT
BRANCH   1   2
ATOM      2  C   UNL     1       1.972   2.487  17.755  0.00  0.00    +0.000 C 
BRANCH   2   4
ATOM      3  N   UNL     1       3.599   4.300  17.627  0.00  0.00    +0.000 N 
ATOM      4  C   UNL     1       3.409   2.940  17.702  0.00  0.00    +0.000 C 
ATOM      5  O   UNL     1       4.307   2.089  17.665  0.00  0.00    +0.000 OA
ATOM      6  H   UNL     1       2.785   4.869  17.840  0.00  0.00    +0.000 HD
BRANCH   3   8
ATOM      7  C   UNL     1       5.894   5.084  18.417  0.00  0.00    +0.000 A 
ATOM      8  C   UNL     1       4.827   5.017  17.485  0.00  0.00    +0.000 A 
ATOM      9  C   UNL     1       4.999   5.719  16.285  0.00  0.00    +0.000 A 
ATOM     10  N   UNL     1       6.058   6.503  15.980  0.00  0.00    +0.000 NA
ATOM     11  C   UNL     1       7.019   6.611  16.927  0.00  0.00    +0.000 A 
ATOM     12  C   UNL     1       6.988   5.945  18.144  0.00  0.00    +0.000 A 
BRANCH   7  13
ATOM     13  N   UNL     1       5.857   4.446  19.694  0.00  0.00    +0.000 N 
ATOM     14  H   UNL     1       6.366   3.553  19.645  0.00  0.00    +0.000 HD
ATOM     15  H   UNL     1       4.898   4.110  19.859  0.00  0.00    +0.000 HD
ENDBRANCH   7  13
BRANCH  12  16
ATOM     16  C   UNL     1       8.117   6.195  19.074  0.00  0.00    +0.000 C 
ATOM     17  O   UNL     1       8.534   5.334  19.833  0.00  0.00    +0.000 OA
BRANCH  16  18
ATOM     18  O   UNL     1       8.666   7.432  19.013  0.00  0.00    +0.000 OA
ATOM     19  H   UNL     1       8.007   8.096  18.686  0.00  0.00    +0.000 HD
ENDBRANCH  16  18
ENDBRANCH  12  16
ENDBRANCH   3   8
ENDBRANCH   2   4
ENDBRANCH   1   2
BRANCH   1  20
ATOM     20  C   UNL     1       0.735   3.240  19.843  0.00  0.00    +0.000 C 
BRANCH  20  21
ATOM     21  C   UNL     1       1.687   3.915  20.829  0.00  0.00    +0.000 C 
BRANCH  21  22
ATOM     22  C   UNL     1       1.402   5.408  20.934  0.00  0.00    +0.000 C 
BRANCH  22  23
ATOM     23  C   UNL     1       2.542   6.214  20.323  0.00  0.00    +0.000 C 
BRANCH  23  24
ATOM     24  N   UNL     1       2.172   7.599  20.120  0.00  0.00    +0.000 N 
ATOM     25  C   UNL     1       2.035   8.117  18.843  0.00  0.00    +0.000 C 
ATOM     26  O   UNL     1       2.275   7.451  17.840  0.00  0.00    +0.000 OA
ATOM     27  H   UNL     1       1.997   8.186  20.925  0.00  0.00    +0.000 HD
BRANCH  25  28
ATOM     28  C   UNL     1       1.586   9.606  18.807  0.00  0.00    +0.000 C 
BRANCH  28  29
ATOM     29  C   UNL     1       0.066   9.759  19.117  0.00  0.00    +0.000 C 
ATOM     30  C   UNL     1      -0.232   9.781  20.637  0.00  0.00    +0.000 C 
ATOM     31  C   UNL     1       0.183  11.077  21.338  0.00  0.00    +0.000 C 
ATOM     32  C   UNL     1      -0.324  12.332  20.631  0.00  0.00    +0.000 C 
ATOM     33  C   UNL     1      -0.061  12.305  19.129  0.00  0.00    +0.000 C 
ATOM     34  C   UNL     1      -0.587  11.015  18.506  0.00  0.00    +0.000 C 
ENDBRANCH  28  29
BRANCH  28  35
ATOM     35  N   UNL     1       1.934  10.159  17.477  0.00  0.00    +0.000 NA
ATOM     36  H   UNL     1       1.455   9.610  16.757  0.00  0.00    +0.000 HD
ATOM     37  H   UNL     1       2.928  10.041  17.300  0.00  0.00    +0.000 HD
ENDBRANCH  28  35
ENDBRANCH  25  28
ENDBRANCH  23  24
ENDBRANCH  22  23
ENDBRANCH  21  22
ENDBRANCH  20  21
ENDBRANCH   1  20
TORSDOF 14
ENDMDL
MODEL 3
REMARK VINA RESULT:      -7.0      1.173      1.550
REMARK  Name = 
REMARK  14 active torsions:
REMARK  status: ('A' for Active; 'I' for Inactive)
REMARK    1  A    between atoms: N_1  and  C_2
REMARK    2  A    between atoms: C_3  and  N_4
REMARK    3  A    between atoms: C_5  and  C_7
REMARK    4  A    between atoms: C_7  and  C_8
REMARK    5  A    between atoms: C_8  and  C_9
REMARK    6  A    between atoms: C_9  and  C_10
REMARK    7  A    between atoms: C_10  and  C_11
REMARK    8  A    between atoms: C_11  and  C_12
REMARK    9  A    between atoms: C_12  and  N_13
REMARK   10  A    between atoms: C_14  and  C_16
REMARK   11  A    between atoms: C_16  and  N_17
REMARK   12  A    between atoms: C_16  and  C_18
REMARK   13  A    between atoms: C_27  and  C_28
REMARK   14  A    between atoms: C_28  and  O_30
REMARK                            x       y       z     vdW  Elec       q    Type
REMARK                         _______ _______ _______ _____ _____    ______ ____
ROOT
ATOM      1  C   UNL     1       1.625   2.245  19.495  0.00  0.00    +0.000 C 
ENDROOT
BRANCH   1   2
ATOM      2  C   UNL     1       2.504   1.610  18.430  0.00  0.00    +0.000 C 
BRANCH   2   4
ATOM      3  N   UNL     1       4.495   2.872  17.800  0.00  0.00    +0.000 N 
ATOM      4  C   UNL     1       3.139   2.716  17.625  0.00  0.00    +0.000 C 
ATOM      5  O   UNL     1       2.420   3.438  16.923  0.00  0.00    +0.000 OA
ATOM      6  H   UNL     1       4.969   2.104  18.265  0.00  0.00    +0.000 HD
BRANCH   3   8
ATOM      7  C   UNL     1       6.136   4.820  17.945  0.00  0.00    +0.000 A 
ATOM      8  C   UNL     1       5.351   3.871  17.241  0.00  0.00    +0.000 A 
ATOM      9  C   UNL     1       5.434   3.904  15.843  0.00  0.00    +0.000 A 
ATOM     10  N   UNL     1       6.137   4.804  15.120  0.00  0.00    +0.000 NA
ATOM     11  C   UNL     1       6.808   5.747  15.823  0.00  0.00    +0.000 A 
ATOM     12  C   UNL     1       6.836   5.809  17.209  0.00  0.00    +0.000 A 
BRANCH   7  13
ATOM     13  N   UNL     1       6.138   4.929  19.369  0.00  0.00    +0.000 N 
ATOM     14  H   UNL     1       5.510   4.217  19.767  0.00  0.00    +0.000 HD
ATOM     15  H   UNL     1       5.638   5.790  19.628  0.00  0.00    +0.000 HD
ENDBRANCH   7  13
BRANCH  12  16
ATOM     16  C   UNL     1       7.606   6.925  17.814  0.00  0.00    +0.000 C 
ATOM     17  O   UNL     1       8.196   6.803  18.877  0.00  0.00    +0.000 OA
BRANCH  16  18
ATOM     18  O   UNL     1       7.627   8.078  17.104  0.00  0.00    +0.000 OA
ATOM     19  H   UNL     1       6.768   8.217  16.630  0.00  0.00    +0.000 HD
ENDBRANCH  16  18
ENDBRANCH  12  16
ENDBRANCH   3   8
ENDBRANCH   2   4
ENDBRANCH   1   2
BRANCH   1  20
ATOM     20  C   UNL     1       2.424   2.913  20.610  0.00  0.00    +0.000 C 
BRANCH  20  21
ATOM     21  C   UNL     1       1.742   4.220  21.013  0.00  0.00    +0.000 C 
BRANCH  21  22
ATOM     22  C   UNL     1       1.555   5.135  19.810  0.00  0.00    +0.000 C 
BRANCH  22  23
ATOM     23  C   UNL     1       2.570   6.272  19.839  0.00  0.00    +0.000 C 
BRANCH  23  24
ATOM     24  N   UNL     1       2.035   7.485  19.256  0.00  0.00    +0.000 N 
ATOM     25  C   UNL     1       1.561   8.509  20.058  0.00  0.00    +0.000 C 
ATOM     26  O   UNL     1       1.517   8.412  21.281  0.00  0.00    +0.000 OA
ATOM     27  H   UNL     1       2.027   7.585  18.249  0.00  0.00    +0.000 HD
BRANCH  25  28
ATOM     28  C   UNL     1       1.069   9.756  19.270  0.00  0.00    +0.000 C 
BRANCH  28  29
ATOM     29  C   UNL     1      -0.416  10.100  19.598  0.00  0.00    +0.000 C 
ATOM     30  C   UNL     1      -0.573  10.823  20.959  0.00  0.00    +0.000 C 
ATOM     31  C   UNL     1      -0.092  12.276  20.954  0.00  0.00    +0.000 C 
ATOM     32  C   UNL     1      -0.660  13.094  19.796  0.00  0.00    +0.000 C 
ATOM     33  C   UNL     1      -0.536  12.376  18.456  0.00  0.00    +0.000 C 
ATOM     34  C   UNL     1      -1.120  10.967  18.536  0.00  0.00    +0.000 C 
ENDBRANCH  28  29
BRANCH  28  35
ATOM     35  N   UNL     1       1.266   9.493  17.824  0.00  0.00    +0.000 NA
ATOM     36  H   UNL     1       2.104   9.991  17.511  0.00  0.00    +0.000 HD
ATOM     37  H   UNL     1       0.494   9.885  17.290  0.00  0.00    +0.000 HD
ENDBRANCH  28  35
ENDBRANCH  25  28
ENDBRANCH  23  24
ENDBRANCH  22  23
ENDBRANCH  21  22
ENDBRANCH  20  21
ENDBRANCH   1  20
TORSDOF 14
ENDMDL
MODEL 4
REMARK VINA RESULT:      -7.0      1.268      1.693
REMARK  Name = 
REMARK  14 active torsions:
REMARK  status: ('A' for Active; 'I' for Inactive)
REMARK    1  A    between atoms: N_1  and  C_2
REMARK    2  A    between atoms: C_3  and  N_4
REMARK    3  A    between atoms: C_5  and  C_7
REMARK    4  A    between atoms: C_7  and  C_8
REMARK    5  A    between atoms: C_8  and  C_9
REMARK    6  A    between atoms: C_9  and  C_10
REMARK    7  A    between atoms: C_10  and  C_11
REMARK    8  A    between atoms: C_11  and  C_12
REMARK    9  A    between atoms: C_12  and  N_13
REMARK   10  A    between atoms: C_14  and  C_16
REMARK   11  A    between atoms: C_16  and  N_17
REMARK   12  A    between atoms: C_16  and  C_18
REMARK   13  A    between atoms: C_27  and  C_28
REMARK   14  A    between atoms: C_28  and  O_30
REMARK                            x       y       z     vdW  Elec       q    Type
REMARK                         _______ _______ _______ _____ _____    ______ ____
ROOT
ATOM      1  C   UNL     1       1.680   2.075  19.057  0.00  0.00    +0.000 C 
ENDROOT
BRANCH   1   2
ATOM      2  C   UNL     1       3.101   1.805  18.590  0.00  0.00    +0.000 C 
BRANCH   2   4
ATOM      3  N   UNL     1       4.810   3.470  18.084  0.00  0.00    +0.000 N 
ATOM      4  C   UNL     1       3.560   2.987  17.774  0.00  0.00    +0.000 C 
ATOM      5  O   UNL     1       2.788   3.479  16.942  0.00  0.00    +0.000 OA
ATOM      6  H   UNL     1       5.386   2.862  18.659  0.00  0.00    +0.000 HD
BRANCH   3   8
ATOM      7  C   UNL     1       6.449   5.423  18.186  0.00  0.00    +0.000 A 
ATOM      8  C   UNL     1       5.476   4.615  17.545  0.00  0.00    +0.000 A 
ATOM      9  C   UNL     1       5.138   4.965  16.231  0.00  0.00    +0.000 A 
ATOM     10  N   UNL     1       5.608   6.042  15.561  0.00  0.00    +0.000 NA
ATOM     11  C   UNL     1       6.472   6.838  16.234  0.00  0.00    +0.000 A 
ATOM     12  C   UNL     1       6.913   6.589  17.526  0.00  0.00    +0.000 A 
BRANCH   7  13
ATOM     13  N   UNL     1       6.877   5.209  19.532  0.00  0.00    +0.000 N 
ATOM     14  H   UNL     1       7.847   4.867  19.532  0.00  0.00    +0.000 HD
ATOM     15  H   UNL     1       6.384   4.385  19.901  0.00  0.00    +0.000 HD
ENDBRANCH   7  13
BRANCH  12  16
ATOM     16  C   UNL     1       7.845   7.580  18.118  0.00  0.00    +0.000 C 
ATOM     17  O   UNL     1       7.895   8.737  17.727  0.00  0.00    +0.000 OA
BRANCH  16  18
ATOM     18  O   UNL     1       8.621   7.127  19.131  0.00  0.00    +0.000 OA
ATOM     19  H   UNL     1       8.207   7.326  20.010  0.00  0.00    +0.000 HD
ENDBRANCH  16  18
ENDBRANCH  12  16
ENDBRANCH   3   8
ENDBRANCH   2   4
ENDBRANCH   1   2
BRANCH   1  20
ATOM     20  C   UNL     1       1.619   2.772  20.414  0.00  0.00    +0.000 C 
BRANCH  20  21
ATOM     21  C   UNL     1       0.943   4.133  20.257  0.00  0.00    +0.000 C 
BRANCH  21  22
ATOM     22  C   UNL     1       1.768   5.235  20.911  0.00  0.00    +0.000 C 
BRANCH  22  23
ATOM     23  C   UNL     1       2.648   5.929  19.877  0.00  0.00    +0.000 C 
BRANCH  23  24
ATOM     24  N   UNL     1       2.384   7.351  19.815  0.00  0.00    +0.000 N 
ATOM     25  C   UNL     1       1.970   7.945  18.634  0.00  0.00    +0.000 C 
ATOM     26  O   UNL     1       1.868   7.312  17.588  0.00  0.00    +0.000 OA
ATOM     27  H   UNL     1       2.489   7.908  20.652  0.00  0.00    +0.000 HD
BRANCH  25  28
ATOM     28  C   UNL     1       1.685   9.469  18.757  0.00  0.00    +0.000 C 
BRANCH  28  29
ATOM     29  C   UNL     1       0.192   9.752  19.104  0.00  0.00    +0.000 C 
ATOM     30  C   UNL     1      -0.140   9.460  20.589  0.00  0.00    +0.000 C 
ATOM     31  C   UNL     1       0.428  10.488  21.571  0.00  0.00    +0.000 C 
ATOM     32  C   UNL     1       0.113  11.930  21.181  0.00  0.00    +0.000 C 
ATOM     33  C   UNL     1       0.409  12.218  19.714  0.00  0.00    +0.000 C 
ATOM     34  C   UNL     1      -0.269  11.193  18.808  0.00  0.00    +0.000 C 
ENDBRANCH  28  29
BRANCH  28  35
ATOM     35  N   UNL     1       2.086  10.115  17.485  0.00  0.00    +0.000 NA
ATOM     36  H   UNL     1       2.615  10.965  17.700  0.00  0.00    +0.000 HD
ATOM     37  H   UNL     1       1.262  10.423  16.975  0.00  0.00    +0.000 HD
ENDBRANCH  28  35
ENDBRANCH  25  28
ENDBRANCH  23  24
ENDBRANCH  22  23
ENDBRANCH  21  22
ENDBRANCH  20  21
ENDBRANCH   1  20
TORSDOF 14
ENDMDL
MODEL 5
REMARK VINA RESULT:      -7.0      1.094      1.311
REMARK  Name = 
REMARK  14 active torsions:
REMARK  status: ('A' for Active; 'I' for Inactive)
REMARK    1  A    between atoms: N_1  and  C_2
REMARK    2  A    between atoms: C_3  and  N_4
REMARK    3  A    between atoms: C_5  and  C_7
REMARK    4  A    between atoms: C_7  and  C_8
REMARK    5  A    between atoms: C_8  and  C_9
REMARK    6  A    between atoms: C_9  and  C_10
REMARK    7  A    between atoms: C_10  and  C_11
REMARK    8  A    between atoms: C_11  and  C_12
REMARK    9  A    between atoms: C_12  and  N_13
REMARK   10  A    between atoms: C_14  and  C_16
REMARK   11  A    between atoms: C_16  and  N_17
REMARK   12  A    between atoms: C_16  and  C_18
REMARK   13  A    between atoms: C_27  and  C_28
REMARK   14  A    between atoms: C_28  and  O_30
REMARK                            x       y       z     vdW  Elec       q    Type
REMARK                         _______ _______ _______ _____ _____    ______ ____
ROOT
ATOM      1  C   UNL     1       1.072   2.348  18.947  0.00  0.00    +0.000 C 
ENDROOT
BRANCH   1   2
ATOM      2  C   UNL     1       1.997   1.808  17.869  0.00  0.00    +0.000 C 
BRANCH   2   4
ATOM      3  N   UNL     1       3.811   3.316  17.248  0.00  0.00    +0.000 N 
ATOM      4  C   UNL     1       3.381   2.347  18.125  0.00  0.00    +0.000 C 
ATOM      5  O   UNL     1       4.057   1.858  19.039  0.00  0.00    +0.000 OA
ATOM      6  H   UNL     1       3.090   3.732  16.667  0.00  0.00    +0.000 HD
BRANCH   3   8
ATOM      7  C   UNL     1       5.783   4.590  18.248  0.00  0.00    +0.000 A 
ATOM      8  C   UNL     1       5.090   3.952  17.187  0.00  0.00    +0.000 A 
ATOM      9  C   UNL     1       5.734   3.929  15.943  0.00  0.00    +0.000 A 
ATOM     10  N   UNL     1       6.916   4.521  15.661  0.00  0.00    +0.000 NA
ATOM     11  C   UNL     1       7.510   5.192  16.676  0.00  0.00    +0.000 A 
ATOM     12  C   UNL     1       6.996   5.266  17.963  0.00  0.00    +0.000 A 
BRANCH   7  13
ATOM     13  N   UNL     1       5.246   4.718  19.565  0.00  0.00    +0.000 N 
ATOM     14  H   UNL     1       4.219   4.739  19.515  0.00  0.00    +0.000 HD
ATOM     15  H   UNL     1       5.441   5.670  19.902  0.00  0.00    +0.000 HD
ENDBRANCH   7  13
BRANCH  12  16
ATOM     16  C   UNL     1       7.770   6.063  18.947  0.00  0.00    +0.000 C 
ATOM     17  O   UNL     1       8.239   7.156  18.670  0.00  0.00    +0.000 OA
BRANCH  16  18
ATOM     18  O   UNL     1       7.905   5.510  20.176  0.00  0.00    +0.000 OA
ATOM     19  H   UNL     1       7.397   6.026  20.854  0.00  0.00    +0.000 HD
ENDBRANCH  16  18
ENDBRANCH  12  16
ENDBRANCH   3   8
ENDBRANCH   2   4
ENDBRANCH   1   2
BRANCH   1  20
ATOM     20  C   UNL     1       1.195   3.857  19.139  0.00  0.00    +0.000 C 
BRANCH  20  21
ATOM     21  C   UNL     1       1.097   4.191  20.627  0.00  0.00    +0.000 C 
BRANCH  21  22
ATOM     22  C   UNL     1       2.170   5.192  21.037  0.00  0.00    +0.000 C 
BRANCH  22  23
ATOM     23  C   UNL     1       2.157   6.400  20.108  0.00  0.00    +0.000 C 
BRANCH  23  24
ATOM     24  N   UNL     1       1.573   7.562  20.744  0.00  0.00    +0.000 N 
ATOM     25  C   UNL     1       1.366   8.732  20.033  0.00  0.00    +0.000 C 
ATOM     26  O   UNL     1       1.718   8.854  18.864  0.00  0.00    +0.000 OA
ATOM     27  H   UNL     1       1.300   7.506  21.717  0.00  0.00    +0.000 HD
BRANCH  25  28
ATOM     28  C   UNL     1       0.685   9.863  20.856  0.00  0.00    +0.000 C 
BRANCH  28  29
ATOM     29  C   UNL     1       0.784  11.242  20.136  0.00  0.00    +0.000 C 
ATOM     30  C   UNL     1      -0.298  11.421  19.043  0.00  0.00    +0.000 C 
ATOM     31  C   UNL     1      -1.709  11.652  19.591  0.00  0.00    +0.000 C 
ATOM     32  C   UNL     1      -1.771  12.748  20.651  0.00  0.00    +0.000 C 
ATOM     33  C   UNL     1      -0.689  12.596  21.716  0.00  0.00    +0.000 C 
ATOM     34  C   UNL     1       0.690  12.460  21.076  0.00  0.00    +0.000 C 
ENDBRANCH  28  29
BRANCH  28  35
ATOM     35  N   UNL     1       1.315   9.896  22.198  0.00  0.00    +0.000 NA
ATOM     36  H   UNL     1       0.895  10.658  22.739  0.00  0.00    +0.000 HD
ATOM     37  H   UNL     1       2.301  10.126  22.114  0.00  0.00    +0.000 HD
ENDBRANCH  28  35
ENDBRANCH  25  28
ENDBRANCH  23  24
ENDBRANCH  22  23
ENDBRANCH  21  22
ENDBRANCH  20  21
ENDBRANCH   1  20
TORSDOF 14
ENDMDL
MODEL 6
REMARK VINA RESULT:      -7.0      1.499      1.947
REMARK  Name = 
REMARK  14 active torsions:
REMARK  status: ('A' for Active; 'I' for Inactive)
REMARK    1  A    between atoms: N_1  and  C_2
REMARK    2  A    between atoms: C_3  and  N_4
REMARK    3  A    between atoms: C_5  and  C_7
REMARK    4  A    between atoms: C_7  and  C_8
REMARK    5  A    between atoms: C_8  and  C_9
REMARK    6  A    between atoms: C_9  and  C_10
REMARK    7  A    between atoms: C_10  and  C_11
REMARK    8  A    between atoms: C_11  and  C_12
REMARK    9  A    between atoms: C_12  and  N_13
REMARK   10  A    between atoms: C_14  and  C_16
REMARK   11  A    between atoms: C_16  and  N_17
REMARK   12  A    between atoms: C_16  and  C_18
REMARK   13  A    between atoms: C_27  and  C_28
REMARK   14  A    between atoms: C_28  and  O_30
REMARK                            x       y       z     vdW  Elec       q    Type
REMARK                         _______ _______ _______ _____ _____    ______ ____
ROOT
ATOM      1  C   UNL     1       1.143   2.930  18.532  0.00  0.00    +0.000 C 
ENDROOT
BRANCH   1   2
ATOM      2  C   UNL     1       2.114   1.817  18.172  0.00  0.00    +0.000 C 
BRANCH   2   4
ATOM      3  N   UNL     1       3.789   3.429  17.433  0.00  0.00    +0.000 N 
ATOM      4  C   UNL     1       3.514   2.368  18.265  0.00  0.00    +0.000 C 
ATOM      5  O   UNL     1       4.331   1.814  19.011  0.00  0.00    +0.000 OA
ATOM      6  H   UNL     1       2.981   3.878  17.013  0.00  0.00    +0.000 HD
BRANCH   3   8
ATOM      7  C   UNL     1       5.863   4.680  18.237  0.00  0.00    +0.000 A 
ATOM      8  C   UNL     1       5.035   4.104  17.240  0.00  0.00    +0.000 A 
ATOM      9  C   UNL     1       5.492   4.192  15.918  0.00  0.00    +0.000 A 
ATOM     10  N   UNL     1       6.610   4.837  15.517  0.00  0.00    +0.000 NA
ATOM     11  C   UNL     1       7.333   5.447  16.486  0.00  0.00    +0.000 A 
ATOM     12  C   UNL     1       7.010   5.410  17.835  0.00  0.00    +0.000 A 
BRANCH   7  13
ATOM     13  N   UNL     1       5.520   4.694  19.623  0.00  0.00    +0.000 N 
ATOM     14  H   UNL     1       4.996   3.839  19.855  0.00  0.00    +0.000 HD
ATOM     15  H   UNL     1       4.795   5.409  19.770  0.00  0.00    +0.000 HD
ENDBRANCH   7  13
BRANCH  12  16
ATOM     16  C   UNL     1       7.904   6.153  18.758  0.00  0.00    +0.000 C 
ATOM     17  O   UNL     1       8.206   7.321  18.567  0.00  0.00    +0.000 OA
BRANCH  16  18
ATOM     18  O   UNL     1       8.347   5.460  19.834  0.00  0.00    +0.000 OA
ATOM     19  H   UNL     1       9.126   4.895  19.594  0.00  0.00    +0.000 HD
ENDBRANCH  16  18
ENDBRANCH  12  16
ENDBRANCH   3   8
ENDBRANCH   2   4
ENDBRANCH   1   2
BRANCH   1  20
ATOM     20  C   UNL     1       0.996   3.131  20.038  0.00  0.00    +0.000 C 
BRANCH  20  21
ATOM     21  C   UNL     1       0.980   4.626  20.353  0.00  0.00    +0.000 C 
BRANCH  21  22
ATOM     22  C   UNL     1       2.001   5.376  19.507  0.00  0.00    +0.000 C 
BRANCH  22  23
ATOM     23  C   UNL     1       2.429   6.664  20.202  0.00  0.00    +0.000 C 
BRANCH  23  24
ATOM     24  N   UNL     1       1.931   7.836  19.513  0.00  0.00    +0.000 N 
ATOM     25  C   UNL     1       1.167   8.779  20.179  0.00  0.00    +0.000 C 
ATOM     26  O   UNL     1       0.831   8.636  21.351  0.00  0.00    +0.000 OA
ATOM     27  H   UNL     1       2.163   7.970  18.537  0.00  0.00    +0.000 HD
BRANCH  25  28
ATOM     28  C   UNL     1       0.757   9.998  19.303  0.00  0.00    +0.000 C 
BRANCH  28  29
ATOM     29  C   UNL     1      -0.577  10.639  19.791  0.00  0.00    +0.000 C 
ATOM     30  C   UNL     1      -0.374  11.585  21.001  0.00  0.00    +0.000 C 
ATOM     31  C   UNL     1       0.298  12.915  20.650  0.00  0.00    +0.000 C 
ATOM     32  C   UNL     1      -0.352  13.623  19.465  0.00  0.00    +0.000 C 
ATOM     33  C   UNL     1      -0.582  12.692  18.280  0.00  0.00    +0.000 C 
ATOM     34  C   UNL     1      -1.335  11.436  18.711  0.00  0.00    +0.000 C 
ENDBRANCH  28  29
BRANCH  28  35
ATOM     35  N   UNL     1       0.665   9.541  17.895  0.00  0.00    +0.000 NA
ATOM     36  H   UNL     1      -0.071   8.833  17.827  0.00  0.00    +0.000 HD
ATOM     37  H   UNL     1       1.526   9.074  17.624  0.00  0.00    +0.000 HD
ENDBRANCH  28  35
ENDBRANCH  25  28
ENDBRANCH  23  24
ENDBRANCH  22  23
ENDBRANCH  21  22
ENDBRANCH  20  21
ENDBRANCH   1  20
TORSDOF 14
ENDMDL
MODEL 7
REMARK VINA RESULT:      -7.0      2.268      7.776
REMARK  Name = 
REMARK  14 active torsions:
REMARK  status: ('A' for Active; 'I' for Inactive)
REMARK    1  A    between atoms: N_1  and  C_2
REMARK    2  A    between atoms: C_3  and  N_4
REMARK    3  A    between atoms: C_5  and  C_7
REMARK    4  A    between atoms: C_7  and  C_8
REMARK    5  A    between atoms: C_8  and  C_9
REMARK    6  A    between atoms: C_9  and  C_10
REMARK    7  A    between atoms: C_10  and  C_11
REMARK    8  A    between atoms: C_11  and  C_12
REMARK    9  A    between atoms: C_12  and  N_13
REMARK   10  A    between atoms: C_14  and  C_16
REMARK   11  A    between atoms: C_16  and  N_17
REMARK   12  A    between atoms: C_16  and  C_18
REMARK   13  A    between atoms: C_27  and  C_28
REMARK   14  A    between atoms: C_28  and  O_30
REMARK                            x       y       z     vdW  Elec       q    Type
REMARK                         _______ _______ _______ _____ _____    ______ ____
ROOT
ATOM      1  C   UNL     1       4.821   7.126  17.482  0.00  0.00    +0.000 C 
ENDROOT
BRANCH   1   2
ATOM      2  C   UNL     1       3.316   6.920  17.544  0.00  0.00    +0.000 C 
BRANCH   2   4
ATOM      3  N   UNL     1       1.791   8.122  19.020  0.00  0.00    +0.000 N 
ATOM      4  C   UNL     1       2.682   8.218  17.976  0.00  0.00    +0.000 C 
ATOM      5  O   UNL     1       2.940   9.252  17.349  0.00  0.00    +0.000 OA
ATOM      6  H   UNL     1       1.815   7.249  19.539  0.00  0.00    +0.000 HD
BRANCH   3   8
ATOM      7  C   UNL     1       0.852   9.477  20.967  0.00  0.00    +0.000 A 
ATOM      8  C   UNL     1       0.982   9.152  19.593  0.00  0.00    +0.000 A 
ATOM      9  C   UNL     1       0.249   9.936  18.691  0.00  0.00    +0.000 A 
ATOM     10  N   UNL     1      -0.617  10.918  19.030  0.00  0.00    +0.000 NA
ATOM     11  C   UNL     1      -0.779  11.145  20.355  0.00  0.00    +0.000 A 
ATOM     12  C   UNL     1      -0.092  10.464  21.350  0.00  0.00    +0.000 A 
BRANCH   7  13
ATOM     13  N   UNL     1       1.512   8.754  22.006  0.00  0.00    +0.000 N 
ATOM     14  H   UNL     1       1.038   7.852  22.150  0.00  0.00    +0.000 HD
ATOM     15  H   UNL     1       1.313   9.220  22.901  0.00  0.00    +0.000 HD
ENDBRANCH   7  13
BRANCH  12  16
ATOM     16  C   UNL     1      -0.411  10.828  22.753  0.00  0.00    +0.000 C 
ATOM     17  O   UNL     1      -0.477   9.990  23.640  0.00  0.00    +0.000 OA
BRANCH  16  18
ATOM     18  O   UNL     1      -0.604  12.147  22.990  0.00  0.00    +0.000 OA
ATOM     19  H   UNL     1      -1.249  12.532  22.342  0.00  0.00    +0.000 HD
ENDBRANCH  16  18
ENDBRANCH  12  16
ENDBRANCH   3   8
ENDBRANCH   2   4
ENDBRANCH   1   2
BRANCH   1  20
ATOM     20  C   UNL     1       5.442   6.606  16.188  0.00  0.00    +0.000 C 
BRANCH  20  21
ATOM     21  C   UNL     1       6.768   5.914  16.501  0.00  0.00    +0.000 C 
BRANCH  21  22
ATOM     22  C   UNL     1       7.007   4.735  15.567  0.00  0.00    +0.000 C 
BRANCH  22  23
ATOM     23  C   UNL     1       5.859   3.736  15.662  0.00  0.00    +0.000 C 
BRANCH  23  24
ATOM     24  N   UNL     1       5.478   3.485  17.036  0.00  0.00    +0.000 N 
ATOM     25  C   UNL     1       4.146   3.346  17.389  0.00  0.00    +0.000 C 
ATOM     26  O   UNL     1       3.238   3.487  16.575  0.00  0.00    +0.000 OA
ATOM     27  H   UNL     1       6.200   3.394  17.739  0.00  0.00    +0.000 HD
BRANCH  25  28
ATOM     28  C   UNL     1       3.919   3.031  18.895  0.00  0.00    +0.000 C 
BRANCH  28  29
ATOM     29  C   UNL     1       3.036   4.114  19.586  0.00  0.00    +0.000 C 
ATOM     30  C   UNL     1       1.561   4.066  19.118  0.00  0.00    +0.000 C 
ATOM     31  C   UNL     1       0.769   2.875  19.664  0.00  0.00    +0.000 C 
ATOM     32  C   UNL     1       0.903   2.705  21.175  0.00  0.00    +0.000 C 
ATOM     33  C   UNL     1       2.350   2.781  21.648  0.00  0.00    +0.000 C 
ATOM     34  C   UNL     1       3.030   4.045  21.126  0.00  0.00    +0.000 C 
ENDBRANCH  28  29
BRANCH  28  35
ATOM     35  N   UNL     1       5.246   2.907  19.544  0.00  0.00    +0.000 NA
ATOM     36  H   UNL     1       5.663   3.839  19.620  0.00  0.00    +0.000 HD
ATOM     37  H   UNL     1       5.874   2.369  18.952  0.00  0.00    +0.000 HD
ENDBRANCH  28  35
ENDBRANCH  25  28
ENDBRANCH  23  24
ENDBRANCH  22  23
ENDBRANCH  21  22
ENDBRANCH  20  21
ENDBRANCH   1  20
TORSDOF 14
ENDMDL
MODEL 8
REMARK VINA RESULT:      -6.9      1.674      2.171
REMARK  Name = 
REMARK  14 active torsions:
REMARK  status: ('A' for Active; 'I' for Inactive)
REMARK    1  A    between atoms: N_1  and  C_2
REMARK    2  A    between atoms: C_3  and  N_4
REMARK    3  A    between atoms: C_5  and  C_7
REMARK    4  A    between atoms: C_7  and  C_8
REMARK    5  A    between atoms: C_8  and  C_9
REMARK    6  A    between atoms: C_9  and  C_10
REMARK    7  A    between atoms: C_10  and  C_11
REMARK    8  A    between atoms: C_11  and  C_12
REMARK    9  A    between atoms: C_12  and  N_13
REMARK   10  A    between atoms: C_14  and  C_16
REMARK   11  A    between atoms: C_16  and  N_17
REMARK   12  A    between atoms: C_16  and  C_18
REMARK   13  A    between atoms: C_27  and  C_28
REMARK   14  A    between atoms: C_28  and  O_30
REMARK                            x       y       z     vdW  Elec       q    Type
REMARK                         _______ _______ _______ _____ _____    ______ ____
ROOT
ATOM      1  C   UNL     1       2.228   2.085  20.161  0.00  0.00    +0.000 C 
ENDROOT
BRANCH   1   2
ATOM      2  C   UNL     1       3.744   2.105  20.053  0.00  0.00    +0.000 C 
BRANCH   2   4
ATOM      3  N   UNL     1       5.332   3.555  18.901  0.00  0.00    +0.000 N 
ATOM      4  C   UNL     1       4.118   2.912  18.835  0.00  0.00    +0.000 C 
ATOM      5  O   UNL     1       3.312   3.000  17.901  0.00  0.00    +0.000 OA
ATOM      6  H   UNL     1       5.950   3.250  19.647  0.00  0.00    +0.000 HD
BRANCH   3   8
ATOM      7  C   UNL     1       6.117   4.212  16.564  0.00  0.00    +0.000 A 
ATOM      8  C   UNL     1       5.916   4.446  17.948  0.00  0.00    +0.000 A 
ATOM      9  C   UNL     1       6.321   5.696  18.437  0.00  0.00    +0.000 A 
ATOM     10  N   UNL     1       6.946   6.654  17.716  0.00  0.00    +0.000 NA
ATOM     11  C   UNL     1       7.196   6.364  16.418  0.00  0.00    +0.000 A 
ATOM     12  C   UNL     1       6.820   5.179  15.801  0.00  0.00    +0.000 A 
BRANCH   7  13
ATOM     13  N   UNL     1       5.781   2.980  15.925  0.00  0.00    +0.000 N 
ATOM     14  H   UNL     1       6.002   2.196  16.554  0.00  0.00    +0.000 HD
ATOM     15  H   UNL     1       6.458   2.813  15.168  0.00  0.00    +0.000 HD
ENDBRANCH   7  13
BRANCH  12  16
ATOM     16  C   UNL     1       7.194   5.018  14.374  0.00  0.00    +0.000 C 
ATOM     17  O   UNL     1       6.548   4.318  13.610  0.00  0.00    +0.000 OA
BRANCH  16  18
ATOM     18  O   UNL     1       8.285   5.712  13.970  0.00  0.00    +0.000 OA
ATOM     19  H   UNL     1       8.573   6.356  14.666  0.00  0.00    +0.000 HD
ENDBRANCH  16  18
ENDBRANCH  12  16
ENDBRANCH   3   8
ENDBRANCH   2   4
ENDBRANCH   1   2
BRANCH   1  20
ATOM     20  C   UNL     1       1.713   2.720  21.450  0.00  0.00    +0.000 C 
BRANCH  20  21
ATOM     21  C   UNL     1       2.157   4.180  21.512  0.00  0.00    +0.000 C 
BRANCH  21  22
ATOM     22  C   UNL     1       1.476   5.008  20.429  0.00  0.00    +0.000 C 
BRANCH  22  23
ATOM     23  C   UNL     1       2.269   6.280  20.151  0.00  0.00    +0.000 C 
BRANCH  23  24
ATOM     24  N   UNL     1       1.659   7.439  20.768  0.00  0.00    +0.000 N 
ATOM     25  C   UNL     1       1.420   8.589  20.036  0.00  0.00    +0.000 C 
ATOM     26  O   UNL     1       1.763   8.698  18.863  0.00  0.00    +0.000 OA
ATOM     27  H   UNL     1       1.392   7.394  21.743  0.00  0.00    +0.000 HD
BRANCH  25  28
ATOM     28  C   UNL     1       0.715   9.719  20.841  0.00  0.00    +0.000 C 
BRANCH  28  29
ATOM     29  C   UNL     1       0.833  11.099  20.126  0.00  0.00    +0.000 C 
ATOM     30  C   UNL     1      -0.162  11.245  18.948  0.00  0.00    +0.000 C 
ATOM     31  C   UNL     1      -1.618  11.437  19.379  0.00  0.00    +0.000 C 
ATOM     32  C   UNL     1      -1.797  12.533  20.427  0.00  0.00    +0.000 C 
ATOM     33  C   UNL     1      -0.802  12.413  21.576  0.00  0.00    +0.000 C 
ATOM     34  C   UNL     1       0.629  12.315  21.051  0.00  0.00    +0.000 C 
ENDBRANCH  28  29
BRANCH  28  35
ATOM     35  N   UNL     1       1.306   9.751  22.201  0.00  0.00    +0.000 NA
ATOM     36  H   UNL     1       0.942  10.569  22.698  0.00  0.00    +0.000 HD
ATOM     37  H   UNL     1       2.312   9.887  22.140  0.00  0.00    +0.000 HD
ENDBRANCH  28  35
ENDBRANCH  25  28
ENDBRANCH  23  24
ENDBRANCH  22  23
ENDBRANCH  21  22
ENDBRANCH  20  21
ENDBRANCH   1  20
TORSDOF 14
ENDMDL
MODEL 9
REMARK VINA RESULT:      -6.8      2.708      8.296
REMARK  Name = 
REMARK  14 active torsions:
REMARK  status: ('A' for Active; 'I' for Inactive)
REMARK    1  A    between atoms: N_1  and  C_2
REMARK    2  A    between atoms: C_3  and  N_4
REMARK    3  A    between atoms: C_5  and  C_7
REMARK    4  A    between atoms: C_7  and  C_8
REMARK    5  A    between atoms: C_8  and  C_9
REMARK    6  A    between atoms: C_9  and  C_10
REMARK    7  A    between atoms: C_10  and  C_11
REMARK    8  A    between atoms: C_11  and  C_12
REMARK    9  A    between atoms: C_12  and  N_13
REMARK   10  A    between atoms: C_14  and  C_16
REMARK   11  A    between atoms: C_16  and  N_17
REMARK   12  A    between atoms: C_16  and  C_18
REMARK   13  A    between atoms: C_27  and  C_28
REMARK   14  A    between atoms: C_28  and  O_30
REMARK                            x       y       z     vdW  Elec       q    Type
REMARK                         _______ _______ _______ _____ _____    ______ ____
ROOT
ATOM      1  C   UNL     1       3.274   8.286  17.728  0.00  0.00    +0.000 C 
ENDROOT
BRANCH   1   2
ATOM      2  C   UNL     1       1.793   8.023  17.513  0.00  0.00    +0.000 C 
BRANCH   2   4
ATOM      3  N   UNL     1       1.185   9.000  19.663  0.00  0.00    +0.000 N 
ATOM      4  C   UNL     1       1.014   9.047  18.299  0.00  0.00    +0.000 C 
ATOM      5  O   UNL     1       0.242   9.805  17.700  0.00  0.00    +0.000 OA
ATOM      6  H   UNL     1       1.973   8.447  19.989  0.00  0.00    +0.000 HD
BRANCH   3   8
ATOM      7  C   UNL     1       0.404  11.191  20.710  0.00  0.00    +0.000 A 
ATOM      8  C   UNL     1       0.528   9.779  20.666  0.00  0.00    +0.000 A 
ATOM      9  C   UNL     1      -0.070   9.065  21.713  0.00  0.00    +0.000 A 
ATOM     10  N   UNL     1      -0.686   9.612  22.784  0.00  0.00    +0.000 NA
ATOM     11  C   UNL     1      -0.714  10.965  22.836  0.00  0.00    +0.000 A 
ATOM     12  C   UNL     1      -0.188  11.790  21.852  0.00  0.00    +0.000 A 
BRANCH   7  13
ATOM     13  N   UNL     1       0.981  12.057  19.732  0.00  0.00    +0.000 N 
ATOM     14  H   UNL     1       1.121  11.537  18.856  0.00  0.00    +0.000 HD
ATOM     15  H   UNL     1       1.956  12.244  20.002  0.00  0.00    +0.000 HD
ENDBRANCH   7  13
BRANCH  12  16
ATOM     16  C   UNL     1      -0.287  13.253  22.082  0.00  0.00    +0.000 C 
ATOM     17  O   UNL     1       0.695  13.939  22.318  0.00  0.00    +0.000 OA
BRANCH  16  18
ATOM     18  O   UNL     1      -1.532  13.780  21.995  0.00  0.00    +0.000 OA
ATOM     19  H   UNL     1      -1.492  14.753  21.808  0.00  0.00    +0.000 HD
ENDBRANCH  16  18
ENDBRANCH  12  16
ENDBRANCH   3   8
ENDBRANCH   2   4
ENDBRANCH   1   2
BRANCH   1  20
ATOM     20  C   UNL     1       4.098   7.006  17.840  0.00  0.00    +0.000 C 
BRANCH  20  21
ATOM     21  C   UNL     1       5.266   7.065  16.856  0.00  0.00    +0.000 C 
BRANCH  21  22
ATOM     22  C   UNL     1       5.267   5.854  15.931  0.00  0.00    +0.000 C 
BRANCH  22  23
ATOM     23  C   UNL     1       6.089   4.720  16.535  0.00  0.00    +0.000 C 
BRANCH  23  24
ATOM     24  N   UNL     1       5.265   3.809  17.301  0.00  0.00    +0.000 N 
ATOM     25  C   UNL     1       5.285   3.830  18.686  0.00  0.00    +0.000 C 
ATOM     26  O   UNL     1       6.035   4.569  19.316  0.00  0.00    +0.000 OA
ATOM     27  H   UNL     1       4.658   3.164  16.813  0.00  0.00    +0.000 HD
BRANCH  25  28
ATOM     28  C   UNL     1       4.304   2.820  19.349  0.00  0.00    +0.000 C 
BRANCH  28  29
ATOM     29  C   UNL     1       3.151   3.546  20.106  0.00  0.00    +0.000 C 
ATOM     30  C   UNL     1       2.416   4.581  19.219  0.00  0.00    +0.000 C 
ATOM     31  C   UNL     1       1.512   3.961  18.150  0.00  0.00    +0.000 C 
ATOM     32  C   UNL     1       0.565   2.900  18.705  0.00  0.00    +0.000 C 
ATOM     33  C   UNL     1       1.275   1.894  19.604  0.00  0.00    +0.000 C 
ATOM     34  C   UNL     1       2.080   2.604  20.690  0.00  0.00    +0.000 C 
ENDBRANCH  28  29
BRANCH  28  35
ATOM     35  N   UNL     1       5.089   1.944  20.252  0.00  0.00    +0.000 NA
ATOM     36  H   UNL     1       4.787   2.112  21.216  0.00  0.00    +0.000 HD
ATOM     37  H   UNL     1       6.072   2.202  20.220  0.00  0.00    +0.000 HD
ENDBRANCH  28  35
ENDBRANCH  25  28
ENDBRANCH  23  24
ENDBRANCH  22  23
ENDBRANCH  21  22
ENDBRANCH  20  21
ENDBRANCH   1  20
TORSDOF 14
ENDMDL
