MODEL 1
REMARK VINA RESULT:      -7.4      0.000      0.000
REMARK  Name = 
REMARK  4 active torsions:
REMARK  status: ('A' for Active; 'I' for Inactive)
REMARK    1  A    between atoms: C_2  and  OXT_3
REMARK    2  A    between atoms: C_2  and  CA_4
REMARK    3  A    between atoms: C_8  and  C_9
REMARK    4  A    between atoms: N_11  and  C_12
REMARK                            x       y       z     vdW  Elec       q    Type
REMARK                         _______ _______ _______ _____ _____    ______ ____
ROOT
ATOM      1  CA  UNL     1       6.542   4.813  15.904  0.00  0.00    +0.000 A 
ATOM      2  C   UNL     1       7.603   4.744  16.798  0.00  0.00    +0.000 A 
ATOM      3  C   UNL     1       7.331   4.922  18.149  0.00  0.00    +0.000 A 
ATOM      4  C   UNL     1       6.019   5.157  18.555  0.00  0.00    +0.000 A 
ATOM      5  C   UNL     1       5.015   5.210  17.590  0.00  0.00    +0.000 A 
ATOM      6  N   UNL     1       5.237   5.042  16.253  0.00  0.00    +0.000 NA
ENDROOT
BRANCH   5   7
ATOM      7  C   UNL     1       3.594   5.470  18.017  0.00  0.00    +0.000 C 
ATOM      8  O   UNL     1       3.092   6.581  17.899  0.00  0.00    +0.000 OA
ATOM      9  N   UNL     1       2.929   4.375  18.535  0.00  0.00    +0.000 N 
ATOM     10  H   UNL     1       3.493   3.552  18.705  0.00  0.00    +0.000 HD
BRANCH   9  11
ATOM     11  C   UNL     1       1.577   4.443  19.085  0.00  0.00    +0.000 C 
ATOM     12  C   UNL     1       0.889   3.071  19.039  0.00  0.00    +0.000 C 
ATOM     13  C   UNL     1       1.537   2.064  19.990  0.00  0.00    +0.000 C 
ATOM     14  C   UNL     1       1.582   2.593  21.421  0.00  0.00    +0.000 C 
ATOM     15  C   UNL     1       2.207   3.985  21.510  0.00  0.00    +0.000 C 
ATOM     16  C   UNL     1       1.581   4.974  20.525  0.00  0.00    +0.000 C 
ENDBRANCH   9  11
ENDBRANCH   5   7
BRANCH   1  18
ATOM     17  O   UNL     1       6.189   3.861  13.718  0.00  0.00    +0.000 OA
ATOM     18  C   UNL     1       6.797   4.631  14.445  0.00  0.00    +0.000 C 
BRANCH  18  19
ATOM     19  OXT UNL     1       7.802   5.438  14.033  0.00  0.00    +0.000 OA
ATOM     20  HXT UNL     1       7.419   6.288  13.720  0.00  0.00    +0.000 HD
ENDBRANCH  18  19
ENDBRANCH   1  18
TORSDOF 4
ENDMDL
MODEL 2
REMARK VINA RESULT:      -7.3      2.547      4.192
REMARK  Name = 
REMARK  4 active torsions:
REMARK  status: ('A' for Active; 'I' for Inactive)
REMARK    1  A    between atoms: C_2  and  OXT_3
REMARK    2  A    between atoms: C_2  and  CA_4
REMARK    3  A    between atoms: C_8  and  C_9
REMARK    4  A    between atoms: N_11  and  C_12
REMARK                            x       y       z     vdW  Elec       q    Type
REMARK                         _______ _______ _______ _____ _____    ______ ____
ROOT
ATOM      1  CA  UNL     1       6.201   3.599  12.519  0.00  0.00    +0.000 A 
ATOM      2  C   UNL     1       7.114   4.408  11.853  0.00  0.00    +0.000 A 
ATOM      3  C   UNL     1       7.897   5.269  12.613  0.00  0.00    +0.000 A 
ATOM      4  C   UNL     1       7.744   5.288  13.998  0.00  0.00    +0.000 A 
ATOM      5  C   UNL     1       6.804   4.440  14.582  0.00  0.00    +0.000 A 
ATOM      6  N   UNL     1       6.013   3.580  13.875  0.00  0.00    +0.000 NA
ENDROOT
BRANCH   5   7
ATOM      7  C   UNL     1       6.625   4.457  16.078  0.00  0.00    +0.000 C 
ATOM      8  O   UNL     1       7.578   4.636  16.826  0.00  0.00    +0.000 OA
ATOM      9  N   UNL     1       5.328   4.262  16.514  0.00  0.00    +0.000 N 
ATOM     10  H   UNL     1       4.657   3.992  15.807  0.00  0.00    +0.000 HD
BRANCH   9  11
ATOM     11  C   UNL     1       4.963   4.157  17.925  0.00  0.00    +0.000 C 
ATOM     12  C   UNL     1       4.617   5.532  18.514  0.00  0.00    +0.000 C 
ATOM     13  C   UNL     1       3.329   6.108  17.924  0.00  0.00    +0.000 C 
ATOM     14  C   UNL     1       2.157   5.145  18.089  0.00  0.00    +0.000 C 
ATOM     15  C   UNL     1       2.475   3.743  17.570  0.00  0.00    +0.000 C 
ATOM     16  C   UNL     1       3.787   3.192  18.131  0.00  0.00    +0.000 C 
ENDBRANCH   9  11
ENDBRANCH   5   7
BRANCH   1  18
ATOM     17  O   UNL     1       4.241   2.936  11.283  0.00  0.00    +0.000 OA
ATOM     18  C   UNL     1       5.341   2.664  11.735  0.00  0.00    +0.000 C 
BRANCH  18  19
ATOM     19  OXT UNL     1       5.948   1.463  11.594  0.00  0.00    +0.000 OA
ATOM     20  HXT UNL     1       5.735   1.102  10.704  0.00  0.00    +0.000 HD
ENDBRANCH  18  19
ENDBRANCH   1  18
TORSDOF 4
ENDMDL
MODEL 3
REMARK VINA RESULT:      -7.3      1.965      2.392
REMARK  Name = 
REMARK  4 active torsions:
REMARK  status: ('A' for Active; 'I' for Inactive)
REMARK    1  A    between atoms: C_2  and  OXT_3
REMARK    2  A    between atoms: C_2  and  CA_4
REMARK    3  A    between atoms: C_8  and  C_9
REMARK    4  A    between atoms: N_11  and  C_12
REMARK                            x       y       z     vdW  Elec       q    Type
REMARK                         _______ _______ _______ _____ _____    ______ ____
ROOT
ATOM      1  CA  UNL     1       6.676   6.234  17.300  0.00  0.00    +0.000 A 
ATOM      2  C   UNL     1       7.080   5.266  16.390  0.00  0.00    +0.000 A 
ATOM      3  C   UNL     1       6.137   4.337  15.963  0.00  0.00    +0.000 A 
ATOM      4  C   UNL     1       4.835   4.412  16.455  0.00  0.00    +0.000 A 
ATOM      5  C   UNL     1       4.517   5.419  17.366  0.00  0.00    +0.000 A 
ATOM      6  N   UNL     1       5.411   6.350  17.812  0.00  0.00    +0.000 NA
ENDROOT
BRANCH   5   7
ATOM      7  C   UNL     1       3.114   5.505  17.909  0.00  0.00    +0.000 C 
ATOM      8  O   UNL     1       2.479   6.551  17.856  0.00  0.00    +0.000 OA
ATOM      9  N   UNL     1       2.624   4.333  18.452  0.00  0.00    +0.000 N 
ATOM     10  H   UNL     1       3.292   3.579  18.558  0.00  0.00    +0.000 HD
BRANCH   9  11
ATOM     11  C   UNL     1       1.322   4.234  19.107  0.00  0.00    +0.000 C 
ATOM     12  C   UNL     1       0.837   2.778  19.163  0.00  0.00    +0.000 C 
ATOM     13  C   UNL     1       1.693   1.916  20.091  0.00  0.00    +0.000 C 
ATOM     14  C   UNL     1       1.770   2.510  21.495  0.00  0.00    +0.000 C 
ATOM     15  C   UNL     1       2.193   3.978  21.487  0.00  0.00    +0.000 C 
ATOM     16  C   UNL     1       1.359   4.824  20.523  0.00  0.00    +0.000 C 
ENDBRANCH   9  11
ENDBRANCH   5   7
BRANCH   1  18
ATOM     17  O   UNL     1       7.880   8.322  17.249  0.00  0.00    +0.000 OA
ATOM     18  C   UNL     1       7.662   7.246  17.782  0.00  0.00    +0.000 C 
BRANCH  18  19
ATOM     19  OXT UNL     1       8.288   6.805  18.898  0.00  0.00    +0.000 OA
ATOM     20  HXT UNL     1       9.234   7.072  18.857  0.00  0.00    +0.000 HD
ENDBRANCH  18  19
ENDBRANCH   1  18
TORSDOF 4
ENDMDL
MODEL 4
REMARK VINA RESULT:      -7.2      1.047      1.285
REMARK  Name = 
REMARK  4 active torsions:
REMARK  status: ('A' for Active; 'I' for Inactive)
REMARK    1  A    between atoms: C_2  and  OXT_3
REMARK    2  A    between atoms: C_2  and  CA_4
REMARK    3  A    between atoms: C_8  and  C_9
REMARK    4  A    between atoms: N_11  and  C_12
REMARK                            x       y       z     vdW  Elec       q    Type
REMARK                         _______ _______ _______ _____ _____    ______ ____
ROOT
ATOM      1  CA  UNL     1       6.420   4.467  15.512  0.00  0.00    +0.000 A 
ATOM      2  C   UNL     1       7.394   4.690  16.478  0.00  0.00    +0.000 A 
ATOM      3  C   UNL     1       7.006   4.669  17.812  0.00  0.00    +0.000 A 
ATOM      4  C   UNL     1       5.672   4.424  18.131  0.00  0.00    +0.000 A 
ATOM      5  C   UNL     1       4.762   4.209  17.097  0.00  0.00    +0.000 A 
ATOM      6  N   UNL     1       5.098   4.222  15.773  0.00  0.00    +0.000 NA
ENDROOT
BRANCH   5   7
ATOM      7  C   UNL     1       3.315   3.951  17.430  0.00  0.00    +0.000 C 
ATOM      8  O   UNL     1       2.578   3.374  16.639  0.00  0.00    +0.000 OA
ATOM      9  N   UNL     1       2.910   4.405  18.670  0.00  0.00    +0.000 N 
ATOM     10  H   UNL     1       3.574   4.982  19.171  0.00  0.00    +0.000 HD
BRANCH   9  11
ATOM     11  C   UNL     1       1.530   4.328  19.142  0.00  0.00    +0.000 C 
ATOM     12  C   UNL     1       1.011   2.883  19.114  0.00  0.00    +0.000 C 
ATOM     13  C   UNL     1       1.716   1.993  20.137  0.00  0.00    +0.000 C 
ATOM     14  C   UNL     1       1.614   2.571  21.546  0.00  0.00    +0.000 C 
ATOM     15  C   UNL     1       2.064   4.030  21.614  0.00  0.00    +0.000 C 
ATOM     16  C   UNL     1       1.386   4.904  20.558  0.00  0.00    +0.000 C 
ENDBRANCH   9  11
ENDBRANCH   5   7
BRANCH   1  18
ATOM     17  O   UNL     1       7.469   5.353  13.531  0.00  0.00    +0.000 OA
ATOM     18  C   UNL     1       6.800   4.486  14.069  0.00  0.00    +0.000 C 
BRANCH  18  19
ATOM     19  OXT UNL     1       6.295   3.405  13.430  0.00  0.00    +0.000 OA
ATOM     20  HXT UNL     1       5.390   3.228  13.772  0.00  0.00    +0.000 HD
ENDBRANCH  18  19
ENDBRANCH   1  18
TORSDOF 4
ENDMDL
MODEL 5
REMARK VINA RESULT:      -7.2      2.431      6.092
REMARK  Name = 
REMARK  4 active torsions:
REMARK  status: ('A' for Active; 'I' for Inactive)
REMARK    1  A    between atoms: C_2  and  OXT_3
REMARK    2  A    between atoms: C_2  and  CA_4
REMARK    3  A    between atoms: C_8  and  C_9
REMARK    4  A    between atoms: N_11  and  C_12
REMARK                            x       y       z     vdW  Elec       q    Type
REMARK                         _______ _______ _______ _____ _____    ______ ____
ROOT
ATOM      1  CA  UNL     1       1.589   3.707  19.208  0.00  0.00    +0.000 A 
ATOM      2  C   UNL     1       1.078   4.113  20.434  0.00  0.00    +0.000 A 
ATOM      3  C   UNL     1       1.399   5.389  20.884  0.00  0.00    +0.000 A 
ATOM      4  C   UNL     1       2.209   6.206  20.097  0.00  0.00    +0.000 A 
ATOM      5  C   UNL     1       2.677   5.716  18.879  0.00  0.00    +0.000 A 
ATOM      6  N   UNL     1       2.387   4.470  18.398  0.00  0.00    +0.000 NA
ENDROOT
BRANCH   5   7
ATOM      7  C   UNL     1       3.559   6.588  18.023  0.00  0.00    +0.000 C 
ATOM      8  O   UNL     1       3.199   7.707  17.680  0.00  0.00    +0.000 OA
ATOM      9  N   UNL     1       4.773   6.029  17.675  0.00  0.00    +0.000 N 
ATOM     10  H   UNL     1       4.895   5.051  17.906  0.00  0.00    +0.000 HD
BRANCH   9  11
ATOM     11  C   UNL     1       5.729   6.677  16.781  0.00  0.00    +0.000 C 
ATOM     12  C   UNL     1       7.163   6.203  17.060  0.00  0.00    +0.000 C 
ATOM     13  C   UNL     1       7.370   4.734  16.688  0.00  0.00    +0.000 C 
ATOM     14  C   UNL     1       6.990   4.465  15.235  0.00  0.00    +0.000 C 
ATOM     15  C   UNL     1       5.591   4.974  14.892  0.00  0.00    +0.000 C 
ATOM     16  C   UNL     1       5.378   6.431  15.307  0.00  0.00    +0.000 C 
ENDBRANCH   9  11
ENDBRANCH   5   7
BRANCH   1  18
ATOM     17  O   UNL     1       0.146   1.937  18.435  0.00  0.00    +0.000 OA
ATOM     18  C   UNL     1       1.268   2.342  18.695  0.00  0.00    +0.000 C 
BRANCH  18  19
ATOM     19  OXT UNL     1       2.396   1.608  18.556  0.00  0.00    +0.000 OA
ATOM     20  HXT UNL     1       2.148   0.684  18.327  0.00  0.00    +0.000 HD
ENDBRANCH  18  19
ENDBRANCH   1  18
TORSDOF 4
ENDMDL
MODEL 6
REMARK VINA RESULT:      -7.2      2.031      2.692
REMARK  Name = 
REMARK  4 active torsions:
REMARK  status: ('A' for Active; 'I' for Inactive)
REMARK    1  A    between atoms: C_2  and  OXT_3
REMARK    2  A    between atoms: C_2  and  CA_4
REMARK    3  A    between atoms: C_8  and  C_9
REMARK    4  A    between atoms: N_11  and  C_12
REMARK                            x       y       z     vdW  Elec       q    Type
REMARK                         _______ _______ _______ _____ _____    ______ ____
ROOT
ATOM      1  CA  UNL     1       6.777   5.205  17.872  0.00  0.00    +0.000 A 
ATOM      2  C   UNL     1       7.386   4.966  16.646  0.00  0.00    +0.000 A 
ATOM      3  C   UNL     1       6.621   4.387  15.640  0.00  0.00    +0.000 A 
ATOM      4  C   UNL     1       5.287   4.074  15.892  0.00  0.00    +0.000 A 
ATOM      5  C   UNL     1       4.757   4.349  17.152  0.00  0.00    +0.000 A 
ATOM      6  N   UNL     1       5.471   4.915  18.169  0.00  0.00    +0.000 NA
ENDROOT
BRANCH   5   7
ATOM      7  C   UNL     1       3.318   4.008  17.437  0.00  0.00    +0.000 C 
ATOM      8  O   UNL     1       2.628   3.430  16.606  0.00  0.00    +0.000 OA
ATOM      9  N   UNL     1       2.862   4.391  18.684  0.00  0.00    +0.000 N 
ATOM     10  H   UNL     1       3.485   4.978  19.224  0.00  0.00    +0.000 HD
BRANCH   9  11
ATOM     11  C   UNL     1       1.476   4.229  19.117  0.00  0.00    +0.000 C 
ATOM     12  C   UNL     1       1.050   2.755  19.081  0.00  0.00    +0.000 C 
ATOM     13  C   UNL     1       1.780   1.913  20.128  0.00  0.00    +0.000 C 
ATOM     14  C   UNL     1       1.602   2.487  21.531  0.00  0.00    +0.000 C 
ATOM     15  C   UNL     1       1.958   3.972  21.605  0.00  0.00    +0.000 C 
ATOM     16  C   UNL     1       1.256   4.799  20.525  0.00  0.00    +0.000 C 
ENDBRANCH   9  11
ENDBRANCH   5   7
BRANCH   1  18
ATOM     17  O   UNL     1       7.661   5.373  20.108  0.00  0.00    +0.000 OA
ATOM     18  C   UNL     1       7.568   5.822  18.977  0.00  0.00    +0.000 C 
BRANCH  18  19
ATOM     19  OXT UNL     1       8.171   6.957  18.554  0.00  0.00    +0.000 OA
ATOM     20  HXT UNL     1       7.560   7.715  18.701  0.00  0.00    +0.000 HD
ENDBRANCH  18  19
ENDBRANCH   1  18
TORSDOF 4
ENDMDL
MODEL 7
REMARK VINA RESULT:      -7.2      2.138      2.684
REMARK  Name = 
REMARK  4 active torsions:
REMARK  status: ('A' for Active; 'I' for Inactive)
REMARK    1  A    between atoms: C_2  and  OXT_3
REMARK    2  A    between atoms: C_2  and  CA_4
REMARK    3  A    between atoms: C_8  and  C_9
REMARK    4  A    between atoms: N_11  and  C_12
REMARK                            x       y       z     vdW  Elec       q    Type
REMARK                         _______ _______ _______ _____ _____    ______ ____
ROOT
ATOM      1  CA  UNL     1       6.807   5.809  18.166  0.00  0.00    +0.000 A 
ATOM      2  C   UNL     1       7.224   5.672  16.848  0.00  0.00    +0.000 A 
ATOM      3  C   UNL     1       6.250   5.505  15.870  0.00  0.00    +0.000 A 
ATOM      4  C   UNL     1       4.906   5.485  16.242  0.00  0.00    +0.000 A 
ATOM      5  C   UNL     1       4.579   5.631  17.590  0.00  0.00    +0.000 A 
ATOM      6  N   UNL     1       5.502   5.797  18.582  0.00  0.00    +0.000 NA
ENDROOT
BRANCH   5   7
ATOM      7  C   UNL     1       3.131   5.605  18.003  0.00  0.00    +0.000 C 
ATOM      8  O   UNL     1       2.426   6.602  17.902  0.00  0.00    +0.000 OA
ATOM      9  N   UNL     1       2.684   4.391  18.489  0.00  0.00    +0.000 N 
ATOM     10  H   UNL     1       3.393   3.687  18.648  0.00  0.00    +0.000 HD
BRANCH   9  11
ATOM     11  C   UNL     1       1.339   4.185  19.021  0.00  0.00    +0.000 C 
ATOM     12  C   UNL     1       0.955   2.699  19.006  0.00  0.00    +0.000 C 
ATOM     13  C   UNL     1       1.785   1.875  19.990  0.00  0.00    +0.000 C 
ATOM     14  C   UNL     1       1.694   2.436  21.407  0.00  0.00    +0.000 C 
ATOM     15  C   UNL     1       2.010   3.930  21.465  0.00  0.00    +0.000 C 
ATOM     16  C   UNL     1       1.207   4.741  20.446  0.00  0.00    +0.000 C 
ENDBRANCH   9  11
ENDBRANCH   5   7
BRANCH   1  18
ATOM     17  O   UNL     1       7.984   5.233  20.190  0.00  0.00    +0.000 OA
ATOM     18  C   UNL     1       7.826   5.987  19.243  0.00  0.00    +0.000 C 
BRANCH  18  19
ATOM     19  OXT UNL     1       8.555   7.107  19.028  0.00  0.00    +0.000 OA
ATOM     20  HXT UNL     1       8.207   7.827  19.600  0.00  0.00    +0.000 HD
ENDBRANCH  18  19
ENDBRANCH   1  18
TORSDOF 4
ENDMDL
MODEL 8
REMARK VINA RESULT:      -7.1      2.505      6.458
REMARK  Name = 
REMARK  4 active torsions:
REMARK  status: ('A' for Active; 'I' for Inactive)
REMARK    1  A    between atoms: C_2  and  OXT_3
REMARK    2  A    between atoms: C_2  and  CA_4
REMARK    3  A    between atoms: C_8  and  C_9
REMARK    4  A    between atoms: N_11  and  C_12
REMARK                            x       y       z     vdW  Elec       q    Type
REMARK                         _______ _______ _______ _____ _____    ______ ____
ROOT
ATOM      1  CA  UNL     1       2.407   3.027  20.005  0.00  0.00    +0.000 A 
ATOM      2  C   UNL     1       1.111   3.153  19.520  0.00  0.00    +0.000 A 
ATOM      3  C   UNL     1       0.945   3.555  18.200  0.00  0.00    +0.000 A 
ATOM      4  C   UNL     1       2.071   3.811  17.418  0.00  0.00    +0.000 A 
ATOM      5  C   UNL     1       3.334   3.657  17.987  0.00  0.00    +0.000 A 
ATOM      6  N   UNL     1       3.544   3.265  19.278  0.00  0.00    +0.000 NA
ENDROOT
BRANCH   5   7
ATOM      7  C   UNL     1       4.557   3.938  17.153  0.00  0.00    +0.000 C 
ATOM      8  O   UNL     1       4.529   3.827  15.933  0.00  0.00    +0.000 OA
ATOM      9  N   UNL     1       5.676   4.322  17.866  0.00  0.00    +0.000 N 
ATOM     10  H   UNL     1       5.609   4.245  18.873  0.00  0.00    +0.000 HD
BRANCH   9  11
ATOM     11  C   UNL     1       6.980   4.553  17.251  0.00  0.00    +0.000 C 
ATOM     12  C   UNL     1       6.977   5.833  16.403  0.00  0.00    +0.000 C 
ATOM     13  C   UNL     1       6.833   7.093  17.256  0.00  0.00    +0.000 C 
ATOM     14  C   UNL     1       7.912   7.167  18.333  0.00  0.00    +0.000 C 
ATOM     15  C   UNL     1       7.994   5.889  19.167  0.00  0.00    +0.000 C 
ATOM     16  C   UNL     1       8.094   4.630  18.304  0.00  0.00    +0.000 C 
ENDBRANCH   9  11
ENDBRANCH   5   7
BRANCH   1  18
ATOM     17  O   UNL     1       1.814   2.729  22.322  0.00  0.00    +0.000 OA
ATOM     18  C   UNL     1       2.624   2.600  21.419  0.00  0.00    +0.000 C 
BRANCH  18  19
ATOM     19  OXT UNL     1       3.851   2.049  21.567  0.00  0.00    +0.000 OA
ATOM     20  HXT UNL     1       4.487   2.755  21.823  0.00  0.00    +0.000 HD
ENDBRANCH  18  19
ENDBRANCH   1  18
TORSDOF 4
ENDMDL
MODEL 9
REMARK VINA RESULT:      -7.0      2.242      6.448
REMARK  Name = 
REMARK  4 active torsions:
REMARK  status: ('A' for Active; 'I' for Inactive)
REMARK    1  A    between atoms: C_2  and  OXT_3
REMARK    2  A    between atoms: C_2  and  CA_4
REMARK    3  A    between atoms: C_8  and  C_9
REMARK    4  A    between atoms: N_11  and  C_12
REMARK                            x       y       z     vdW  Elec       q    Type
REMARK                         _______ _______ _______ _____ _____    ______ ____
ROOT
ATOM      1  CA  UNL     1       2.342   3.493  20.062  0.00  0.00    +0.000 A 
ATOM      2  C   UNL     1       1.282   2.712  19.620  0.00  0.00    +0.000 A 
ATOM      3  C   UNL     1       1.310   2.258  18.306  0.00  0.00    +0.000 A 
ATOM      4  C   UNL     1       2.388   2.595  17.491  0.00  0.00    +0.000 A 
ATOM      5  C   UNL     1       3.410   3.383  18.018  0.00  0.00    +0.000 A 
ATOM      6  N   UNL     1       3.424   3.851  19.301  0.00  0.00    +0.000 NA
ENDROOT
BRANCH   5   7
ATOM      7  C   UNL     1       4.577   3.759  17.143  0.00  0.00    +0.000 C 
ATOM      8  O   UNL     1       4.487   3.730  15.922  0.00  0.00    +0.000 OA
ATOM      9  N   UNL     1       5.722   4.130  17.822  0.00  0.00    +0.000 N 
ATOM     10  H   UNL     1       5.712   3.983  18.824  0.00  0.00    +0.000 HD
BRANCH   9  11
ATOM     11  C   UNL     1       6.984   4.445  17.158  0.00  0.00    +0.000 C 
ATOM     12  C   UNL     1       6.881   5.751  16.357  0.00  0.00    +0.000 C 
ATOM     13  C   UNL     1       6.718   6.974  17.259  0.00  0.00    +0.000 C 
ATOM     14  C   UNL     1       7.840   7.064  18.289  0.00  0.00    +0.000 C 
ATOM     15  C   UNL     1       8.021   5.765  19.073  0.00  0.00    +0.000 C 
ATOM     16  C   UNL     1       8.140   4.541  18.162  0.00  0.00    +0.000 C 
ENDBRANCH   9  11
ENDBRANCH   5   7
BRANCH   1  18
ATOM     17  O   UNL     1       2.297   3.303  22.464  0.00  0.00    +0.000 OA
ATOM     18  C   UNL     1       2.345   4.002  21.465  0.00  0.00    +0.000 C 
BRANCH  18  19
ATOM     19  OXT UNL     1       2.406   5.354  21.481  0.00  0.00    +0.000 OA
ATOM     20  HXT UNL     1       2.840   5.642  22.315  0.00  0.00    +0.000 HD
ENDBRANCH  18  19
ENDBRANCH   1  18
TORSDOF 4
ENDMDL
