MODEL 1
REMARK VINA RESULT:      -6.5      0.000      0.000
REMARK  Name = 
REMARK  3 active torsions:
REMARK  status: ('A' for Active; 'I' for Inactive)
REMARK    1  A    between atoms: N_3  and  C_4
REMARK    2  A    between atoms: C_14  and  C_15
REMARK    3  A    between atoms: C_15  and  O_16
REMARK                            x       y       z     vdW  Elec       q    Type
REMARK                         _______ _______ _______ _____ _____    ______ ____
ROOT
ATOM      1  O   UNL     1       2.715   5.573  17.835  0.00  0.00    +0.000 OA
ATOM      2  C   UNL     1       3.136   4.466  18.186  0.00  0.00    +0.000 C 
ATOM      3  N   UNL     1       4.316   3.978  17.705  0.00  0.00    +0.000 N 
ATOM      4  N   UNL     1       2.464   3.705  19.107  0.00  0.00    +0.000 N 
ATOM      5  C   UNL     1       1.175   4.173  19.592  0.00  0.00    +0.000 C 
ATOM      6  C   UNL     1       1.092   3.639  21.001  0.00  0.00    +0.000 C 
ATOM      7  C   UNL     1       1.758   2.274  20.883  0.00  0.00    +0.000 C 
ATOM      8  C   UNL     1       2.843   2.461  19.791  0.00  0.00    +0.000 C 
ATOM      9  H   UNL     1       4.377   2.975  17.628  0.00  0.00    +0.000 HD
ENDROOT
BRANCH   3  10
ATOM     10  C   UNL     1       5.134   4.787  16.789  0.00  0.00    +0.000 C 
ATOM     11  C   UNL     1       5.723   3.969  15.633  0.00  0.00    +0.000 C 
ATOM     12  C   UNL     1       6.648   4.839  14.783  0.00  0.00    +0.000 C 
ATOM     13  O   UNL     1       7.664   5.440  15.586  0.00  0.00    +0.000 OA
ATOM     14  C   UNL     1       7.119   6.303  16.580  0.00  0.00    +0.000 C 
ATOM     15  C   UNL     1       6.247   5.511  17.546  0.00  0.00    +0.000 C 
ENDBRANCH   3  10
BRANCH   8  16
ATOM     16  C   UNL     1       4.239   2.465  20.428  0.00  0.00    +0.000 C 
BRANCH  16  17
ATOM     17  O   UNL     1       5.118   1.575  19.743  0.00  0.00    +0.000 OA
ATOM     18  H   UNL     1       4.837   1.533  18.813  0.00  0.00    +0.000 HD
ENDBRANCH  16  17
ENDBRANCH   8  16
TORSDOF 3
ENDMDL
MODEL 2
REMARK VINA RESULT:      -6.3      1.309      2.373
REMARK  Name = 
REMARK  3 active torsions:
REMARK  status: ('A' for Active; 'I' for Inactive)
REMARK    1  A    between atoms: N_3  and  C_4
REMARK    2  A    between atoms: C_14  and  C_15
REMARK    3  A    between atoms: C_15  and  O_16
REMARK                            x       y       z     vdW  Elec       q    Type
REMARK                         _______ _______ _______ _____ _____    ______ ____
ROOT
ATOM      1  O   UNL     1       5.241   3.336  19.765  0.00  0.00    +0.000 OA
ATOM      2  C   UNL     1       4.227   3.816  19.247  0.00  0.00    +0.000 C 
ATOM      3  N   UNL     1       4.288   4.446  18.038  0.00  0.00    +0.000 N 
ATOM      4  N   UNL     1       2.996   3.695  19.837  0.00  0.00    +0.000 N 
ATOM      5  C   UNL     1       2.911   3.080  21.153  0.00  0.00    +0.000 C 
ATOM      6  C   UNL     1       1.553   2.420  21.168  0.00  0.00    +0.000 C 
ATOM      7  C   UNL     1       0.692   3.408  20.391  0.00  0.00    +0.000 C 
ATOM      8  C   UNL     1       1.653   4.027  19.343  0.00  0.00    +0.000 C 
ATOM      9  H   UNL     1       3.617   5.183  17.893  0.00  0.00    +0.000 HD
ENDROOT
BRANCH   3  10
ATOM     10  C   UNL     1       5.561   4.525  17.306  0.00  0.00    +0.000 C 
ATOM     11  C   UNL     1       6.255   5.884  17.457  0.00  0.00    +0.000 C 
ATOM     12  C   UNL     1       7.510   5.939  16.588  0.00  0.00    +0.000 C 
ATOM     13  O   UNL     1       7.202   5.646  15.226  0.00  0.00    +0.000 OA
ATOM     14  C   UNL     1       6.675   4.330  15.070  0.00  0.00    +0.000 C 
ATOM     15  C   UNL     1       5.361   4.195  15.826  0.00  0.00    +0.000 C 
ENDBRANCH   3  10
BRANCH   8  16
ATOM     16  C   UNL     1       1.322   3.496  17.942  0.00  0.00    +0.000 C 
BRANCH  16  17
ATOM     17  O   UNL     1       1.856   2.187  17.751  0.00  0.00    +0.000 OA
ATOM     18  H   UNL     1       1.447   1.810  16.954  0.00  0.00    +0.000 HD
ENDBRANCH  16  17
ENDBRANCH   8  16
TORSDOF 3
ENDMDL
MODEL 3
REMARK VINA RESULT:      -6.1      1.566      1.615
REMARK  Name = 
REMARK  3 active torsions:
REMARK  status: ('A' for Active; 'I' for Inactive)
REMARK    1  A    between atoms: N_3  and  C_4
REMARK    2  A    between atoms: C_14  and  C_15
REMARK    3  A    between atoms: C_15  and  O_16
REMARK                            x       y       z     vdW  Elec       q    Type
REMARK                         _______ _______ _______ _____ _____    ______ ____
ROOT
ATOM      1  O   UNL     1       4.423   5.587  19.643  0.00  0.00    +0.000 OA
ATOM      2  C   UNL     1       3.674   4.794  19.063  0.00  0.00    +0.000 C 
ATOM      3  N   UNL     1       3.895   4.442  17.764  0.00  0.00    +0.000 N 
ATOM      4  N   UNL     1       2.624   4.198  19.711  0.00  0.00    +0.000 N 
ATOM      5  C   UNL     1       2.330   4.599  21.078  0.00  0.00    +0.000 C 
ATOM      6  C   UNL     1       1.749   3.358  21.712  0.00  0.00    +0.000 C 
ATOM      7  C   UNL     1       0.933   2.752  20.577  0.00  0.00    +0.000 C 
ATOM      8  C   UNL     1       1.717   3.121  19.291  0.00  0.00    +0.000 C 
ATOM      9  H   UNL     1       3.075   4.211  17.226  0.00  0.00    +0.000 HD
ENDROOT
BRANCH   3  10
ATOM     10  C   UNL     1       5.062   4.970  17.040  0.00  0.00    +0.000 C 
ATOM     11  C   UNL     1       5.050   4.619  15.547  0.00  0.00    +0.000 C 
ATOM     12  C   UNL     1       6.336   5.100  14.878  0.00  0.00    +0.000 C 
ATOM     13  O   UNL     1       7.485   4.572  15.541  0.00  0.00    +0.000 OA
ATOM     14  C   UNL     1       7.564   5.004  16.897  0.00  0.00    +0.000 C 
ATOM     15  C   UNL     1       6.365   4.495  17.684  0.00  0.00    +0.000 C 
ENDBRANCH   3  10
BRANCH   8  16
ATOM     16  C   UNL     1       2.405   1.876  18.715  0.00  0.00    +0.000 C 
BRANCH  16  17
ATOM     17  O   UNL     1       2.296   1.842  17.293  0.00  0.00    +0.000 OA
ATOM     18  H   UNL     1       3.161   1.583  16.933  0.00  0.00    +0.000 HD
ENDBRANCH  16  17
ENDBRANCH   8  16
TORSDOF 3
ENDMDL
MODEL 4
REMARK VINA RESULT:      -6.0      0.846      1.498
REMARK  Name = 
REMARK  3 active torsions:
REMARK  status: ('A' for Active; 'I' for Inactive)
REMARK    1  A    between atoms: N_3  and  C_4
REMARK    2  A    between atoms: C_14  and  C_15
REMARK    3  A    between atoms: C_15  and  O_16
REMARK                            x       y       z     vdW  Elec       q    Type
REMARK                         _______ _______ _______ _____ _____    ______ ____
ROOT
ATOM      1  O   UNL     1       3.766   5.535  18.007  0.00  0.00    +0.000 OA
ATOM      2  C   UNL     1       3.891   4.379  18.427  0.00  0.00    +0.000 C 
ATOM      3  N   UNL     1       5.077   3.714  18.308  0.00  0.00    +0.000 N 
ATOM      4  N   UNL     1       2.866   3.736  19.069  0.00  0.00    +0.000 N 
ATOM      5  C   UNL     1       1.573   4.398  19.156  0.00  0.00    +0.000 C 
ATOM      6  C   UNL     1       0.985   3.894  20.451  0.00  0.00    +0.000 C 
ATOM      7  C   UNL     1       1.446   2.443  20.487  0.00  0.00    +0.000 C 
ATOM      8  C   UNL     1       2.830   2.454  19.786  0.00  0.00    +0.000 C 
ATOM      9  H   UNL     1       5.011   2.713  18.215  0.00  0.00    +0.000 HD
ENDROOT
BRANCH   3  10
ATOM     10  C   UNL     1       6.246   4.382  17.717  0.00  0.00    +0.000 C 
ATOM     11  C   UNL     1       6.499   5.776  18.304  0.00  0.00    +0.000 C 
ATOM     12  C   UNL     1       7.656   6.458  17.574  0.00  0.00    +0.000 C 
ATOM     13  O   UNL     1       7.415   6.506  16.167  0.00  0.00    +0.000 OA
ATOM     14  C   UNL     1       7.307   5.203  15.600  0.00  0.00    +0.000 C 
ATOM     15  C   UNL     1       6.117   4.464  16.196  0.00  0.00    +0.000 C 
ENDBRANCH   3  10
BRANCH   8  16
ATOM     16  C   UNL     1       3.948   2.251  20.817  0.00  0.00    +0.000 C 
BRANCH  16  17
ATOM     17  O   UNL     1       5.083   1.623  20.226  0.00  0.00    +0.000 OA
ATOM     18  H   UNL     1       5.401   0.940  20.839  0.00  0.00    +0.000 HD
ENDBRANCH  16  17
ENDBRANCH   8  16
TORSDOF 3
ENDMDL
MODEL 5
REMARK VINA RESULT:      -5.9      2.043      2.825
REMARK  Name = 
REMARK  3 active torsions:
REMARK  status: ('A' for Active; 'I' for Inactive)
REMARK    1  A    between atoms: N_3  and  C_4
REMARK    2  A    between atoms: C_14  and  C_15
REMARK    3  A    between atoms: C_15  and  O_16
REMARK                            x       y       z     vdW  Elec       q    Type
REMARK                         _______ _______ _______ _____ _____    ______ ____
ROOT
ATOM      1  O   UNL     1       4.447   3.063  17.460  0.00  0.00    +0.000 OA
ATOM      2  C   UNL     1       3.995   3.610  18.472  0.00  0.00    +0.000 C 
ATOM      3  N   UNL     1       4.628   4.679  19.034  0.00  0.00    +0.000 N 
ATOM      4  N   UNL     1       2.819   3.199  19.041  0.00  0.00    +0.000 N 
ATOM      5  C   UNL     1       2.153   2.024  18.499  0.00  0.00    +0.000 C 
ATOM      6  C   UNL     1       0.687   2.281  18.744  0.00  0.00    +0.000 C 
ATOM      7  C   UNL     1       0.689   2.976  20.099  0.00  0.00    +0.000 C 
ATOM      8  C   UNL     1       2.013   3.784  20.122  0.00  0.00    +0.000 C 
ATOM      9  H   UNL     1       4.524   4.777  20.031  0.00  0.00    +0.000 HD
ENDROOT
BRANCH   3  10
ATOM     10  C   UNL     1       5.842   5.232  18.415  0.00  0.00    +0.000 C 
ATOM     11  C   UNL     1       6.926   5.591  19.440  0.00  0.00    +0.000 C 
ATOM     12  C   UNL     1       8.112   6.258  18.746  0.00  0.00    +0.000 C 
ATOM     13  O   UNL     1       7.691   7.396  17.994  0.00  0.00    +0.000 OA
ATOM     14  C   UNL     1       6.780   7.042  16.957  0.00  0.00    +0.000 C 
ATOM     15  C   UNL     1       5.510   6.448  17.550  0.00  0.00    +0.000 C 
ENDBRANCH   3  10
BRANCH   8  16
ATOM     16  C   UNL     1       1.720   5.284  19.978  0.00  0.00    +0.000 C 
BRANCH  16  17
ATOM     17  O   UNL     1       2.656   6.062  20.722  0.00  0.00    +0.000 OA
ATOM     18  H   UNL     1       2.174   6.501  21.443  0.00  0.00    +0.000 HD
ENDBRANCH  16  17
ENDBRANCH   8  16
TORSDOF 3
ENDMDL
MODEL 6
REMARK VINA RESULT:      -5.8      1.581      1.937
REMARK  Name = 
REMARK  3 active torsions:
REMARK  status: ('A' for Active; 'I' for Inactive)
REMARK    1  A    between atoms: N_3  and  C_4
REMARK    2  A    between atoms: C_14  and  C_15
REMARK    3  A    between atoms: C_15  and  O_16
REMARK                            x       y       z     vdW  Elec       q    Type
REMARK                         _______ _______ _______ _____ _____    ______ ____
ROOT
ATOM      1  O   UNL     1       4.494   5.452  19.725  0.00  0.00    +0.000 OA
ATOM      2  C   UNL     1       3.745   4.646  19.164  0.00  0.00    +0.000 C 
ATOM      3  N   UNL     1       3.956   4.276  17.868  0.00  0.00    +0.000 N 
ATOM      4  N   UNL     1       2.704   4.054  19.830  0.00  0.00    +0.000 N 
ATOM      5  C   UNL     1       2.420   4.474  21.194  0.00  0.00    +0.000 C 
ATOM      6  C   UNL     1       1.852   3.240  21.852  0.00  0.00    +0.000 C 
ATOM      7  C   UNL     1       1.029   2.612  20.734  0.00  0.00    +0.000 C 
ATOM      8  C   UNL     1       1.800   2.966  19.435  0.00  0.00    +0.000 C 
ATOM      9  H   UNL     1       3.132   4.032  17.341  0.00  0.00    +0.000 HD
ENDROOT
BRANCH   3  10
ATOM     10  C   UNL     1       5.113   4.799  17.126  0.00  0.00    +0.000 C 
ATOM     11  C   UNL     1       4.861   6.189  16.527  0.00  0.00    +0.000 C 
ATOM     12  C   UNL     1       6.056   6.626  15.681  0.00  0.00    +0.000 C 
ATOM     13  O   UNL     1       6.353   5.657  14.676  0.00  0.00    +0.000 OA
ATOM     14  C   UNL     1       6.713   4.398  15.239  0.00  0.00    +0.000 C 
ATOM     15  C   UNL     1       5.548   3.823  16.033  0.00  0.00    +0.000 C 
ENDBRANCH   3  10
BRANCH   8  16
ATOM     16  C   UNL     1       2.489   1.716  18.871  0.00  0.00    +0.000 C 
BRANCH  16  17
ATOM     17  O   UNL     1       2.452   1.709  17.446  0.00  0.00    +0.000 OA
ATOM     18  H   UNL     1       2.546   2.627  17.139  0.00  0.00    +0.000 HD
ENDBRANCH  16  17
ENDBRANCH   8  16
TORSDOF 3
ENDMDL
MODEL 7
REMARK VINA RESULT:      -5.8      1.858      2.049
REMARK  Name = 
REMARK  3 active torsions:
REMARK  status: ('A' for Active; 'I' for Inactive)
REMARK    1  A    between atoms: N_3  and  C_4
REMARK    2  A    between atoms: C_14  and  C_15
REMARK    3  A    between atoms: C_15  and  O_16
REMARK                            x       y       z     vdW  Elec       q    Type
REMARK                         _______ _______ _______ _____ _____    ______ ____
ROOT
ATOM      1  O   UNL     1       3.294   5.836  20.085  0.00  0.00    +0.000 OA
ATOM      2  C   UNL     1       3.252   5.044  19.137  0.00  0.00    +0.000 C 
ATOM      3  N   UNL     1       4.227   5.039  18.183  0.00  0.00    +0.000 N 
ATOM      4  N   UNL     1       2.256   4.110  19.029  0.00  0.00    +0.000 N 
ATOM      5  C   UNL     1       1.171   4.131  19.999  0.00  0.00    +0.000 C 
ATOM      6  C   UNL     1       0.747   2.687  20.113  0.00  0.00    +0.000 C 
ATOM      7  C   UNL     1       0.893   2.180  18.684  0.00  0.00    +0.000 C 
ATOM      8  C   UNL     1       2.089   2.980  18.105  0.00  0.00    +0.000 C 
ATOM      9  H   UNL     1       3.937   4.759  17.260  0.00  0.00    +0.000 HD
ENDROOT
BRANCH   3  10
ATOM     10  C   UNL     1       5.376   5.951  18.293  0.00  0.00    +0.000 C 
ATOM     11  C   UNL     1       5.675   6.697  16.986  0.00  0.00    +0.000 C 
ATOM     12  C   UNL     1       6.940   7.540  17.133  0.00  0.00    +0.000 C 
ATOM     13  O   UNL     1       8.043   6.738  17.554  0.00  0.00    +0.000 OA
ATOM     14  C   UNL     1       7.816   6.147  18.831  0.00  0.00    +0.000 C 
ATOM     15  C   UNL     1       6.622   5.205  18.772  0.00  0.00    +0.000 C 
ENDBRANCH   3  10
BRANCH   8  16
ATOM     16  C   UNL     1       3.315   2.068  17.960  0.00  0.00    +0.000 C 
BRANCH  16  17
ATOM     17  O   UNL     1       4.080   2.043  19.163  0.00  0.00    +0.000 OA
ATOM     18  H   UNL     1       4.166   1.117  19.444  0.00  0.00    +0.000 HD
ENDBRANCH  16  17
ENDBRANCH   8  16
TORSDOF 3
ENDMDL
MODEL 8
REMARK VINA RESULT:      -5.8      1.828      5.787
REMARK  Name = 
REMARK  3 active torsions:
REMARK  status: ('A' for Active; 'I' for Inactive)
REMARK    1  A    between atoms: N_3  and  C_4
REMARK    2  A    between atoms: C_14  and  C_15
REMARK    3  A    between atoms: C_15  and  O_16
REMARK                            x       y       z     vdW  Elec       q    Type
REMARK                         _______ _______ _______ _____ _____    ______ ____
ROOT
ATOM      1  O   UNL     1       3.294   3.620  16.566  0.00  0.00    +0.000 OA
ATOM      2  C   UNL     1       4.261   4.228  17.036  0.00  0.00    +0.000 C 
ATOM      3  N   UNL     1       4.353   4.475  18.375  0.00  0.00    +0.000 N 
ATOM      4  N   UNL     1       5.302   4.636  16.244  0.00  0.00    +0.000 N 
ATOM      5  C   UNL     1       5.204   4.439  14.806  0.00  0.00    +0.000 C 
ATOM      6  C   UNL     1       6.632   4.242  14.359  0.00  0.00    +0.000 C 
ATOM      7  C   UNL     1       7.400   5.204  15.256  0.00  0.00    +0.000 C 
ATOM      8  C   UNL     1       6.608   5.214  16.589  0.00  0.00    +0.000 C 
ATOM      9  H   UNL     1       4.845   5.315  18.634  0.00  0.00    +0.000 HD
ENDROOT
BRANCH   3  10
ATOM     10  C   UNL     1       3.317   3.978  19.293  0.00  0.00    +0.000 C 
ATOM     11  C   UNL     1       2.632   5.098  20.085  0.00  0.00    +0.000 C 
ATOM     12  C   UNL     1       1.648   4.510  21.095  0.00  0.00    +0.000 C 
ATOM     13  O   UNL     1       2.297   3.570  21.952  0.00  0.00    +0.000 OA
ATOM     14  C   UNL     1       2.823   2.462  21.227  0.00  0.00    +0.000 C 
ATOM     15  C   UNL     1       3.891   2.930  20.248  0.00  0.00    +0.000 C 
ENDBRANCH   3  10
BRANCH   8  16
ATOM     16  C   UNL     1       7.389   4.461  17.674  0.00  0.00    +0.000 C 
BRANCH  16  17
ATOM     17  O   UNL     1       7.161   5.033  18.961  0.00  0.00    +0.000 OA
ATOM     18  H   UNL     1       7.972   4.925  19.485  0.00  0.00    +0.000 HD
ENDBRANCH  16  17
ENDBRANCH   8  16
TORSDOF 3
ENDMDL
MODEL 9
REMARK VINA RESULT:      -5.7      2.137      5.956
REMARK  Name = 
REMARK  3 active torsions:
REMARK  status: ('A' for Active; 'I' for Inactive)
REMARK    1  A    between atoms: N_3  and  C_4
REMARK    2  A    between atoms: C_14  and  C_15
REMARK    3  A    between atoms: C_15  and  O_16
REMARK                            x       y       z     vdW  Elec       q    Type
REMARK                         _______ _______ _______ _____ _____    ______ ____
ROOT
ATOM      1  O   UNL     1       5.671   3.680  19.554  0.00  0.00    +0.000 OA
ATOM      2  C   UNL     1       5.263   4.492  18.717  0.00  0.00    +0.000 C 
ATOM      3  N   UNL     1       3.950   4.519  18.347  0.00  0.00    +0.000 N 
ATOM      4  N   UNL     1       6.097   5.428  18.163  0.00  0.00    +0.000 N 
ATOM      5  C   UNL     1       7.513   5.384  18.495  0.00  0.00    +0.000 C 
ATOM      6  C   UNL     1       7.957   6.825  18.420  0.00  0.00    +0.000 C 
ATOM      7  C   UNL     1       7.150   7.364  17.245  0.00  0.00    +0.000 C 
ATOM      8  C   UNL     1       5.814   6.578  17.294  0.00  0.00    +0.000 C 
ATOM      9  H   UNL     1       3.766   4.820  17.403  0.00  0.00    +0.000 HD
ENDROOT
BRANCH   3  10
ATOM     10  C   UNL     1       2.983   3.606  18.975  0.00  0.00    +0.000 C 
ATOM     11  C   UNL     1       1.870   3.163  18.018  0.00  0.00    +0.000 C 
ATOM     12  C   UNL     1       0.842   2.308  18.759  0.00  0.00    +0.000 C 
ATOM     13  O   UNL     1       0.326   3.000  19.895  0.00  0.00    +0.000 OA
ATOM     14  C   UNL     1       1.344   3.299  20.846  0.00  0.00    +0.000 C 
ATOM     15  C   UNL     1       2.381   4.231  20.234  0.00  0.00    +0.000 C 
ENDBRANCH   3  10
BRANCH   8  16
ATOM     16  C   UNL     1       4.679   7.494  17.772  0.00  0.00    +0.000 C 
BRANCH  16  17
ATOM     17  O   UNL     1       3.425   7.080  17.232  0.00  0.00    +0.000 OA
ATOM     18  H   UNL     1       2.817   6.922  17.974  0.00  0.00    +0.000 HD
ENDBRANCH  16  17
ENDBRANCH   8  16
TORSDOF 3
ENDMDL
