MODEL 1
REMARK VINA RESULT:      -7.9      0.000      0.000
REMARK  Name = 
REMARK  15 active torsions:
REMARK  status: ('A' for Active; 'I' for Inactive)
REMARK    1  A    between atoms: C_1  and  C_2
REMARK    2  A    between atoms: C_2  and  O_3
REMARK    3  A    between atoms: O_3  and  C_4
REMARK    4  A    between atoms: C_8  and  C_9
REMARK    5  A    between atoms: C_12  and  C_13
REMARK    6  A    between atoms: C_13  and  N_14
REMARK    7  A    between atoms: N_14  and  C_15
REMARK    8  A    between atoms: N_14  and  S_27
REMARK    9  A    between atoms: C_15  and  C_16
REMARK   10  A    between atoms: C_15  and  C_17
REMARK   11  A    between atoms: N_19  and  C_20
REMARK   12  A    between atoms: C_20  and  C_21
REMARK   13  A    between atoms: C_20  and  C_23
REMARK   14  A    between atoms: C_23  and  C_24
REMARK   15  A    between atoms: S_27  and  C_28
REMARK                            x       y       z     vdW  Elec       q    Type
REMARK                         _______ _______ _______ _____ _____    ______ ____
ROOT
ATOM      1  N   UNL     1       2.416   4.219  19.264  0.00  0.00    +0.000 NA
ENDROOT
BRANCH   1   2
ATOM      2  S   UNL     1       1.542   2.996  20.084  0.00  0.00    +0.000 S 
ATOM      3  C   UNL     1       2.248   3.013  21.729  0.00  0.00    +0.000 C 
ATOM      4  O   UNL     1       0.165   3.420  20.191  0.00  0.00    +0.000 OA
ATOM      5  O   UNL     1       1.883   1.757  19.416  0.00  0.00    +0.000 OA
ENDBRANCH   1   2
BRANCH   1   6
ATOM      6  C   UNL     1       3.480   3.666  18.336  0.00  0.00    +0.000 C 
ATOM      7  C   UNL     1       3.060   3.805  16.865  0.00  0.00    +0.000 C 
BRANCH   6   8
ATOM      8  C   UNL     1       4.949   4.091  18.451  0.00  0.00    +0.000 C 
ATOM      9  O   UNL     1       5.670   3.655  19.353  0.00  0.00    +0.000 OA
ATOM     10  N   UNL     1       5.470   4.967  17.534  0.00  0.00    +0.000 N 
ATOM     11  H   UNL     1       4.837   5.582  17.018  0.00  0.00    +0.000 HD
BRANCH  10  12
ATOM     12  C   UNL     1       6.893   5.346  17.600  0.00  0.00    +0.000 C 
BRANCH  12  13
ATOM     13  C   UNL     1       7.026   6.810  17.414  0.00  0.00    +0.000 C 
ATOM     14  N   UNL     1       7.167   7.939  17.218  0.00  0.00    +0.000 NA
ENDBRANCH  12  13
BRANCH  12  15
ATOM     15  C   UNL     1       7.691   4.601  16.514  0.00  0.00    +0.000 C 
BRANCH  15  16
ATOM     16  C   UNL     1       7.005   4.660  15.170  0.00  0.00    +0.000 C 
ATOM     17  N   UNL     1       7.654   5.405  14.228  0.00  0.00    +0.000 N 
ATOM     18  O   UNL     1       5.944   4.109  14.910  0.00  0.00    +0.000 OA
ATOM     19  H   UNL     1       8.549   5.852  14.377  0.00  0.00    +0.000 HD
ATOM     20  H   UNL     1       7.237   5.461  13.307  0.00  0.00    +0.000 HD
ENDBRANCH  15  16
ENDBRANCH  12  15
ENDBRANCH  10  12
ENDBRANCH   6   8
ENDBRANCH   1   6
BRANCH   1  21
ATOM     21  C   UNL     1       2.837   5.324  20.173  0.00  0.00    +0.000 C 
BRANCH  21  25
ATOM     22  C   UNL     1       1.193   9.218  19.184  0.00  0.00    +0.000 A 
ATOM     23  C   UNL     1       1.967   8.505  18.248  0.00  0.00    +0.000 A 
ATOM     24  C   UNL     1       2.544   7.269  18.564  0.00  0.00    +0.000 A 
ATOM     25  C   UNL     1       2.364   6.713  19.834  0.00  0.00    +0.000 A 
ATOM     26  C   UNL     1       1.641   7.436  20.789  0.00  0.00    +0.000 A 
ATOM     27  C   UNL     1       1.077   8.672  20.471  0.00  0.00    +0.000 A 
BRANCH  22  32
ATOM     28  C   UNL     1      -1.445  11.656  17.928  0.00  0.00    +0.000 A 
ATOM     29  C   UNL     1      -0.820  12.881  18.160  0.00  0.00    +0.000 A 
ATOM     30  C   UNL     1       0.452  12.921  18.723  0.00  0.00    +0.000 A 
ATOM     31  C   UNL     1       1.103  11.733  19.060  0.00  0.00    +0.000 A 
ATOM     32  C   UNL     1       0.505  10.481  18.830  0.00  0.00    +0.000 A 
ATOM     33  C   UNL     1      -0.778  10.473  18.260  0.00  0.00    +0.000 A 
BRANCH  28  34
ATOM     34  O   UNL     1      -2.694  11.730  17.369  0.00  0.00    +0.000 OA
BRANCH  34  36
ATOM     35  C   UNL     1      -4.514  11.966  18.908  0.00  0.00    +0.000 C 
ATOM     36  C   UNL     1      -3.726  11.005  18.041  0.00  0.00    +0.000 C 
ENDBRANCH  34  36
ENDBRANCH  28  34
ENDBRANCH  22  32
ENDBRANCH  21  25
ENDBRANCH   1  21
TORSDOF 12
ENDMDL
MODEL 2
REMARK VINA RESULT:      -7.7      1.392      2.596
REMARK  Name = 
REMARK  15 active torsions:
REMARK  status: ('A' for Active; 'I' for Inactive)
REMARK    1  A    between atoms: C_1  and  C_2
REMARK    2  A    between atoms: C_2  and  O_3
REMARK    3  A    between atoms: O_3  and  C_4
REMARK    4  A    between atoms: C_8  and  C_9
REMARK    5  A    between atoms: C_12  and  C_13
REMARK    6  A    between atoms: C_13  and  N_14
REMARK    7  A    between atoms: N_14  and  C_15
REMARK    8  A    between atoms: N_14  and  S_27
REMARK    9  A    between atoms: C_15  and  C_16
REMARK   10  A    between atoms: C_15  and  C_17
REMARK   11  A    between atoms: N_19  and  C_20
REMARK   12  A    between atoms: C_20  and  C_21
REMARK   13  A    between atoms: C_20  and  C_23
REMARK   14  A    between atoms: C_23  and  C_24
REMARK   15  A    between atoms: S_27  and  C_28
REMARK                            x       y       z     vdW  Elec       q    Type
REMARK                         _______ _______ _______ _____ _____    ______ ____
ROOT
ATOM      1  N   UNL     1       2.418   4.459  19.232  0.00  0.00    +0.000 NA
ENDROOT
BRANCH   1   2
ATOM      2  S   UNL     1       1.512   3.342  20.162  0.00  0.00    +0.000 S 
ATOM      3  C   UNL     1       2.263   3.445  21.783  0.00  0.00    +0.000 C 
ATOM      4  O   UNL     1       0.159   3.838  20.270  0.00  0.00    +0.000 OA
ATOM      5  O   UNL     1       1.777   2.043  19.579  0.00  0.00    +0.000 OA
ENDBRANCH   1   2
BRANCH   1   6
ATOM      6  C   UNL     1       3.483   3.795  18.381  0.00  0.00    +0.000 C 
ATOM      7  C   UNL     1       3.117   3.853  16.890  0.00  0.00    +0.000 C 
BRANCH   6   8
ATOM      8  C   UNL     1       4.967   4.158  18.519  0.00  0.00    +0.000 C 
ATOM      9  O   UNL     1       5.680   3.615  19.366  0.00  0.00    +0.000 OA
ATOM     10  N   UNL     1       5.509   5.099  17.683  0.00  0.00    +0.000 N 
ATOM     11  H   UNL     1       4.894   5.781  17.234  0.00  0.00    +0.000 HD
BRANCH  10  12
ATOM     12  C   UNL     1       6.945   5.422  17.767  0.00  0.00    +0.000 C 
BRANCH  12  13
ATOM     13  C   UNL     1       7.147   6.863  17.488  0.00  0.00    +0.000 C 
ATOM     14  N   UNL     1       7.359   7.971  17.240  0.00  0.00    +0.000 NA
ENDBRANCH  12  13
BRANCH  12  15
ATOM     15  C   UNL     1       7.741   4.573  16.760  0.00  0.00    +0.000 C 
BRANCH  15  16
ATOM     16  C   UNL     1       7.048   4.491  15.420  0.00  0.00    +0.000 C 
ATOM     17  N   UNL     1       7.516   5.363  14.480  0.00  0.00    +0.000 N 
ATOM     18  O   UNL     1       6.127   3.727  15.163  0.00  0.00    +0.000 OA
ATOM     19  H   UNL     1       8.296   5.989  14.626  0.00  0.00    +0.000 HD
ATOM     20  H   UNL     1       7.089   5.333  13.562  0.00  0.00    +0.000 HD
ENDBRANCH  15  16
ENDBRANCH  12  15
ENDBRANCH  10  12
ENDBRANCH   6   8
ENDBRANCH   1   6
BRANCH   1  21
ATOM     21  C   UNL     1       2.849   5.644  20.028  0.00  0.00    +0.000 C 
BRANCH  21  25
ATOM     22  C   UNL     1       1.185   9.560  19.173  0.00  0.00    +0.000 A 
ATOM     23  C   UNL     1       0.964   8.941  20.418  0.00  0.00    +0.000 A 
ATOM     24  C   UNL     1       1.453   7.659  20.696  0.00  0.00    +0.000 A 
ATOM     25  C   UNL     1       2.178   6.958  19.728  0.00  0.00    +0.000 A 
ATOM     26  C   UNL     1       2.359   7.541  18.469  0.00  0.00    +0.000 A 
ATOM     27  C   UNL     1       1.860   8.815  18.195  0.00  0.00    +0.000 A 
BRANCH  22  32
ATOM     28  C   UNL     1       1.291  13.297  18.455  0.00  0.00    +0.000 A 
ATOM     29  C   UNL     1      -0.067  13.600  18.376  0.00  0.00    +0.000 A 
ATOM     30  C   UNL     1      -1.019  12.599  18.551  0.00  0.00    +0.000 A 
ATOM     31  C   UNL     1      -0.613  11.288  18.805  0.00  0.00    +0.000 A 
ATOM     32  C   UNL     1       0.749  10.950  18.902  0.00  0.00    +0.000 A 
ATOM     33  C   UNL     1       1.685  11.982  18.721  0.00  0.00    +0.000 A 
BRANCH  28  34
ATOM     34  O   UNL     1       2.142  14.354  18.269  0.00  0.00    +0.000 OA
BRANCH  34  36
ATOM     35  C   UNL     1       3.742  14.865  19.976  0.00  0.00    +0.000 C 
ATOM     36  C   UNL     1       3.498  14.146  18.665  0.00  0.00    +0.000 C 
ENDBRANCH  34  36
ENDBRANCH  28  34
ENDBRANCH  22  32
ENDBRANCH  21  25
ENDBRANCH   1  21
TORSDOF 12
ENDMDL
MODEL 3
REMARK VINA RESULT:      -7.5      1.219      2.046
REMARK  Name = 
REMARK  15 active torsions:
REMARK  status: ('A' for Active; 'I' for Inactive)
REMARK    1  A    between atoms: C_1  and  C_2
REMARK    2  A    between atoms: C_2  and  O_3
REMARK    3  A    between atoms: O_3  and  C_4
REMARK    4  A    between atoms: C_8  and  C_9
REMARK    5  A    between atoms: C_12  and  C_13
REMARK    6  A    between atoms: C_13  and  N_14
REMARK    7  A    between atoms: N_14  and  C_15
REMARK    8  A    between atoms: N_14  and  S_27
REMARK    9  A    between atoms: C_15  and  C_16
REMARK   10  A    between atoms: C_15  and  C_17
REMARK   11  A    between atoms: N_19  and  C_20
REMARK   12  A    between atoms: C_20  and  C_21
REMARK   13  A    between atoms: C_20  and  C_23
REMARK   14  A    between atoms: C_23  and  C_24
REMARK   15  A    between atoms: S_27  and  C_28
REMARK                            x       y       z     vdW  Elec       q    Type
REMARK                         _______ _______ _______ _____ _____    ______ ____
ROOT
ATOM      1  N   UNL     1       2.386   4.264  19.199  0.00  0.00    +0.000 NA
ENDROOT
BRANCH   1   2
ATOM      2  S   UNL     1       1.518   3.085  20.086  0.00  0.00    +0.000 S 
ATOM      3  C   UNL     1       2.227   3.194  21.726  0.00  0.00    +0.000 C 
ATOM      4  O   UNL     1       0.139   3.510  20.173  0.00  0.00    +0.000 OA
ATOM      5  O   UNL     1       1.861   1.812  19.486  0.00  0.00    +0.000 OA
ENDBRANCH   1   2
BRANCH   1   6
ATOM      6  C   UNL     1       3.387   3.659  18.232  0.00  0.00    +0.000 C 
ATOM      7  C   UNL     1       2.908   3.797  16.779  0.00  0.00    +0.000 C 
BRANCH   6   8
ATOM      8  C   UNL     1       4.874   4.030  18.277  0.00  0.00    +0.000 C 
ATOM      9  O   UNL     1       5.618   3.575  19.150  0.00  0.00    +0.000 OA
ATOM     10  N   UNL     1       5.385   4.878  17.329  0.00  0.00    +0.000 N 
ATOM     11  H   UNL     1       4.754   5.511  16.835  0.00  0.00    +0.000 HD
BRANCH  10  12
ATOM     12  C   UNL     1       6.823   5.203  17.326  0.00  0.00    +0.000 C 
BRANCH  12  13
ATOM     13  C   UNL     1       7.000   6.673  17.376  0.00  0.00    +0.000 C 
ATOM     14  N   UNL     1       7.138   7.819  17.351  0.00  0.00    +0.000 NA
ENDBRANCH  12  13
BRANCH  12  15
ATOM     15  C   UNL     1       7.495   4.633  16.063  0.00  0.00    +0.000 C 
BRANCH  15  16
ATOM     16  C   UNL     1       6.577   4.686  14.865  0.00  0.00    +0.000 C 
ATOM     17  N   UNL     1       6.387   3.489  14.237  0.00  0.00    +0.000 N 
ATOM     18  O   UNL     1       6.039   5.703  14.450  0.00  0.00    +0.000 OA
ATOM     19  H   UNL     1       6.778   2.613  14.557  0.00  0.00    +0.000 HD
ATOM     20  H   UNL     1       5.768   3.475  13.436  0.00  0.00    +0.000 HD
ENDBRANCH  15  16
ENDBRANCH  12  15
ENDBRANCH  10  12
ENDBRANCH   6   8
ENDBRANCH   1   6
BRANCH   1  21
ATOM     21  C   UNL     1       2.884   5.373  20.061  0.00  0.00    +0.000 C 
BRANCH  21  25
ATOM     22  C   UNL     1       1.233   9.277  19.126  0.00  0.00    +0.000 A 
ATOM     23  C   UNL     1       1.962   8.554  18.162  0.00  0.00    +0.000 A 
ATOM     24  C   UNL     1       2.542   7.315  18.459  0.00  0.00    +0.000 A 
ATOM     25  C   UNL     1       2.409   6.765  19.737  0.00  0.00    +0.000 A 
ATOM     26  C   UNL     1       1.731   7.497  20.718  0.00  0.00    +0.000 A 
ATOM     27  C   UNL     1       1.165   8.737  20.418  0.00  0.00    +0.000 A 
BRANCH  22  32
ATOM     28  C   UNL     1       0.577  12.981  18.547  0.00  0.00    +0.000 A 
ATOM     29  C   UNL     1      -0.761  12.966  18.160  0.00  0.00    +0.000 A 
ATOM     30  C   UNL     1      -1.454  11.761  18.082  0.00  0.00    +0.000 A 
ATOM     31  C   UNL     1      -0.805  10.564  18.392  0.00  0.00    +0.000 A 
ATOM     32  C   UNL     1       0.542  10.544  18.795  0.00  0.00    +0.000 A 
ATOM     33  C   UNL     1       1.213  11.777  18.865  0.00  0.00    +0.000 A 
BRANCH  28  34
ATOM     34  O   UNL     1       1.163  14.219  18.592  0.00  0.00    +0.000 OA
BRANCH  34  36
ATOM     35  C   UNL     1       0.312  16.201  19.634  0.00  0.00    +0.000 C 
ATOM     36  C   UNL     1       1.078  14.909  19.840  0.00  0.00    +0.000 C 
ENDBRANCH  34  36
ENDBRANCH  28  34
ENDBRANCH  22  32
ENDBRANCH  21  25
ENDBRANCH   1  21
TORSDOF 12
ENDMDL
MODEL 4
REMARK VINA RESULT:      -7.2      4.543     10.179
REMARK  Name = 
REMARK  15 active torsions:
REMARK  status: ('A' for Active; 'I' for Inactive)
REMARK    1  A    between atoms: C_1  and  C_2
REMARK    2  A    between atoms: C_2  and  O_3
REMARK    3  A    between atoms: O_3  and  C_4
REMARK    4  A    between atoms: C_8  and  C_9
REMARK    5  A    between atoms: C_12  and  C_13
REMARK    6  A    between atoms: C_13  and  N_14
REMARK    7  A    between atoms: N_14  and  C_15
REMARK    8  A    between atoms: N_14  and  S_27
REMARK    9  A    between atoms: C_15  and  C_16
REMARK   10  A    between atoms: C_15  and  C_17
REMARK   11  A    between atoms: N_19  and  C_20
REMARK   12  A    between atoms: C_20  and  C_21
REMARK   13  A    between atoms: C_20  and  C_23
REMARK   14  A    between atoms: C_23  and  C_24
REMARK   15  A    between atoms: S_27  and  C_28
REMARK                            x       y       z     vdW  Elec       q    Type
REMARK                         _______ _______ _______ _____ _____    ______ ____
ROOT
ATOM      1  N   UNL     1      -0.069  11.682  18.716  0.00  0.00    +0.000 NA
ENDROOT
BRANCH   1   2
ATOM      2  S   UNL     1       0.623  13.225  18.983  0.00  0.00    +0.000 S 
ATOM      3  C   UNL     1       2.074  13.217  17.935  0.00  0.00    +0.000 C 
ATOM      4  O   UNL     1      -0.287  14.222  18.467  0.00  0.00    +0.000 OA
ATOM      5  O   UNL     1       1.022  13.240  20.375  0.00  0.00    +0.000 OA
ENDBRANCH   1   2
BRANCH   1   6
ATOM      6  C   UNL     1      -1.536  11.749  18.334  0.00  0.00    +0.000 C 
ATOM      7  C   UNL     1      -1.980  10.467  17.614  0.00  0.00    +0.000 C 
BRANCH   6   8
ATOM      8  C   UNL     1      -2.618  12.117  19.356  0.00  0.00    +0.000 C 
ATOM      9  O   UNL     1      -3.816  12.015  19.081  0.00  0.00    +0.000 OA
ATOM     10  N   UNL     1      -2.247  12.564  20.598  0.00  0.00    +0.000 N 
ATOM     11  H   UNL     1      -1.318  12.972  20.724  0.00  0.00    +0.000 HD
BRANCH  10  12
ATOM     12  C   UNL     1      -3.273  12.873  21.610  0.00  0.00    +0.000 C 
BRANCH  12  13
ATOM     13  C   UNL     1      -3.366  14.340  21.792  0.00  0.00    +0.000 C 
ATOM     14  N   UNL     1      -3.384  15.490  21.900  0.00  0.00    +0.000 NA
ENDBRANCH  12  13
BRANCH  12  15
ATOM     15  C   UNL     1      -2.922  12.196  22.947  0.00  0.00    +0.000 C 
BRANCH  15  16
ATOM     16  C   UNL     1      -1.449  11.878  23.048  0.00  0.00    +0.000 C 
ATOM     17  N   UNL     1      -1.158  10.551  23.178  0.00  0.00    +0.000 N 
ATOM     18  O   UNL     1      -0.558  12.716  23.034  0.00  0.00    +0.000 OA
ATOM     19  H   UNL     1      -1.850   9.814  23.160  0.00  0.00    +0.000 HD
ATOM     20  H   UNL     1      -0.181  10.290  23.235  0.00  0.00    +0.000 HD
ENDBRANCH  15  16
ENDBRANCH  12  15
ENDBRANCH  10  12
ENDBRANCH   6   8
ENDBRANCH   1   6
BRANCH   1  21
ATOM     21  C   UNL     1       0.295  10.703  19.781  0.00  0.00    +0.000 C 
BRANCH  21  25
ATOM     22  C   UNL     1       2.612   7.280  18.459  0.00  0.00    +0.000 A 
ATOM     23  C   UNL     1       2.106   7.342  19.771  0.00  0.00    +0.000 A 
ATOM     24  C   UNL     1       1.396   8.458  20.231  0.00  0.00    +0.000 A 
ATOM     25  C   UNL     1       1.176   9.549  19.384  0.00  0.00    +0.000 A 
ATOM     26  C   UNL     1       1.719   9.520  18.095  0.00  0.00    +0.000 A 
ATOM     27  C   UNL     1       2.434   8.409  17.647  0.00  0.00    +0.000 A 
BRANCH  22  32
ATOM     28  C   UNL     1       5.039   5.032  16.577  0.00  0.00    +0.000 A 
ATOM     29  C   UNL     1       4.582   3.767  16.942  0.00  0.00    +0.000 A 
ATOM     30  C   UNL     1       3.491   3.637  17.798  0.00  0.00    +0.000 A 
ATOM     31  C   UNL     1       2.855   4.777  18.293  0.00  0.00    +0.000 A 
ATOM     32  C   UNL     1       3.285   6.068  17.937  0.00  0.00    +0.000 A 
ATOM     33  C   UNL     1       4.387   6.166  17.071  0.00  0.00    +0.000 A 
BRANCH  28  34
ATOM     34  O   UNL     1       6.116   5.046  15.730  0.00  0.00    +0.000 OA
BRANCH  34  36
ATOM     35  C   UNL     1       5.908   4.005  13.583  0.00  0.00    +0.000 C 
ATOM     36  C   UNL     1       6.370   3.835  15.017  0.00  0.00    +0.000 C 
ENDBRANCH  34  36
ENDBRANCH  28  34
ENDBRANCH  22  32
ENDBRANCH  21  25
ENDBRANCH   1  21
TORSDOF 12
ENDMDL
MODEL 5
REMARK VINA RESULT:      -7.0      5.151     10.628
REMARK  Name = 
REMARK  15 active torsions:
REMARK  status: ('A' for Active; 'I' for Inactive)
REMARK    1  A    between atoms: C_1  and  C_2
REMARK    2  A    between atoms: C_2  and  O_3
REMARK    3  A    between atoms: O_3  and  C_4
REMARK    4  A    between atoms: C_8  and  C_9
REMARK    5  A    between atoms: C_12  and  C_13
REMARK    6  A    between atoms: C_13  and  N_14
REMARK    7  A    between atoms: N_14  and  C_15
REMARK    8  A    between atoms: N_14  and  S_27
REMARK    9  A    between atoms: C_15  and  C_16
REMARK   10  A    between atoms: C_15  and  C_17
REMARK   11  A    between atoms: N_19  and  C_20
REMARK   12  A    between atoms: C_20  and  C_21
REMARK   13  A    between atoms: C_20  and  C_23
REMARK   14  A    between atoms: C_23  and  C_24
REMARK   15  A    between atoms: S_27  and  C_28
REMARK                            x       y       z     vdW  Elec       q    Type
REMARK                         _______ _______ _______ _____ _____    ______ ____
ROOT
ATOM      1  N   UNL     1      -0.285  11.978  19.657  0.00  0.00    +0.000 NA
ENDROOT
BRANCH   1   2
ATOM      2  S   UNL     1       0.450  13.153  20.662  0.00  0.00    +0.000 S 
ATOM      3  C   UNL     1       2.165  13.123  20.151  0.00  0.00    +0.000 C 
ATOM      4  O   UNL     1      -0.091  14.447  20.313  0.00  0.00    +0.000 OA
ATOM      5  O   UNL     1       0.330  12.643  22.012  0.00  0.00    +0.000 OA
ENDBRANCH   1   2
BRANCH   1   6
ATOM      6  C   UNL     1      -1.604  12.444  19.068  0.00  0.00    +0.000 C 
ATOM      7  C   UNL     1      -1.900  11.733  17.739  0.00  0.00    +0.000 C 
BRANCH   6   8
ATOM      8  C   UNL     1      -2.895  12.459  19.895  0.00  0.00    +0.000 C 
ATOM      9  O   UNL     1      -3.953  12.025  19.433  0.00  0.00    +0.000 OA
ATOM     10  N   UNL     1      -2.871  12.960  21.171  0.00  0.00    +0.000 N 
ATOM     11  H   UNL     1      -2.131  13.613  21.436  0.00  0.00    +0.000 HD
BRANCH  10  12
ATOM     12  C   UNL     1      -4.090  12.933  21.998  0.00  0.00    +0.000 C 
BRANCH  12  13
ATOM     13  C   UNL     1      -4.792  14.234  21.891  0.00  0.00    +0.000 C 
ATOM     14  N   UNL     1      -5.283  15.274  21.790  0.00  0.00    +0.000 NA
ENDBRANCH  12  13
BRANCH  12  15
ATOM     15  C   UNL     1      -3.730  12.648  23.468  0.00  0.00    +0.000 C 
BRANCH  15  16
ATOM     16  C   UNL     1      -3.002  13.808  24.105  0.00  0.00    +0.000 C 
ATOM     17  N   UNL     1      -3.630  14.354  25.186  0.00  0.00    +0.000 N 
ATOM     18  O   UNL     1      -1.938  14.261  23.704  0.00  0.00    +0.000 OA
ATOM     19  H   UNL     1      -4.490  13.998  25.581  0.00  0.00    +0.000 HD
ATOM     20  H   UNL     1      -3.170  15.126  25.653  0.00  0.00    +0.000 HD
ENDBRANCH  15  16
ENDBRANCH  12  15
ENDBRANCH  10  12
ENDBRANCH   6   8
ENDBRANCH   1   6
BRANCH   1  21
ATOM     21  C   UNL     1      -0.276  10.619  20.269  0.00  0.00    +0.000 C 
BRANCH  21  25
ATOM     22  C   UNL     1       2.387   7.639  18.576  0.00  0.00    +0.000 A 
ATOM     23  C   UNL     1       2.027   7.592  19.937  0.00  0.00    +0.000 A 
ATOM     24  C   UNL     1       1.207   8.570  20.512  0.00  0.00    +0.000 A 
ATOM     25  C   UNL     1       0.725   9.629  19.736  0.00  0.00    +0.000 A 
ATOM     26  C   UNL     1       1.119   9.715  18.397  0.00  0.00    +0.000 A 
ATOM     27  C   UNL     1       1.945   8.743  17.832  0.00  0.00    +0.000 A 
BRANCH  22  32
ATOM     28  C   UNL     1       3.527   4.188  17.447  0.00  0.00    +0.000 A 
ATOM     29  C   UNL     1       4.676   4.501  16.722  0.00  0.00    +0.000 A 
ATOM     30  C   UNL     1       5.083   5.826  16.595  0.00  0.00    +0.000 A 
ATOM     31  C   UNL     1       4.338   6.845  17.193  0.00  0.00    +0.000 A 
ATOM     32  C   UNL     1       3.179   6.562  17.939  0.00  0.00    +0.000 A 
ATOM     33  C   UNL     1       2.795   5.215  18.050  0.00  0.00    +0.000 A 
BRANCH  28  34
ATOM     34  O   UNL     1       3.217   2.854  17.511  0.00  0.00    +0.000 OA
BRANCH  34  36
ATOM     35  C   UNL     1       4.149   2.236  19.629  0.00  0.00    +0.000 C 
ATOM     36  C   UNL     1       2.882   2.349  18.804  0.00  0.00    +0.000 C 
ENDBRANCH  34  36
ENDBRANCH  28  34
ENDBRANCH  22  32
ENDBRANCH  21  25
ENDBRANCH   1  21
TORSDOF 12
ENDMDL
MODEL 6
REMARK VINA RESULT:      -7.0      2.373      5.117
REMARK  Name = 
REMARK  15 active torsions:
REMARK  status: ('A' for Active; 'I' for Inactive)
REMARK    1  A    between atoms: C_1  and  C_2
REMARK    2  A    between atoms: C_2  and  O_3
REMARK    3  A    between atoms: O_3  and  C_4
REMARK    4  A    between atoms: C_8  and  C_9
REMARK    5  A    between atoms: C_12  and  C_13
REMARK    6  A    between atoms: C_13  and  N_14
REMARK    7  A    between atoms: N_14  and  C_15
REMARK    8  A    between atoms: N_14  and  S_27
REMARK    9  A    between atoms: C_15  and  C_16
REMARK   10  A    between atoms: C_15  and  C_17
REMARK   11  A    between atoms: N_19  and  C_20
REMARK   12  A    between atoms: C_20  and  C_21
REMARK   13  A    between atoms: C_20  and  C_23
REMARK   14  A    between atoms: C_23  and  C_24
REMARK   15  A    between atoms: S_27  and  C_28
REMARK                            x       y       z     vdW  Elec       q    Type
REMARK                         _______ _______ _______ _____ _____    ______ ____
ROOT
ATOM      1  N   UNL     1       6.153   5.458  16.658  0.00  0.00    +0.000 NA
ENDROOT
BRANCH   1   2
ATOM      2  S   UNL     1       7.145   4.800  15.428  0.00  0.00    +0.000 S 
ATOM      3  C   UNL     1       6.008   3.815  14.459  0.00  0.00    +0.000 C 
ATOM      4  O   UNL     1       7.609   5.885  14.594  0.00  0.00    +0.000 OA
ATOM      5  O   UNL     1       8.089   3.936  16.106  0.00  0.00    +0.000 OA
ENDBRANCH   1   2
BRANCH   1   6
ATOM      6  C   UNL     1       6.625   5.098  18.055  0.00  0.00    +0.000 C 
ATOM      7  C   UNL     1       7.372   6.271  18.707  0.00  0.00    +0.000 C 
BRANCH   6   8
ATOM      8  C   UNL     1       5.671   4.505  19.099  0.00  0.00    +0.000 C 
ATOM      9  O   UNL     1       5.273   5.178  20.053  0.00  0.00    +0.000 OA
ATOM     10  N   UNL     1       5.253   3.206  18.968  0.00  0.00    +0.000 N 
ATOM     11  H   UNL     1       5.815   2.555  18.415  0.00  0.00    +0.000 HD
BRANCH  10  12
ATOM     12  C   UNL     1       4.296   2.637  19.934  0.00  0.00    +0.000 C 
BRANCH  12  13
ATOM     13  C   UNL     1       5.004   1.705  20.843  0.00  0.00    +0.000 C 
ATOM     14  N   UNL     1       5.537   1.016  21.601  0.00  0.00    +0.000 NA
ENDBRANCH  12  13
BRANCH  12  15
ATOM     15  C   UNL     1       3.169   1.897  19.192  0.00  0.00    +0.000 C 
BRANCH  15  16
ATOM     16  C   UNL     1       1.804   2.290  19.704  0.00  0.00    +0.000 C 
ATOM     17  N   UNL     1       0.859   2.469  18.735  0.00  0.00    +0.000 N 
ATOM     18  O   UNL     1       1.530   2.459  20.884  0.00  0.00    +0.000 OA
ATOM     19  H   UNL     1       1.021   2.309  17.750  0.00  0.00    +0.000 HD
ATOM     20  H   UNL     1      -0.075   2.721  19.034  0.00  0.00    +0.000 HD
ENDBRANCH  15  16
ENDBRANCH  12  15
ENDBRANCH  10  12
ENDBRANCH   6   8
ENDBRANCH   1   6
BRANCH   1  21
ATOM     21  C   UNL     1       4.700   5.269  16.380  0.00  0.00    +0.000 C 
BRANCH  21  25
ATOM     22  C   UNL     1       2.132   7.745  18.852  0.00  0.00    +0.000 A 
ATOM     23  C   UNL     1       1.951   6.350  18.798  0.00  0.00    +0.000 A 
ATOM     24  C   UNL     1       2.738   5.540  17.971  0.00  0.00    +0.000 A 
ATOM     25  C   UNL     1       3.733   6.110  17.170  0.00  0.00    +0.000 A 
ATOM     26  C   UNL     1       3.887   7.500  17.176  0.00  0.00    +0.000 A 
ATOM     27  C   UNL     1       3.092   8.302  17.994  0.00  0.00    +0.000 A 
BRANCH  22  32
ATOM     28  C   UNL     1       0.026  10.602  20.227  0.00  0.00    +0.000 A 
ATOM     29  C   UNL     1      -0.106  10.228  21.563  0.00  0.00    +0.000 A 
ATOM     30  C   UNL     1       0.482   9.052  22.022  0.00  0.00    +0.000 A 
ATOM     31  C   UNL     1       1.204   8.245  21.141  0.00  0.00    +0.000 A 
ATOM     32  C   UNL     1       1.366   8.598  19.790  0.00  0.00    +0.000 A 
ATOM     33  C   UNL     1       0.761   9.790  19.357  0.00  0.00    +0.000 A 
BRANCH  28  34
ATOM     34  O   UNL     1      -0.590  11.776  19.881  0.00  0.00    +0.000 OA
BRANCH  34  36
ATOM     35  C   UNL     1      -2.588  11.574  18.576  0.00  0.00    +0.000 C 
ATOM     36  C   UNL     1      -1.097  11.849  18.548  0.00  0.00    +0.000 C 
ENDBRANCH  34  36
ENDBRANCH  28  34
ENDBRANCH  22  32
ENDBRANCH  21  25
ENDBRANCH   1  21
TORSDOF 12
ENDMDL
MODEL 7
REMARK VINA RESULT:      -7.0      1.359      1.764
REMARK  Name = 
REMARK  15 active torsions:
REMARK  status: ('A' for Active; 'I' for Inactive)
REMARK    1  A    between atoms: C_1  and  C_2
REMARK    2  A    between atoms: C_2  and  O_3
REMARK    3  A    between atoms: O_3  and  C_4
REMARK    4  A    between atoms: C_8  and  C_9
REMARK    5  A    between atoms: C_12  and  C_13
REMARK    6  A    between atoms: C_13  and  N_14
REMARK    7  A    between atoms: N_14  and  C_15
REMARK    8  A    between atoms: N_14  and  S_27
REMARK    9  A    between atoms: C_15  and  C_16
REMARK   10  A    between atoms: C_15  and  C_17
REMARK   11  A    between atoms: N_19  and  C_20
REMARK   12  A    between atoms: C_20  and  C_21
REMARK   13  A    between atoms: C_20  and  C_23
REMARK   14  A    between atoms: C_23  and  C_24
REMARK   15  A    between atoms: S_27  and  C_28
REMARK                            x       y       z     vdW  Elec       q    Type
REMARK                         _______ _______ _______ _____ _____    ______ ____
ROOT
ATOM      1  N   UNL     1       2.393   4.328  19.163  0.00  0.00    +0.000 NA
ENDROOT
BRANCH   1   2
ATOM      2  S   UNL     1       1.406   3.255  20.061  0.00  0.00    +0.000 S 
ATOM      3  C   UNL     1       0.726   2.170  18.811  0.00  0.00    +0.000 C 
ATOM      4  O   UNL     1       2.263   2.461  20.913  0.00  0.00    +0.000 OA
ATOM      5  O   UNL     1       0.354   4.072  20.628  0.00  0.00    +0.000 OA
ENDBRANCH   1   2
BRANCH   1   6
ATOM      6  C   UNL     1       3.386   3.610  18.268  0.00  0.00    +0.000 C 
ATOM      7  C   UNL     1       3.061   3.838  16.785  0.00  0.00    +0.000 C 
BRANCH   6   8
ATOM      8  C   UNL     1       4.900   3.773  18.452  0.00  0.00    +0.000 C 
ATOM      9  O   UNL     1       5.519   3.090  19.271  0.00  0.00    +0.000 OA
ATOM     10  N   UNL     1       5.575   4.691  17.691  0.00  0.00    +0.000 N 
ATOM     11  H   UNL     1       5.060   5.473  17.281  0.00  0.00    +0.000 HD
BRANCH  10  12
ATOM     12  C   UNL     1       7.037   4.824  17.818  0.00  0.00    +0.000 C 
BRANCH  12  13
ATOM     13  C   UNL     1       7.385   5.172  19.216  0.00  0.00    +0.000 C 
ATOM     14  N   UNL     1       7.714   5.460  20.284  0.00  0.00    +0.000 NA
ENDBRANCH  12  13
BRANCH  12  15
ATOM     15  C   UNL     1       7.558   5.910  16.859  0.00  0.00    +0.000 C 
BRANCH  15  16
ATOM     16  C   UNL     1       6.901   7.246  17.110  0.00  0.00    +0.000 C 
ATOM     17  N   UNL     1       7.766   8.272  17.359  0.00  0.00    +0.000 N 
ATOM     18  O   UNL     1       5.691   7.433  17.114  0.00  0.00    +0.000 OA
ATOM     19  H   UNL     1       8.773   8.182  17.333  0.00  0.00    +0.000 HD
ATOM     20  H   UNL     1       7.369   9.190  17.520  0.00  0.00    +0.000 HD
ENDBRANCH  15  16
ENDBRANCH  12  15
ENDBRANCH  10  12
ENDBRANCH   6   8
ENDBRANCH   1   6
BRANCH   1  21
ATOM     21  C   UNL     1       2.934   5.437  19.999  0.00  0.00    +0.000 C 
BRANCH  21  25
ATOM     22  C   UNL     1       1.184   9.324  19.182  0.00  0.00    +0.000 A 
ATOM     23  C   UNL     1       1.924   8.647  18.194  0.00  0.00    +0.000 A 
ATOM     24  C   UNL     1       2.536   7.414  18.453  0.00  0.00    +0.000 A 
ATOM     25  C   UNL     1       2.424   6.825  19.716  0.00  0.00    +0.000 A 
ATOM     26  C   UNL     1       1.735   7.513  20.721  0.00  0.00    +0.000 A 
ATOM     27  C   UNL     1       1.136   8.746  20.459  0.00  0.00    +0.000 A 
BRANCH  22  32
ATOM     28  C   UNL     1      -1.637  11.781  18.479  0.00  0.00    +0.000 A 
ATOM     29  C   UNL     1      -0.933  12.976  18.345  0.00  0.00    +0.000 A 
ATOM     30  C   UNL     1       0.452  12.992  18.483  0.00  0.00    +0.000 A 
ATOM     31  C   UNL     1       1.138  11.808  18.759  0.00  0.00    +0.000 A 
ATOM     32  C   UNL     1       0.460  10.583  18.891  0.00  0.00    +0.000 A 
ATOM     33  C   UNL     1      -0.937  10.599  18.745  0.00  0.00    +0.000 A 
BRANCH  28  34
ATOM     34  O   UNL     1      -2.995  11.877  18.322  0.00  0.00    +0.000 OA
BRANCH  34  36
ATOM     35  C   UNL     1      -5.014  11.247  17.199  0.00  0.00    +0.000 C 
ATOM     36  C   UNL     1      -3.515  11.431  17.069  0.00  0.00    +0.000 C 
ENDBRANCH  34  36
ENDBRANCH  28  34
ENDBRANCH  22  32
ENDBRANCH  21  25
ENDBRANCH   1  21
TORSDOF 12
ENDMDL
MODEL 8
REMARK VINA RESULT:      -6.9      2.504      4.605
REMARK  Name = 
REMARK  15 active torsions:
REMARK  status: ('A' for Active; 'I' for Inactive)
REMARK    1  A    between atoms: C_1  and  C_2
REMARK    2  A    between atoms: C_2  and  O_3
REMARK    3  A    between atoms: O_3  and  C_4
REMARK    4  A    between atoms: C_8  and  C_9
REMARK    5  A    between atoms: C_12  and  C_13
REMARK    6  A    between atoms: C_13  and  N_14
REMARK    7  A    between atoms: N_14  and  C_15
REMARK    8  A    between atoms: N_14  and  S_27
REMARK    9  A    between atoms: C_15  and  C_16
REMARK   10  A    between atoms: C_15  and  C_17
REMARK   11  A    between atoms: N_19  and  C_20
REMARK   12  A    between atoms: C_20  and  C_21
REMARK   13  A    between atoms: C_20  and  C_23
REMARK   14  A    between atoms: C_23  and  C_24
REMARK   15  A    between atoms: S_27  and  C_28
REMARK                            x       y       z     vdW  Elec       q    Type
REMARK                         _______ _______ _______ _____ _____    ______ ____
ROOT
ATOM      1  N   UNL     1       5.205   6.138  17.293  0.00  0.00    +0.000 NA
ENDROOT
BRANCH   1   2
ATOM      2  S   UNL     1       5.859   6.081  15.712  0.00  0.00    +0.000 S 
ATOM      3  C   UNL     1       5.471   4.423  15.161  0.00  0.00    +0.000 C 
ATOM      4  O   UNL     1       5.118   7.005  14.884  0.00  0.00    +0.000 OA
ATOM      5  O   UNL     1       7.291   6.222  15.875  0.00  0.00    +0.000 OA
ENDBRANCH   1   2
BRANCH   1   6
ATOM      6  C   UNL     1       5.901   5.195  18.256  0.00  0.00    +0.000 C 
ATOM      7  C   UNL     1       7.037   5.907  19.005  0.00  0.00    +0.000 C 
BRANCH   6   8
ATOM      8  C   UNL     1       5.116   4.358  19.273  0.00  0.00    +0.000 C 
ATOM      9  O   UNL     1       4.603   4.878  20.266  0.00  0.00    +0.000 OA
ATOM     10  N   UNL     1       4.980   3.008  19.071  0.00  0.00    +0.000 N 
ATOM     11  H   UNL     1       5.656   2.522  18.478  0.00  0.00    +0.000 HD
BRANCH  10  12
ATOM     12  C   UNL     1       4.184   2.198  20.010  0.00  0.00    +0.000 C 
BRANCH  12  13
ATOM     13  C   UNL     1       5.090   1.380  20.851  0.00  0.00    +0.000 C 
ATOM     14  N   UNL     1       5.763   0.763  21.558  0.00  0.00    +0.000 NA
ENDBRANCH  12  13
BRANCH  12  15
ATOM     15  C   UNL     1       3.216   1.284  19.236  0.00  0.00    +0.000 C 
BRANCH  15  16
ATOM     16  C   UNL     1       2.299   2.073  18.332  0.00  0.00    +0.000 C 
ATOM     17  N   UNL     1       1.030   2.239  18.808  0.00  0.00    +0.000 N 
ATOM     18  O   UNL     1       2.625   2.532  17.246  0.00  0.00    +0.000 OA
ATOM     19  H   UNL     1       0.718   1.913  19.713  0.00  0.00    +0.000 HD
ATOM     20  H   UNL     1       0.384   2.774  18.240  0.00  0.00    +0.000 HD
ENDBRANCH  15  16
ENDBRANCH  12  15
ENDBRANCH  10  12
ENDBRANCH   6   8
ENDBRANCH   1   6
BRANCH   1  21
ATOM     21  C   UNL     1       3.715   6.106  17.294  0.00  0.00    +0.000 C 
BRANCH  21  25
ATOM     22  C   UNL     1       1.415   8.912  19.676  0.00  0.00    +0.000 A 
ATOM     23  C   UNL     1       1.835   9.248  18.375  0.00  0.00    +0.000 A 
ATOM     24  C   UNL     1       2.617   8.376  17.608  0.00  0.00    +0.000 A 
ATOM     25  C   UNL     1       3.003   7.137  18.130  0.00  0.00    +0.000 A 
ATOM     26  C   UNL     1       2.637   6.814  19.440  0.00  0.00    +0.000 A 
ATOM     27  C   UNL     1       1.866   7.693  20.202  0.00  0.00    +0.000 A 
BRANCH  22  32
ATOM     28  C   UNL     1      -1.104  11.627  20.557  0.00  0.00    +0.000 A 
ATOM     29  C   UNL     1      -1.212  11.463  21.937  0.00  0.00    +0.000 A 
ATOM     30  C   UNL     1      -0.475  10.476  22.585  0.00  0.00    +0.000 A 
ATOM     31  C   UNL     1       0.374   9.645  21.851  0.00  0.00    +0.000 A 
ATOM     32  C   UNL     1       0.514   9.790  20.459  0.00  0.00    +0.000 A 
ATOM     33  C   UNL     1      -0.242  10.795  19.834  0.00  0.00    +0.000 A 
BRANCH  28  34
ATOM     34  O   UNL     1      -1.871  12.627  20.021  0.00  0.00    +0.000 OA
BRANCH  34  36
ATOM     35  C   UNL     1      -4.262  12.686  20.152  0.00  0.00    +0.000 C 
ATOM     36  C   UNL     1      -3.064  12.214  19.353  0.00  0.00    +0.000 C 
ENDBRANCH  34  36
ENDBRANCH  28  34
ENDBRANCH  22  32
ENDBRANCH  21  25
ENDBRANCH   1  21
TORSDOF 12
ENDMDL
MODEL 9
REMARK VINA RESULT:      -6.9      1.909      2.630
REMARK  Name = 
REMARK  15 active torsions:
REMARK  status: ('A' for Active; 'I' for Inactive)
REMARK    1  A    between atoms: C_1  and  C_2
REMARK    2  A    between atoms: C_2  and  O_3
REMARK    3  A    between atoms: O_3  and  C_4
REMARK    4  A    between atoms: C_8  and  C_9
REMARK    5  A    between atoms: C_12  and  C_13
REMARK    6  A    between atoms: C_13  and  N_14
REMARK    7  A    between atoms: N_14  and  C_15
REMARK    8  A    between atoms: N_14  and  S_27
REMARK    9  A    between atoms: C_15  and  C_16
REMARK   10  A    between atoms: C_15  and  C_17
REMARK   11  A    between atoms: N_19  and  C_20
REMARK   12  A    between atoms: C_20  and  C_21
REMARK   13  A    between atoms: C_20  and  C_23
REMARK   14  A    between atoms: C_23  and  C_24
REMARK   15  A    between atoms: S_27  and  C_28
REMARK                            x       y       z     vdW  Elec       q    Type
REMARK                         _______ _______ _______ _____ _____    ______ ____
ROOT
ATOM      1  N   UNL     1       2.337   5.043  19.384  0.00  0.00    +0.000 NA
ENDROOT
BRANCH   1   2
ATOM      2  S   UNL     1       2.003   3.738  20.441  0.00  0.00    +0.000 S 
ATOM      3  C   UNL     1       3.286   2.551  20.053  0.00  0.00    +0.000 C 
ATOM      4  O   UNL     1       2.217   4.190  21.797  0.00  0.00    +0.000 OA
ATOM      5  O   UNL     1       0.715   3.220  20.030  0.00  0.00    +0.000 OA
ENDBRANCH   1   2
BRANCH   1   6
ATOM      6  C   UNL     1       3.134   4.627  18.163  0.00  0.00    +0.000 C 
ATOM      7  C   UNL     1       2.220   4.037  17.078  0.00  0.00    +0.000 C 
BRANCH   6   8
ATOM      8  C   UNL     1       4.122   5.583  17.481  0.00  0.00    +0.000 C 
ATOM      9  O   UNL     1       3.729   6.601  16.906  0.00  0.00    +0.000 OA
ATOM     10  N   UNL     1       5.463   5.301  17.515  0.00  0.00    +0.000 N 
ATOM     11  H   UNL     1       5.766   4.337  17.669  0.00  0.00    +0.000 HD
BRANCH  10  12
ATOM     12  C   UNL     1       6.429   6.235  16.911  0.00  0.00    +0.000 C 
BRANCH  12  13
ATOM     13  C   UNL     1       7.017   5.625  15.695  0.00  0.00    +0.000 C 
ATOM     14  N   UNL     1       7.456   5.201  14.715  0.00  0.00    +0.000 NA
ENDBRANCH  12  13
BRANCH  12  15
ATOM     15  C   UNL     1       7.541   6.576  17.920  0.00  0.00    +0.000 C 
BRANCH  15  16
ATOM     16  C   UNL     1       7.907   5.389  18.778  0.00  0.00    +0.000 C 
ATOM     17  N   UNL     1       8.084   5.672  20.101  0.00  0.00    +0.000 N 
ATOM     18  O   UNL     1       8.057   4.250  18.356  0.00  0.00    +0.000 OA
ATOM     19  H   UNL     1       7.939   6.586  20.509  0.00  0.00    +0.000 HD
ATOM     20  H   UNL     1       8.317   4.903  20.717  0.00  0.00    +0.000 HD
ENDBRANCH  15  16
ENDBRANCH  12  15
ENDBRANCH  10  12
ENDBRANCH   6   8
ENDBRANCH   1   6
BRANCH   1  21
ATOM     21  C   UNL     1       2.817   6.254  20.109  0.00  0.00    +0.000 C 
BRANCH  21  25
ATOM     22  C   UNL     1       0.543   9.948  19.986  0.00  0.00    +0.000 A 
ATOM     23  C   UNL     1       0.538   9.139  21.138  0.00  0.00    +0.000 A 
ATOM     24  C   UNL     1       1.227   7.921  21.181  0.00  0.00    +0.000 A 
ATOM     25  C   UNL     1       1.942   7.478  20.063  0.00  0.00    +0.000 A 
ATOM     26  C   UNL     1       1.911   8.248  18.896  0.00  0.00    +0.000 A 
ATOM     27  C   UNL     1       1.213   9.456  18.857  0.00  0.00    +0.000 A 
BRANCH  22  32
ATOM     28  C   UNL     1      -1.801  12.831  20.814  0.00  0.00    +0.000 A 
ATOM     29  C   UNL     1      -1.352  13.812  19.932  0.00  0.00    +0.000 A 
ATOM     30  C   UNL     1      -0.291  13.546  19.070  0.00  0.00    +0.000 A 
ATOM     31  C   UNL     1       0.326  12.294  19.091  0.00  0.00    +0.000 A 
ATOM     32  C   UNL     1      -0.108  11.278  19.962  0.00  0.00    +0.000 A 
ATOM     33  C   UNL     1      -1.181  11.577  20.818  0.00  0.00    +0.000 A 
BRANCH  28  34
ATOM     34  O   UNL     1      -2.851  13.195  21.616  0.00  0.00    +0.000 OA
BRANCH  34  36
ATOM     35  C   UNL     1      -4.776  12.691  20.284  0.00  0.00    +0.000 C 
ATOM     36  C   UNL     1      -3.971  13.786  20.955  0.00  0.00    +0.000 C 
ENDBRANCH  34  36
ENDBRANCH  28  34
ENDBRANCH  22  32
ENDBRANCH  21  25
ENDBRANCH   1  21
TORSDOF 12
ENDMDL
