MODEL 1
REMARK VINA RESULT:      -8.3      0.000      0.000
REMARK  Name = 
REMARK  13 active torsions:
REMARK  status: ('A' for Active; 'I' for Inactive)
REMARK    1  A    between atoms: C_1  and  C_2
REMARK    2  A    between atoms: C_4  and  C_5
REMARK    3  A    between atoms: C_5  and  N_6
REMARK    4  A    between atoms: N_6  and  C_7
REMARK    5  A    between atoms: C_7  and  C_8
REMARK    6  A    between atoms: C_8  and  C_9
REMARK    7  A    between atoms: C_9  and  C_10
REMARK    8  A    between atoms: C_10  and  C_11
REMARK    9  A    between atoms: C_11  and  O_12
REMARK   10  A    between atoms: C_11  and  C_21
REMARK   11  A    between atoms: O_12  and  C_13
REMARK   12  A    between atoms: C_18  and  C_19
REMARK   13  A    between atoms: N_23  and  O_24
REMARK                            x       y       z     vdW  Elec       q    Type
REMARK                         _______ _______ _______ _____ _____    ______ ____
ROOT
ATOM      1  C   UNL     1       5.920   4.028  17.188  0.00  0.00    +0.000 C 
ENDROOT
BRANCH   1   2
ATOM      2  C   UNL     1       6.664   4.199  15.859  0.00  0.00    +0.000 C 
ATOM      3  O   UNL     1       7.768   4.744  15.783  0.00  0.00    +0.000 OA
ATOM      4  N   UNL     1       5.999   3.777  14.740  0.00  0.00    +0.000 N 
ATOM      5  H   UNL     1       5.053   3.415  14.738  0.00  0.00    +0.000 HD
BRANCH   4   6
ATOM      6  O   UNL     1       6.632   4.001  13.499  0.00  0.00    +0.000 OA
ATOM      7  H   UNL     1       7.566   3.760  13.693  0.00  0.00    +0.000 HD
ENDBRANCH   4   6
ENDBRANCH   1   2
BRANCH   1   8
ATOM      8  C   UNL     1       5.716   5.385  17.877  0.00  0.00    +0.000 C 
BRANCH   8   9
ATOM      9  C   UNL     1       6.450   5.490  19.216  0.00  0.00    +0.000 C 
BRANCH   9  10
ATOM     10  C   UNL     1       7.844   6.101  19.043  0.00  0.00    +0.000 C 
BRANCH  10  11
ATOM     11  C   UNL     1       7.857   7.369  18.180  0.00  0.00    +0.000 C 
BRANCH  11  12
ATOM     12  N   UNL     1       8.641   8.433  18.796  0.00  0.00    +0.000 NA
ATOM     13  H   UNL     1       8.302   8.631  19.737  0.00  0.00    +0.000 HD
BRANCH  12  14
ATOM     14  C   UNL     1       8.571   9.675  18.026  0.00  0.00    +0.000 C 
BRANCH  14  18
ATOM     15  C   UNL     1      11.943  13.365  17.328  0.00  0.00    +0.000 C 
ATOM     16  C   UNL     1      11.144  12.493  18.246  0.00  0.00    +0.000 A 
ATOM     17  C   UNL     1      10.240  11.551  17.740  0.00  0.00    +0.000 A 
ATOM     18  C   UNL     1       9.514  10.705  18.601  0.00  0.00    +0.000 A 
ATOM     19  C   UNL     1       9.695  10.830  19.986  0.00  0.00    +0.000 A 
ATOM     20  C   UNL     1      10.585  11.776  20.498  0.00  0.00    +0.000 A 
ATOM     21  C   UNL     1      11.302  12.593  19.628  0.00  0.00    +0.000 A 
ATOM     22  F   UNL     1      12.160  13.488  20.139  0.00  0.00    +0.000 F 
ENDBRANCH  14  18
ENDBRANCH  12  14
ENDBRANCH  11  12
ENDBRANCH  10  11
ENDBRANCH   9  10
ENDBRANCH   8   9
ENDBRANCH   1   8
BRANCH   1  23
ATOM     23  O   UNL     1       4.633   3.449  16.927  0.00  0.00    +0.000 OA
BRANCH  23  24
ATOM     24  C   UNL     1       3.660   3.576  17.881  0.00  0.00    +0.000 A 
ATOM     25  C   UNL     1       2.484   4.198  17.450  0.00  0.00    +0.000 A 
ATOM     26  C   UNL     1       1.406   4.356  18.323  0.00  0.00    +0.000 A 
ATOM     27  C   UNL     1       1.498   3.876  19.625  0.00  0.00    +0.000 A 
ATOM     28  F   UNL     1       0.443   4.006  20.441  0.00  0.00    +0.000 F 
ATOM     29  C   UNL     1       2.664   3.262  20.082  0.00  0.00    +0.000 A 
ATOM     30  C   UNL     1       2.737   2.653  21.449  0.00  0.00    +0.000 C 
ATOM     31  C   UNL     1       3.749   3.133  19.204  0.00  0.00    +0.000 A 
ENDBRANCH  23  24
ENDBRANCH   1  23
TORSDOF 11
ENDMDL
MODEL 2
REMARK VINA RESULT:      -8.2      4.786      8.676
REMARK  Name = 
REMARK  13 active torsions:
REMARK  status: ('A' for Active; 'I' for Inactive)
REMARK    1  A    between atoms: C_1  and  C_2
REMARK    2  A    between atoms: C_4  and  C_5
REMARK    3  A    between atoms: C_5  and  N_6
REMARK    4  A    between atoms: N_6  and  C_7
REMARK    5  A    between atoms: C_7  and  C_8
REMARK    6  A    between atoms: C_8  and  C_9
REMARK    7  A    between atoms: C_9  and  C_10
REMARK    8  A    between atoms: C_10  and  C_11
REMARK    9  A    between atoms: C_11  and  O_12
REMARK   10  A    between atoms: C_11  and  C_21
REMARK   11  A    between atoms: O_12  and  C_13
REMARK   12  A    between atoms: C_18  and  C_19
REMARK   13  A    between atoms: N_23  and  O_24
REMARK                            x       y       z     vdW  Elec       q    Type
REMARK                         _______ _______ _______ _____ _____    ______ ____
ROOT
ATOM      1  C   UNL     1       5.779   4.827  17.319  0.00  0.00    +0.000 C 
ENDROOT
BRANCH   1   2
ATOM      2  C   UNL     1       5.588   4.265  18.732  0.00  0.00    +0.000 C 
ATOM      3  O   UNL     1       5.927   4.885  19.744  0.00  0.00    +0.000 OA
ATOM      4  N   UNL     1       5.084   2.995  18.810  0.00  0.00    +0.000 N 
ATOM      5  H   UNL     1       4.883   2.409  18.009  0.00  0.00    +0.000 HD
BRANCH   4   6
ATOM      6  O   UNL     1       4.978   2.429  20.098  0.00  0.00    +0.000 OA
ATOM      7  H   UNL     1       5.243   3.177  20.679  0.00  0.00    +0.000 HD
ENDBRANCH   4   6
ENDBRANCH   1   2
BRANCH   1   8
ATOM      8  C   UNL     1       6.670   6.079  17.346  0.00  0.00    +0.000 C 
BRANCH   8   9
ATOM      9  C   UNL     1       5.868   7.382  17.301  0.00  0.00    +0.000 C 
BRANCH   9  10
ATOM     10  C   UNL     1       4.407   7.126  16.918  0.00  0.00    +0.000 C 
BRANCH  10  11
ATOM     11  C   UNL     1       3.432   8.169  17.477  0.00  0.00    +0.000 C 
BRANCH  11  12
ATOM     12  N   UNL     1       2.267   7.544  18.093  0.00  0.00    +0.000 NA
ATOM     13  H   UNL     1       1.556   8.242  18.308  0.00  0.00    +0.000 HD
BRANCH  12  14
ATOM     14  C   UNL     1       2.613   6.861  19.340  0.00  0.00    +0.000 C 
BRANCH  14  18
ATOM     15  C   UNL     1       1.494   2.558  21.731  0.00  0.00    +0.000 C 
ATOM     16  C   UNL     1       1.633   3.341  20.462  0.00  0.00    +0.000 A 
ATOM     17  C   UNL     1       2.008   4.689  20.483  0.00  0.00    +0.000 A 
ATOM     18  C   UNL     1       2.173   5.416  19.289  0.00  0.00    +0.000 A 
ATOM     19  C   UNL     1       1.937   4.773  18.065  0.00  0.00    +0.000 A 
ATOM     20  C   UNL     1       1.550   3.432  18.037  0.00  0.00    +0.000 A 
ATOM     21  C   UNL     1       1.405   2.729  19.230  0.00  0.00    +0.000 A 
ATOM     22  F   UNL     1       1.042   1.439  19.181  0.00  0.00    +0.000 F 
ENDBRANCH  14  18
ENDBRANCH  12  14
ENDBRANCH  11  12
ENDBRANCH  10  11
ENDBRANCH   9  10
ENDBRANCH   8   9
ENDBRANCH   1   8
BRANCH   1  23
ATOM     23  O   UNL     1       6.415   3.830  16.506  0.00  0.00    +0.000 OA
BRANCH  23  24
ATOM     24  C   UNL     1       6.518   4.062  15.162  0.00  0.00    +0.000 A 
ATOM     25  C   UNL     1       7.581   4.888  14.782  0.00  0.00    +0.000 A 
ATOM     26  C   UNL     1       7.810   5.171  13.433  0.00  0.00    +0.000 A 
ATOM     27  C   UNL     1       6.986   4.613  12.463  0.00  0.00    +0.000 A 
ATOM     28  F   UNL     1       7.239   4.867  11.172  0.00  0.00    +0.000 F 
ATOM     29  C   UNL     1       5.913   3.795  12.816  0.00  0.00    +0.000 A 
ATOM     30  C   UNL     1       5.082   3.109  11.775  0.00  0.00    +0.000 C 
ATOM     31  C   UNL     1       5.676   3.540  14.175  0.00  0.00    +0.000 A 
ENDBRANCH  23  24
ENDBRANCH   1  23
TORSDOF 11
ENDMDL
MODEL 3
REMARK VINA RESULT:      -8.1      5.171      6.832
REMARK  Name = 
REMARK  13 active torsions:
REMARK  status: ('A' for Active; 'I' for Inactive)
REMARK    1  A    between atoms: C_1  and  C_2
REMARK    2  A    between atoms: C_4  and  C_5
REMARK    3  A    between atoms: C_5  and  N_6
REMARK    4  A    between atoms: N_6  and  C_7
REMARK    5  A    between atoms: C_7  and  C_8
REMARK    6  A    between atoms: C_8  and  C_9
REMARK    7  A    between atoms: C_9  and  C_10
REMARK    8  A    between atoms: C_10  and  C_11
REMARK    9  A    between atoms: C_11  and  O_12
REMARK   10  A    between atoms: C_11  and  C_21
REMARK   11  A    between atoms: O_12  and  C_13
REMARK   12  A    between atoms: C_18  and  C_19
REMARK   13  A    between atoms: N_23  and  O_24
REMARK                            x       y       z     vdW  Elec       q    Type
REMARK                         _______ _______ _______ _____ _____    ______ ____
ROOT
ATOM      1  C   UNL     1       5.580   4.934  17.818  0.00  0.00    +0.000 C 
ENDROOT
BRANCH   1   2
ATOM      2  C   UNL     1       7.046   4.921  18.267  0.00  0.00    +0.000 C 
ATOM      3  O   UNL     1       7.958   4.512  17.543  0.00  0.00    +0.000 OA
ATOM      4  N   UNL     1       7.283   5.322  19.554  0.00  0.00    +0.000 N 
ATOM      5  H   UNL     1       6.560   5.572  20.218  0.00  0.00    +0.000 HD
BRANCH   4   6
ATOM      6  O   UNL     1       8.615   5.239  20.012  0.00  0.00    +0.000 OA
ATOM      7  H   UNL     1       8.840   4.298  19.835  0.00  0.00    +0.000 HD
ENDBRANCH   4   6
ENDBRANCH   1   2
BRANCH   1   8
ATOM      8  C   UNL     1       5.462   5.399  16.359  0.00  0.00    +0.000 C 
BRANCH   8   9
ATOM      9  C   UNL     1       4.866   6.803  16.228  0.00  0.00    +0.000 C 
BRANCH   9  10
ATOM     10  C   UNL     1       4.322   7.306  17.568  0.00  0.00    +0.000 C 
BRANCH  10  11
ATOM     11  C   UNL     1       2.830   7.022  17.774  0.00  0.00    +0.000 C 
BRANCH  11  12
ATOM     12  N   UNL     1       2.333   7.608  19.013  0.00  0.00    +0.000 NA
ATOM     13  H   UNL     1       1.701   6.963  19.488  0.00  0.00    +0.000 HD
BRANCH  12  14
ATOM     14  C   UNL     1       1.603   8.852  18.772  0.00  0.00    +0.000 C 
BRANCH  14  18
ATOM     15  C   UNL     1      -1.473  12.089  21.126  0.00  0.00    +0.000 C 
ATOM     16  C   UNL     1      -0.582  10.886  21.159  0.00  0.00    +0.000 A 
ATOM     17  C   UNL     1       0.046  10.421  19.998  0.00  0.00    +0.000 A 
ATOM     18  C   UNL     1       0.912   9.311  20.034  0.00  0.00    +0.000 A 
ATOM     19  C   UNL     1       1.127   8.659  21.257  0.00  0.00    +0.000 A 
ATOM     20  C   UNL     1       0.495   9.110  22.417  0.00  0.00    +0.000 A 
ATOM     21  C   UNL     1      -0.347  10.216  22.360  0.00  0.00    +0.000 A 
ATOM     22  F   UNL     1      -0.937  10.640  23.488  0.00  0.00    +0.000 F 
ENDBRANCH  14  18
ENDBRANCH  12  14
ENDBRANCH  11  12
ENDBRANCH  10  11
ENDBRANCH   9  10
ENDBRANCH   8   9
ENDBRANCH   1   8
BRANCH   1  23
ATOM     23  O   UNL     1       5.053   3.603  17.919  0.00  0.00    +0.000 OA
BRANCH  23  24
ATOM     24  C   UNL     1       3.807   3.440  18.462  0.00  0.00    +0.000 A 
ATOM     25  C   UNL     1       2.760   3.384  17.537  0.00  0.00    +0.000 A 
ATOM     26  C   UNL     1       1.446   3.187  17.967  0.00  0.00    +0.000 A 
ATOM     27  C   UNL     1       1.181   3.029  19.322  0.00  0.00    +0.000 A 
ATOM     28  F   UNL     1      -0.080   2.808  19.716  0.00  0.00    +0.000 F 
ATOM     29  C   UNL     1       2.207   3.092  20.265  0.00  0.00    +0.000 A 
ATOM     30  C   UNL     1       1.946   2.823  21.716  0.00  0.00    +0.000 C 
ATOM     31  C   UNL     1       3.518   3.317  19.824  0.00  0.00    +0.000 A 
ENDBRANCH  23  24
ENDBRANCH   1  23
TORSDOF 11
ENDMDL
MODEL 4
REMARK VINA RESULT:      -8.0      5.292      7.576
REMARK  Name = 
REMARK  13 active torsions:
REMARK  status: ('A' for Active; 'I' for Inactive)
REMARK    1  A    between atoms: C_1  and  C_2
REMARK    2  A    between atoms: C_4  and  C_5
REMARK    3  A    between atoms: C_5  and  N_6
REMARK    4  A    between atoms: N_6  and  C_7
REMARK    5  A    between atoms: C_7  and  C_8
REMARK    6  A    between atoms: C_8  and  C_9
REMARK    7  A    between atoms: C_9  and  C_10
REMARK    8  A    between atoms: C_10  and  C_11
REMARK    9  A    between atoms: C_11  and  O_12
REMARK   10  A    between atoms: C_11  and  C_21
REMARK   11  A    between atoms: O_12  and  C_13
REMARK   12  A    between atoms: C_18  and  C_19
REMARK   13  A    between atoms: N_23  and  O_24
REMARK                            x       y       z     vdW  Elec       q    Type
REMARK                         _______ _______ _______ _____ _____    ______ ____
ROOT
ATOM      1  C   UNL     1       5.603   5.184  16.959  0.00  0.00    +0.000 C 
ENDROOT
BRANCH   1   2
ATOM      2  C   UNL     1       6.849   4.982  16.090  0.00  0.00    +0.000 C 
ATOM      3  O   UNL     1       7.874   4.441  16.516  0.00  0.00    +0.000 OA
ATOM      4  N   UNL     1       6.792   5.504  14.826  0.00  0.00    +0.000 N 
ATOM      5  H   UNL     1       6.014   6.042  14.464  0.00  0.00    +0.000 HD
BRANCH   4   6
ATOM      6  O   UNL     1       7.959   5.400  14.040  0.00  0.00    +0.000 OA
ATOM      7  H   UNL     1       8.637   5.822  14.613  0.00  0.00    +0.000 HD
ENDBRANCH   4   6
ENDBRANCH   1   2
BRANCH   1   8
ATOM      8  C   UNL     1       4.894   6.498  16.596  0.00  0.00    +0.000 C 
BRANCH   8   9
ATOM      9  C   UNL     1       4.418   7.276  17.825  0.00  0.00    +0.000 C 
BRANCH   9  10
ATOM     10  C   UNL     1       2.948   7.686  17.691  0.00  0.00    +0.000 C 
BRANCH  10  11
ATOM     11  C   UNL     1       2.181   7.673  19.019  0.00  0.00    +0.000 C 
BRANCH  11  12
ATOM     12  N   UNL     1       1.436   8.910  19.225  0.00  0.00    +0.000 NA
ATOM     13  H   UNL     1       0.658   8.758  19.866  0.00  0.00    +0.000 HD
BRANCH  12  14
ATOM     14  C   UNL     1       0.887   9.428  17.972  0.00  0.00    +0.000 C 
BRANCH  14  18
ATOM     15  C   UNL     1      -3.814  10.633  16.583  0.00  0.00    +0.000 C 
ATOM     16  C   UNL     1      -2.673  10.752  17.545  0.00  0.00    +0.000 A 
ATOM     17  C   UNL     1      -1.484  10.042  17.346  0.00  0.00    +0.000 A 
ATOM     18  C   UNL     1      -0.397  10.180  18.231  0.00  0.00    +0.000 A 
ATOM     19  C   UNL     1      -0.528  11.032  19.337  0.00  0.00    +0.000 A 
ATOM     20  C   UNL     1      -1.716  11.735  19.549  0.00  0.00    +0.000 A 
ATOM     21  C   UNL     1      -2.772  11.592  18.654  0.00  0.00    +0.000 A 
ATOM     22  F   UNL     1      -3.902  12.283  18.870  0.00  0.00    +0.000 F 
ENDBRANCH  14  18
ENDBRANCH  12  14
ENDBRANCH  11  12
ENDBRANCH  10  11
ENDBRANCH   9  10
ENDBRANCH   8   9
ENDBRANCH   1   8
BRANCH   1  23
ATOM     23  O   UNL     1       4.697   4.096  16.728  0.00  0.00    +0.000 OA
BRANCH  23  24
ATOM     24  C   UNL     1       3.708   3.871  17.647  0.00  0.00    +0.000 A 
ATOM     25  C   UNL     1       2.406   3.898  17.137  0.00  0.00    +0.000 A 
ATOM     26  C   UNL     1       1.314   3.650  17.972  0.00  0.00    +0.000 A 
ATOM     27  C   UNL     1       1.525   3.358  19.314  0.00  0.00    +0.000 A 
ATOM     28  F   UNL     1       0.469   3.090  20.094  0.00  0.00    +0.000 F 
ATOM     29  C   UNL     1       2.813   3.336  19.850  0.00  0.00    +0.000 A 
ATOM     30  C   UNL     1       3.058   2.925  21.269  0.00  0.00    +0.000 C 
ATOM     31  C   UNL     1       3.900   3.613  19.008  0.00  0.00    +0.000 A 
ENDBRANCH  23  24
ENDBRANCH   1  23
TORSDOF 11
ENDMDL
MODEL 5
REMARK VINA RESULT:      -7.9      1.823      2.460
REMARK  Name = 
REMARK  13 active torsions:
REMARK  status: ('A' for Active; 'I' for Inactive)
REMARK    1  A    between atoms: C_1  and  C_2
REMARK    2  A    between atoms: C_4  and  C_5
REMARK    3  A    between atoms: C_5  and  N_6
REMARK    4  A    between atoms: N_6  and  C_7
REMARK    5  A    between atoms: C_7  and  C_8
REMARK    6  A    between atoms: C_8  and  C_9
REMARK    7  A    between atoms: C_9  and  C_10
REMARK    8  A    between atoms: C_10  and  C_11
REMARK    9  A    between atoms: C_11  and  O_12
REMARK   10  A    between atoms: C_11  and  C_21
REMARK   11  A    between atoms: O_12  and  C_13
REMARK   12  A    between atoms: C_18  and  C_19
REMARK   13  A    between atoms: N_23  and  O_24
REMARK                            x       y       z     vdW  Elec       q    Type
REMARK                         _______ _______ _______ _____ _____    ______ ____
ROOT
ATOM      1  C   UNL     1       6.561   5.096  16.298  0.00  0.00    +0.000 C 
ENDROOT
BRANCH   1   2
ATOM      2  C   UNL     1       6.901   4.732  14.849  0.00  0.00    +0.000 C 
ATOM      3  O   UNL     1       7.649   5.421  14.149  0.00  0.00    +0.000 OA
ATOM      4  N   UNL     1       6.266   3.631  14.341  0.00  0.00    +0.000 N 
ATOM      5  H   UNL     1       5.569   3.091  14.841  0.00  0.00    +0.000 HD
BRANCH   4   6
ATOM      6  O   UNL     1       6.502   3.328  12.984  0.00  0.00    +0.000 OA
ATOM      7  H   UNL     1       6.371   2.353  12.960  0.00  0.00    +0.000 HD
ENDBRANCH   4   6
ENDBRANCH   1   2
BRANCH   1   8
ATOM      8  C   UNL     1       7.675   5.952  16.920  0.00  0.00    +0.000 C 
BRANCH   8   9
ATOM      9  C   UNL     1       7.176   7.311  17.415  0.00  0.00    +0.000 C 
BRANCH   9  10
ATOM     10  C   UNL     1       8.193   7.974  18.349  0.00  0.00    +0.000 C 
BRANCH  10  11
ATOM     11  C   UNL     1       8.330   9.486  18.137  0.00  0.00    +0.000 C 
BRANCH  11  12
ATOM     12  N   UNL     1       9.518  10.018  18.794  0.00  0.00    +0.000 NA
ATOM     13  H   UNL     1       9.860   9.367  19.500  0.00  0.00    +0.000 HD
BRANCH  12  14
ATOM     14  C   UNL     1       9.246  11.293  19.458  0.00  0.00    +0.000 C 
BRANCH  14  18
ATOM     15  C   UNL     1       9.494  16.234  18.458  0.00  0.00    +0.000 C 
ATOM     16  C   UNL     1       9.951  14.832  18.198  0.00  0.00    +0.000 A 
ATOM     17  C   UNL     1       9.439  13.759  18.936  0.00  0.00    +0.000 A 
ATOM     18  C   UNL     1       9.841  12.436  18.669  0.00  0.00    +0.000 A 
ATOM     19  C   UNL     1      10.783  12.205  17.657  0.00  0.00    +0.000 A 
ATOM     20  C   UNL     1      11.307  13.272  16.925  0.00  0.00    +0.000 A 
ATOM     21  C   UNL     1      10.886  14.570  17.198  0.00  0.00    +0.000 A 
ATOM     22  F   UNL     1      11.394  15.581  16.476  0.00  0.00    +0.000 F 
ENDBRANCH  14  18
ENDBRANCH  12  14
ENDBRANCH  11  12
ENDBRANCH  10  11
ENDBRANCH   9  10
ENDBRANCH   8   9
ENDBRANCH   1   8
BRANCH   1  23
ATOM     23  O   UNL     1       5.341   5.850  16.313  0.00  0.00    +0.000 OA
BRANCH  23  24
ATOM     24  C   UNL     1       4.294   5.373  17.053  0.00  0.00    +0.000 A 
ATOM     25  C   UNL     1       3.559   6.346  17.737  0.00  0.00    +0.000 A 
ATOM     26  C   UNL     1       2.446   5.985  18.500  0.00  0.00    +0.000 A 
ATOM     27  C   UNL     1       2.058   4.652  18.566  0.00  0.00    +0.000 A 
ATOM     28  F   UNL     1       0.969   4.327  19.275  0.00  0.00    +0.000 F 
ATOM     29  C   UNL     1       2.781   3.662  17.902  0.00  0.00    +0.000 A 
ATOM     30  C   UNL     1       2.314   2.238  17.883  0.00  0.00    +0.000 C 
ATOM     31  C   UNL     1       3.912   4.032  17.160  0.00  0.00    +0.000 A 
ENDBRANCH  23  24
ENDBRANCH   1  23
TORSDOF 11
ENDMDL
MODEL 6
REMARK VINA RESULT:      -7.8      1.551      2.174
REMARK  Name = 
REMARK  13 active torsions:
REMARK  status: ('A' for Active; 'I' for Inactive)
REMARK    1  A    between atoms: C_1  and  C_2
REMARK    2  A    between atoms: C_4  and  C_5
REMARK    3  A    between atoms: C_5  and  N_6
REMARK    4  A    between atoms: N_6  and  C_7
REMARK    5  A    between atoms: C_7  and  C_8
REMARK    6  A    between atoms: C_8  and  C_9
REMARK    7  A    between atoms: C_9  and  C_10
REMARK    8  A    between atoms: C_10  and  C_11
REMARK    9  A    between atoms: C_11  and  O_12
REMARK   10  A    between atoms: C_11  and  C_21
REMARK   11  A    between atoms: O_12  and  C_13
REMARK   12  A    between atoms: C_18  and  C_19
REMARK   13  A    between atoms: N_23  and  O_24
REMARK                            x       y       z     vdW  Elec       q    Type
REMARK                         _______ _______ _______ _____ _____    ______ ____
ROOT
ATOM      1  C   UNL     1       5.968   4.813  16.299  0.00  0.00    +0.000 C 
ENDROOT
BRANCH   1   2
ATOM      2  C   UNL     1       6.741   4.615  14.991  0.00  0.00    +0.000 C 
ATOM      3  O   UNL     1       7.725   5.298  14.692  0.00  0.00    +0.000 OA
ATOM      4  N   UNL     1       6.234   3.680  14.129  0.00  0.00    +0.000 N 
ATOM      5  H   UNL     1       5.376   3.165  14.284  0.00  0.00    +0.000 HD
BRANCH   4   6
ATOM      6  O   UNL     1       6.884   3.541  12.885  0.00  0.00    +0.000 OA
ATOM      7  H   UNL     1       7.593   4.221  12.941  0.00  0.00    +0.000 HD
ENDBRANCH   4   6
ENDBRANCH   1   2
BRANCH   1   8
ATOM      8  C   UNL     1       5.767   6.307  16.593  0.00  0.00    +0.000 C 
BRANCH   8   9
ATOM      9  C   UNL     1       6.655   6.816  17.730  0.00  0.00    +0.000 C 
BRANCH   9  10
ATOM     10  C   UNL     1       7.784   7.706  17.201  0.00  0.00    +0.000 C 
BRANCH  10  11
ATOM     11  C   UNL     1       7.936   9.027  17.964  0.00  0.00    +0.000 C 
BRANCH  11  12
ATOM     12  N   UNL     1       9.031   8.973  18.926  0.00  0.00    +0.000 NA
ATOM     13  H   UNL     1       8.899   8.200  19.578  0.00  0.00    +0.000 HD
BRANCH  12  14
ATOM     14  C   UNL     1       9.127  10.205  19.709  0.00  0.00    +0.000 C 
BRANCH  14  18
ATOM     15  C   UNL     1       8.718  14.890  17.876  0.00  0.00    +0.000 C 
ATOM     16  C   UNL     1       9.468  13.598  17.984  0.00  0.00    +0.000 A 
ATOM     17  C   UNL     1       8.994  12.554  18.787  0.00  0.00    +0.000 A 
ATOM     18  C   UNL     1       9.680  11.326  18.862  0.00  0.00    +0.000 A 
ATOM     19  C   UNL     1      10.865  11.166  18.130  0.00  0.00    +0.000 A 
ATOM     20  C   UNL     1      11.350  12.207  17.336  0.00  0.00    +0.000 A 
ATOM     21  C   UNL     1      10.649  13.408  17.267  0.00  0.00    +0.000 A 
ATOM     22  F   UNL     1      11.126  14.392  16.492  0.00  0.00    +0.000 F 
ENDBRANCH  14  18
ENDBRANCH  12  14
ENDBRANCH  11  12
ENDBRANCH  10  11
ENDBRANCH   9  10
ENDBRANCH   8   9
ENDBRANCH   1   8
BRANCH   1  23
ATOM     23  O   UNL     1       4.680   4.193  16.174  0.00  0.00    +0.000 OA
BRANCH  23  24
ATOM     24  C   UNL     1       4.073   3.726  17.308  0.00  0.00    +0.000 A 
ATOM     25  C   UNL     1       4.924   3.537  18.401  0.00  0.00    +0.000 A 
ATOM     26  C   UNL     1       4.417   3.096  19.625  0.00  0.00    +0.000 A 
ATOM     27  C   UNL     1       3.054   2.859  19.761  0.00  0.00    +0.000 A 
ATOM     28  F   UNL     1       2.577   2.468  20.951  0.00  0.00    +0.000 F 
ATOM     29  C   UNL     1       2.186   3.030  18.683  0.00  0.00    +0.000 A 
ATOM     30  C   UNL     1       0.704   2.876  18.846  0.00  0.00    +0.000 C 
ATOM     31  C   UNL     1       2.710   3.448  17.452  0.00  0.00    +0.000 A 
ENDBRANCH  23  24
ENDBRANCH   1  23
TORSDOF 11
ENDMDL
MODEL 7
REMARK VINA RESULT:      -7.8      5.312      7.424
REMARK  Name = 
REMARK  13 active torsions:
REMARK  status: ('A' for Active; 'I' for Inactive)
REMARK    1  A    between atoms: C_1  and  C_2
REMARK    2  A    between atoms: C_4  and  C_5
REMARK    3  A    between atoms: C_5  and  N_6
REMARK    4  A    between atoms: N_6  and  C_7
REMARK    5  A    between atoms: C_7  and  C_8
REMARK    6  A    between atoms: C_8  and  C_9
REMARK    7  A    between atoms: C_9  and  C_10
REMARK    8  A    between atoms: C_10  and  C_11
REMARK    9  A    between atoms: C_11  and  O_12
REMARK   10  A    between atoms: C_11  and  C_21
REMARK   11  A    between atoms: O_12  and  C_13
REMARK   12  A    between atoms: C_18  and  C_19
REMARK   13  A    between atoms: N_23  and  O_24
REMARK                            x       y       z     vdW  Elec       q    Type
REMARK                         _______ _______ _______ _____ _____    ______ ____
ROOT
ATOM      1  C   UNL     1       3.004   2.961  17.527  0.00  0.00    +0.000 C 
ENDROOT
BRANCH   1   2
ATOM      2  C   UNL     1       3.855   2.202  18.552  0.00  0.00    +0.000 C 
ATOM      3  O   UNL     1       4.393   2.761  19.511  0.00  0.00    +0.000 OA
ATOM      4  N   UNL     1       4.049   0.870  18.303  0.00  0.00    +0.000 N 
ATOM      5  H   UNL     1       3.712   0.387  17.478  0.00  0.00    +0.000 HD
BRANCH   4   6
ATOM      6  O   UNL     1       4.896   0.173  19.189  0.00  0.00    +0.000 OA
ATOM      7  H   UNL     1       5.207  -0.578  18.636  0.00  0.00    +0.000 HD
ENDBRANCH   4   6
ENDBRANCH   1   2
BRANCH   1   8
ATOM      8  C   UNL     1       1.532   3.002  17.964  0.00  0.00    +0.000 C 
BRANCH   8   9
ATOM      9  C   UNL     1       1.313   2.440  19.371  0.00  0.00    +0.000 C 
BRANCH   9  10
ATOM     10  C   UNL     1       0.872   3.535  20.347  0.00  0.00    +0.000 C 
BRANCH  10  11
ATOM     11  C   UNL     1       1.979   3.984  21.310  0.00  0.00    +0.000 C 
BRANCH  11  12
ATOM     12  N   UNL     1       2.569   5.253  20.900  0.00  0.00    +0.000 NA
ATOM     13  H   UNL     1       3.451   5.412  21.387  0.00  0.00    +0.000 HD
BRANCH  12  14
ATOM     14  C   UNL     1       1.687   6.382  21.194  0.00  0.00    +0.000 C 
BRANCH  14  18
ATOM     15  C   UNL     1       0.456  10.939  19.404  0.00  0.00    +0.000 C 
ATOM     16  C   UNL     1       1.207   9.650  19.271  0.00  0.00    +0.000 A 
ATOM     17  C   UNL     1       1.134   8.666  20.263  0.00  0.00    +0.000 A 
ATOM     18  C   UNL     1       1.811   7.440  20.122  0.00  0.00    +0.000 A 
ATOM     19  C   UNL     1       2.583   7.220  18.972  0.00  0.00    +0.000 A 
ATOM     20  C   UNL     1       2.670   8.201  17.983  0.00  0.00    +0.000 A 
ATOM     21  C   UNL     1       1.982   9.401  18.138  0.00  0.00    +0.000 A 
ATOM     22  F   UNL     1       2.071  10.328  17.172  0.00  0.00    +0.000 F 
ENDBRANCH  14  18
ENDBRANCH  12  14
ENDBRANCH  11  12
ENDBRANCH  10  11
ENDBRANCH   9  10
ENDBRANCH   8   9
ENDBRANCH   1   8
BRANCH   1  23
ATOM     23  O   UNL     1       3.490   4.308  17.428  0.00  0.00    +0.000 OA
BRANCH  23  24
ATOM     24  C   UNL     1       4.573   4.547  16.626  0.00  0.00    +0.000 A 
ATOM     25  C   UNL     1       5.574   5.336  17.201  0.00  0.00    +0.000 A 
ATOM     26  C   UNL     1       6.744   5.623  16.493  0.00  0.00    +0.000 A 
ATOM     27  C   UNL     1       6.919   5.106  15.215  0.00  0.00    +0.000 A 
ATOM     28  F   UNL     1       8.061   5.362  14.562  0.00  0.00    +0.000 F 
ATOM     29  C   UNL     1       5.931   4.325  14.615  0.00  0.00    +0.000 A 
ATOM     30  C   UNL     1       6.153   3.681  13.281  0.00  0.00    +0.000 C 
ATOM     31  C   UNL     1       4.750   4.066  15.325  0.00  0.00    +0.000 A 
ENDBRANCH  23  24
ENDBRANCH   1  23
TORSDOF 11
ENDMDL
MODEL 8
REMARK VINA RESULT:      -7.8      2.745      3.600
REMARK  Name = 
REMARK  13 active torsions:
REMARK  status: ('A' for Active; 'I' for Inactive)
REMARK    1  A    between atoms: C_1  and  C_2
REMARK    2  A    between atoms: C_4  and  C_5
REMARK    3  A    between atoms: C_5  and  N_6
REMARK    4  A    between atoms: N_6  and  C_7
REMARK    5  A    between atoms: C_7  and  C_8
REMARK    6  A    between atoms: C_8  and  C_9
REMARK    7  A    between atoms: C_9  and  C_10
REMARK    8  A    between atoms: C_10  and  C_11
REMARK    9  A    between atoms: C_11  and  O_12
REMARK   10  A    between atoms: C_11  and  C_21
REMARK   11  A    between atoms: O_12  and  C_13
REMARK   12  A    between atoms: C_18  and  C_19
REMARK   13  A    between atoms: N_23  and  O_24
REMARK                            x       y       z     vdW  Elec       q    Type
REMARK                         _______ _______ _______ _____ _____    ______ ____
ROOT
ATOM      1  C   UNL     1       4.516   5.201  18.248  0.00  0.00    +0.000 C 
ENDROOT
BRANCH   1   2
ATOM      2  C   UNL     1       4.430   3.807  18.879  0.00  0.00    +0.000 C 
ATOM      3  O   UNL     1       5.366   3.303  19.505  0.00  0.00    +0.000 OA
ATOM      4  N   UNL     1       3.272   3.113  18.648  0.00  0.00    +0.000 N 
ATOM      5  H   UNL     1       2.516   3.442  18.059  0.00  0.00    +0.000 HD
BRANCH   4   6
ATOM      6  O   UNL     1       3.207   1.797  19.151  0.00  0.00    +0.000 OA
ATOM      7  H   UNL     1       3.811   1.838  19.926  0.00  0.00    +0.000 HD
ENDBRANCH   4   6
ENDBRANCH   1   2
BRANCH   1   8
ATOM      8  C   UNL     1       5.445   5.189  17.025  0.00  0.00    +0.000 C 
BRANCH   8   9
ATOM      9  C   UNL     1       5.733   6.590  16.481  0.00  0.00    +0.000 C 
BRANCH   9  10
ATOM     10  C   UNL     1       6.393   7.477  17.542  0.00  0.00    +0.000 C 
BRANCH  10  11
ATOM     11  C   UNL     1       7.739   6.939  18.043  0.00  0.00    +0.000 C 
BRANCH  11  12
ATOM     12  N   UNL     1       8.536   7.983  18.677  0.00  0.00    +0.000 NA
ATOM     13  H   UNL     1       8.328   8.039  19.673  0.00  0.00    +0.000 HD
BRANCH  12  14
ATOM     14  C   UNL     1       8.273   9.298  18.092  0.00  0.00    +0.000 C 
BRANCH  14  18
ATOM     15  C   UNL     1      11.821  12.830  17.450  0.00  0.00    +0.000 C 
ATOM     16  C   UNL     1      10.921  12.042  18.350  0.00  0.00    +0.000 A 
ATOM     17  C   UNL     1      10.026  11.099  17.830  0.00  0.00    +0.000 A 
ATOM     18  C   UNL     1       9.205  10.332  18.678  0.00  0.00    +0.000 A 
ATOM     19  C   UNL     1       9.281  10.536  20.063  0.00  0.00    +0.000 A 
ATOM     20  C   UNL     1      10.163  11.483  20.588  0.00  0.00    +0.000 A 
ATOM     21  C   UNL     1      10.974  12.222  19.732  0.00  0.00    +0.000 A 
ATOM     22  F   UNL     1      11.822  13.119  20.257  0.00  0.00    +0.000 F 
ENDBRANCH  14  18
ENDBRANCH  12  14
ENDBRANCH  11  12
ENDBRANCH  10  11
ENDBRANCH   9  10
ENDBRANCH   8   9
ENDBRANCH   1   8
BRANCH   1  23
ATOM     23  O   UNL     1       3.204   5.598  17.822  0.00  0.00    +0.000 OA
BRANCH  23  24
ATOM     24  C   UNL     1       2.608   6.651  18.461  0.00  0.00    +0.000 A 
ATOM     25  C   UNL     1       2.302   6.433  19.808  0.00  0.00    +0.000 A 
ATOM     26  C   UNL     1       1.722   7.445  20.575  0.00  0.00    +0.000 A 
ATOM     27  C   UNL     1       1.462   8.683  19.999  0.00  0.00    +0.000 A 
ATOM     28  F   UNL     1       0.936   9.655  20.757  0.00  0.00    +0.000 F 
ATOM     29  C   UNL     1       1.747   8.923  18.655  0.00  0.00    +0.000 A 
ATOM     30  C   UNL     1       1.566  10.282  18.052  0.00  0.00    +0.000 C 
ATOM     31  C   UNL     1       2.305   7.891  17.888  0.00  0.00    +0.000 A 
ENDBRANCH  23  24
ENDBRANCH   1  23
TORSDOF 11
ENDMDL
MODEL 9
REMARK VINA RESULT:      -7.7      1.446      2.067
REMARK  Name = 
REMARK  13 active torsions:
REMARK  status: ('A' for Active; 'I' for Inactive)
REMARK    1  A    between atoms: C_1  and  C_2
REMARK    2  A    between atoms: C_4  and  C_5
REMARK    3  A    between atoms: C_5  and  N_6
REMARK    4  A    between atoms: N_6  and  C_7
REMARK    5  A    between atoms: C_7  and  C_8
REMARK    6  A    between atoms: C_8  and  C_9
REMARK    7  A    between atoms: C_9  and  C_10
REMARK    8  A    between atoms: C_10  and  C_11
REMARK    9  A    between atoms: C_11  and  O_12
REMARK   10  A    between atoms: C_11  and  C_21
REMARK   11  A    between atoms: O_12  and  C_13
REMARK   12  A    between atoms: C_18  and  C_19
REMARK   13  A    between atoms: N_23  and  O_24
REMARK                            x       y       z     vdW  Elec       q    Type
REMARK                         _______ _______ _______ _____ _____    ______ ____
ROOT
ATOM      1  C   UNL     1       5.602   4.785  16.784  0.00  0.00    +0.000 C 
ENDROOT
BRANCH   1   2
ATOM      2  C   UNL     1       5.913   4.676  15.288  0.00  0.00    +0.000 C 
ATOM      3  O   UNL     1       5.905   5.654  14.535  0.00  0.00    +0.000 OA
ATOM      4  N   UNL     1       6.131   3.412  14.810  0.00  0.00    +0.000 N 
ATOM      5  H   UNL     1       6.051   2.568  15.366  0.00  0.00    +0.000 HD
BRANCH   4   6
ATOM      6  O   UNL     1       6.338   3.282  13.421  0.00  0.00    +0.000 OA
ATOM      7  H   UNL     1       6.295   2.308  13.291  0.00  0.00    +0.000 HD
ENDBRANCH   4   6
ENDBRANCH   1   2
BRANCH   1   8
ATOM      8  C   UNL     1       6.739   5.502  17.527  0.00  0.00    +0.000 C 
BRANCH   8   9
ATOM      9  C   UNL     1       6.457   6.989  17.754  0.00  0.00    +0.000 C 
BRANCH   9  10
ATOM     10  C   UNL     1       7.655   7.853  17.348  0.00  0.00    +0.000 C 
BRANCH  10  11
ATOM     11  C   UNL     1       8.380   8.498  18.536  0.00  0.00    +0.000 C 
BRANCH  11  12
ATOM     12  N   UNL     1       8.949   9.794  18.183  0.00  0.00    +0.000 NA
ATOM     13  H   UNL     1       9.752   9.678  17.566  0.00  0.00    +0.000 HD
BRANCH  12  14
ATOM     14  C   UNL     1       9.397  10.530  19.365  0.00  0.00    +0.000 C 
BRANCH  14  18
ATOM     15  C   UNL     1      11.334  15.051  20.502  0.00  0.00    +0.000 C 
ATOM     16  C   UNL     1      11.123  13.937  19.524  0.00  0.00    +0.000 A 
ATOM     17  C   UNL     1      10.419  12.783  19.886  0.00  0.00    +0.000 A 
ATOM     18  C   UNL     1      10.189  11.750  18.956  0.00  0.00    +0.000 A 
ATOM     19  C   UNL     1      10.694  11.884  17.655  0.00  0.00    +0.000 A 
ATOM     20  C   UNL     1      11.408  13.028  17.290  0.00  0.00    +0.000 A 
ATOM     21  C   UNL     1      11.612  14.041  18.222  0.00  0.00    +0.000 A 
ATOM     22  F   UNL     1      12.292  15.136  17.849  0.00  0.00    +0.000 F 
ENDBRANCH  14  18
ENDBRANCH  12  14
ENDBRANCH  11  12
ENDBRANCH  10  11
ENDBRANCH   9  10
ENDBRANCH   8   9
ENDBRANCH   1   8
BRANCH   1  23
ATOM     23  O   UNL     1       4.395   5.543  16.952  0.00  0.00    +0.000 OA
BRANCH  23  24
ATOM     24  C   UNL     1       3.463   5.086  17.844  0.00  0.00    +0.000 A 
ATOM     25  C   UNL     1       3.174   5.956  18.899  0.00  0.00    +0.000 A 
ATOM     26  C   UNL     1       2.215   5.615  19.855  0.00  0.00    +0.000 A 
ATOM     27  C   UNL     1       1.531   4.410  19.746  0.00  0.00    +0.000 A 
ATOM     28  F   UNL     1       0.590   4.113  20.652  0.00  0.00    +0.000 F 
ATOM     29  C   UNL     1       1.808   3.520  18.709  0.00  0.00    +0.000 A 
ATOM     30  C   UNL     1       1.007   2.267  18.525  0.00  0.00    +0.000 C 
ATOM     31  C   UNL     1       2.792   3.861  17.770  0.00  0.00    +0.000 A 
ENDBRANCH  23  24
ENDBRANCH   1  23
TORSDOF 11
ENDMDL
