MODEL 1
REMARK VINA RESULT:      -7.7      0.000      0.000
REMARK  Name = 
REMARK  4 active torsions:
REMARK  status: ('A' for Active; 'I' for Inactive)
REMARK    1  A    between atoms: C_2  and  C_4
REMARK    2  A    between atoms: C_9  and  N_10
REMARK    3  A    between atoms: C_11  and  C_13
REMARK    4  A    between atoms: C_19  and  N_20
REMARK                            x       y       z     vdW  Elec       q    Type
REMARK                         _______ _______ _______ _____ _____    ______ ____
ROOT
ATOM      1  C   UNL     1       0.165  11.842  20.103  0.00  0.00    +0.000 C 
ATOM      2  C   UNL     1       1.408  11.613  19.212  0.00  0.00    +0.000 C 
ATOM      3  C   UNL     1       1.384  10.275  18.467  0.00  0.00    +0.000 C 
ATOM      4  N   UNL     1       1.149   9.211  19.436  0.00  0.00    +0.000 N 
ATOM      5  C   UNL     1       1.828   8.008  19.428  0.00  0.00    +0.000 A 
ATOM      6  C   UNL     1       2.503   7.550  18.310  0.00  0.00    +0.000 A 
ATOM      7  C   UNL     1       3.214   6.360  18.366  0.00  0.00    +0.000 A 
ATOM      8  N   UNL     1       3.256   5.658  19.508  0.00  0.00    +0.000 NA
ATOM      9  C   UNL     1       2.578   6.161  20.545  0.00  0.00    +0.000 A 
ATOM     10  N   UNL     1       1.855   7.289  20.561  0.00  0.00    +0.000 NA
ATOM     11  C   UNL     1      -0.097   9.301  20.187  0.00  0.00    +0.000 C 
ATOM     12  C   UNL     1      -0.117  10.610  20.974  0.00  0.00    +0.000 C 
ENDROOT
BRANCH   7  13
ATOM     13  N   UNL     1       3.892   5.886  17.272  0.00  0.00    +0.000 N 
ATOM     14  C   UNL     1       3.884   4.486  16.886  0.00  0.00    +0.000 C 
ATOM     15  C   UNL     1       5.252   4.321  16.228  0.00  0.00    +0.000 C 
ATOM     16  C   UNL     1       5.481   5.659  15.539  0.00  0.00    +0.000 C 
ATOM     17  C   UNL     1       4.782   6.678  16.438  0.00  0.00    +0.000 C 
ENDBRANCH   7  13
BRANCH   1  19
ATOM     18  N   UNL     1      -2.253  11.722  19.614  0.00  0.00    +0.000 N 
ATOM     19  C   UNL     1      -1.032  12.274  19.251  0.00  0.00    +0.000 C 
ATOM     20  O   UNL     1      -0.879  13.106  18.354  0.00  0.00    +0.000 OA
ATOM     21  H   UNL     1      -2.313  11.190  20.487  0.00  0.00    +0.000 HD
BRANCH  18  27
ATOM     22  C   UNL     1      -3.717  11.456  17.631  0.00  0.00    +0.000 A 
ATOM     23  C   UNL     1      -4.947  11.705  16.978  0.00  0.00    +0.000 A 
ATOM     24  C   UNL     1      -5.976  12.371  17.632  0.00  0.00    +0.000 A 
ATOM     25  C   UNL     1      -5.778  12.820  18.929  0.00  0.00    +0.000 A 
ATOM     26  C   UNL     1      -4.549  12.618  19.564  0.00  0.00    +0.000 A 
ATOM     27  C   UNL     1      -3.495  11.932  18.944  0.00  0.00    +0.000 A 
BRANCH  22  29
ATOM     28  N   UNL     1      -2.366  11.039  15.645  0.00  0.00    +0.000 N 
ATOM     29  C   UNL     1      -2.695  10.640  16.917  0.00  0.00    +0.000 C 
ATOM     30  O   UNL     1      -2.202   9.645  17.429  0.00  0.00    +0.000 OA
ATOM     31  H   UNL     1      -1.744  10.442  15.119  0.00  0.00    +0.000 HD
ATOM     32  H   UNL     1      -2.930  11.700  15.118  0.00  0.00    +0.000 HD
ENDBRANCH  22  29
ENDBRANCH  18  27
ENDBRANCH   1  19
TORSDOF 4
ENDMDL
MODEL 2
REMARK VINA RESULT:      -7.6      3.588      9.333
REMARK  Name = 
REMARK  4 active torsions:
REMARK  status: ('A' for Active; 'I' for Inactive)
REMARK    1  A    between atoms: C_2  and  C_4
REMARK    2  A    between atoms: C_9  and  N_10
REMARK    3  A    between atoms: C_11  and  C_13
REMARK    4  A    between atoms: C_19  and  N_20
REMARK                            x       y       z     vdW  Elec       q    Type
REMARK                         _______ _______ _______ _____ _____    ______ ____
ROOT
ATOM      1  C   UNL     1       2.456   3.757  18.487  0.00  0.00    +0.000 C 
ATOM      2  C   UNL     1       1.496   4.750  17.792  0.00  0.00    +0.000 C 
ATOM      3  C   UNL     1       1.952   6.209  17.896  0.00  0.00    +0.000 C 
ATOM      4  N   UNL     1       2.204   6.516  19.298  0.00  0.00    +0.000 N 
ATOM      5  C   UNL     1       1.809   7.693  19.905  0.00  0.00    +0.000 A 
ATOM      6  C   UNL     1       1.486   8.825  19.176  0.00  0.00    +0.000 A 
ATOM      7  C   UNL     1       1.045   9.968  19.828  0.00  0.00    +0.000 A 
ATOM      8  N   UNL     1       0.921   9.973  21.163  0.00  0.00    +0.000 NA
ATOM      9  C   UNL     1       1.254   8.843  21.799  0.00  0.00    +0.000 A 
ATOM     10  N   UNL     1       1.705   7.711  21.242  0.00  0.00    +0.000 NA
ATOM     11  C   UNL     1       3.224   5.706  19.952  0.00  0.00    +0.000 C 
ATOM     12  C   UNL     1       2.808   4.237  19.902  0.00  0.00    +0.000 C 
ENDROOT
BRANCH   7  13
ATOM     13  N   UNL     1       0.718  11.102  19.128  0.00  0.00    +0.000 N 
ATOM     14  C   UNL     1       1.709  12.061  18.675  0.00  0.00    +0.000 C 
ATOM     15  C   UNL     1       0.929  13.373  18.701  0.00  0.00    +0.000 C 
ATOM     16  C   UNL     1      -0.478  12.960  18.295  0.00  0.00    +0.000 C 
ATOM     17  C   UNL     1      -0.639  11.546  18.854  0.00  0.00    +0.000 C 
ENDBRANCH   7  13
BRANCH   1  19
ATOM     18  N   UNL     1       4.094   4.563  16.823  0.00  0.00    +0.000 N 
ATOM     19  C   UNL     1       3.683   3.495  17.609  0.00  0.00    +0.000 C 
ATOM     20  O   UNL     1       4.267   2.411  17.678  0.00  0.00    +0.000 OA
ATOM     21  H   UNL     1       3.662   5.479  16.972  0.00  0.00    +0.000 HD
BRANCH  18  27
ATOM     22  C   UNL     1       6.486   4.912  16.271  0.00  0.00    +0.000 A 
ATOM     23  C   UNL     1       7.533   4.915  15.320  0.00  0.00    +0.000 A 
ATOM     24  C   UNL     1       7.304   4.506  14.011  0.00  0.00    +0.000 A 
ATOM     25  C   UNL     1       6.026   4.120  13.633  0.00  0.00    +0.000 A 
ATOM     26  C   UNL     1       4.978   4.158  14.558  0.00  0.00    +0.000 A 
ATOM     27  C   UNL     1       5.174   4.545  15.890  0.00  0.00    +0.000 A 
BRANCH  22  29
ATOM     28  N   UNL     1       7.716   4.433  18.320  0.00  0.00    +0.000 N 
ATOM     29  C   UNL     1       6.819   5.253  17.683  0.00  0.00    +0.000 C 
ATOM     30  O   UNL     1       6.291   6.198  18.252  0.00  0.00    +0.000 OA
ATOM     31  H   UNL     1       7.880   4.601  19.303  0.00  0.00    +0.000 HD
ATOM     32  H   UNL     1       7.973   3.520  17.957  0.00  0.00    +0.000 HD
ENDBRANCH  22  29
ENDBRANCH  18  27
ENDBRANCH   1  19
TORSDOF 4
ENDMDL
MODEL 3
REMARK VINA RESULT:      -7.6      3.478      9.495
REMARK  Name = 
REMARK  4 active torsions:
REMARK  status: ('A' for Active; 'I' for Inactive)
REMARK    1  A    between atoms: C_2  and  C_4
REMARK    2  A    between atoms: C_9  and  N_10
REMARK    3  A    between atoms: C_11  and  C_13
REMARK    4  A    between atoms: C_19  and  N_20
REMARK                            x       y       z     vdW  Elec       q    Type
REMARK                         _______ _______ _______ _____ _____    ______ ____
ROOT
ATOM      1  C   UNL     1       1.169   9.444  22.105  0.00  0.00    +0.000 C 
ATOM      2  C   UNL     1       0.198   9.651  23.290  0.00  0.00    +0.000 C 
ATOM      3  C   UNL     1      -1.179  10.170  22.864  0.00  0.00    +0.000 C 
ATOM      4  N   UNL     1      -0.991  11.358  22.042  0.00  0.00    +0.000 N 
ATOM      5  C   UNL     1      -1.760  12.500  22.163  0.00  0.00    +0.000 A 
ATOM      6  C   UNL     1      -2.994  12.493  22.789  0.00  0.00    +0.000 A 
ATOM      7  C   UNL     1      -3.707  13.675  22.933  0.00  0.00    +0.000 A 
ATOM      8  N   UNL     1      -3.195  14.826  22.472  0.00  0.00    +0.000 NA
ATOM      9  C   UNL     1      -2.000  14.754  21.877  0.00  0.00    +0.000 A 
ATOM     10  N   UNL     1      -1.264  13.650  21.685  0.00  0.00    +0.000 NA
ATOM     11  C   UNL     1      -0.212  11.171  20.824  0.00  0.00    +0.000 C 
ATOM     12  C   UNL     1       1.186  10.677  21.191  0.00  0.00    +0.000 C 
ENDROOT
BRANCH   7  13
ATOM     13  N   UNL     1      -4.931  13.695  23.551  0.00  0.00    +0.000 N 
ATOM     14  C   UNL     1      -5.460  12.561  24.288  0.00  0.00    +0.000 C 
ATOM     15  C   UNL     1      -6.966  12.717  24.091  0.00  0.00    +0.000 C 
ATOM     16  C   UNL     1      -7.170  14.225  24.082  0.00  0.00    +0.000 C 
ATOM     17  C   UNL     1      -5.892  14.782  23.457  0.00  0.00    +0.000 C 
ENDBRANCH   7  13
BRANCH   1  19
ATOM     18  N   UNL     1       1.942   7.434  20.896  0.00  0.00    +0.000 N 
ATOM     19  C   UNL     1       0.845   8.142  21.367  0.00  0.00    +0.000 C 
ATOM     20  O   UNL     1      -0.325   7.761  21.279  0.00  0.00    +0.000 OA
ATOM     21  H   UNL     1       2.880   7.731  21.179  0.00  0.00    +0.000 HD
BRANCH  18  27
ATOM     22  C   UNL     1       2.275   6.188  18.778  0.00  0.00    +0.000 A 
ATOM     23  C   UNL     1       2.186   4.984  18.041  0.00  0.00    +0.000 A 
ATOM     24  C   UNL     1       1.775   3.806  18.654  0.00  0.00    +0.000 A 
ATOM     25  C   UNL     1       1.420   3.825  19.995  0.00  0.00    +0.000 A 
ATOM     26  C   UNL     1       1.462   5.022  20.716  0.00  0.00    +0.000 A 
ATOM     27  C   UNL     1       1.891   6.224  20.138  0.00  0.00    +0.000 A 
BRANCH  22  29
ATOM     28  N   UNL     1       4.027   7.230  17.440  0.00  0.00    +0.000 N 
ATOM     29  C   UNL     1       2.830   7.390  18.093  0.00  0.00    +0.000 C 
ATOM     30  O   UNL     1       2.261   8.470  18.142  0.00  0.00    +0.000 OA
ATOM     31  H   UNL     1       4.456   8.058  17.051  0.00  0.00    +0.000 HD
ATOM     32  H   UNL     1       4.627   6.425  17.592  0.00  0.00    +0.000 HD
ENDBRANCH  22  29
ENDBRANCH  18  27
ENDBRANCH   1  19
TORSDOF 4
ENDMDL
MODEL 4
REMARK VINA RESULT:      -7.6      1.061      2.069
REMARK  Name = 
REMARK  4 active torsions:
REMARK  status: ('A' for Active; 'I' for Inactive)
REMARK    1  A    between atoms: C_2  and  C_4
REMARK    2  A    between atoms: C_9  and  N_10
REMARK    3  A    between atoms: C_11  and  C_13
REMARK    4  A    between atoms: C_19  and  N_20
REMARK                            x       y       z     vdW  Elec       q    Type
REMARK                         _______ _______ _______ _____ _____    ______ ____
ROOT
ATOM      1  C   UNL     1       0.375  11.736  19.849  0.00  0.00    +0.000 C 
ATOM      2  C   UNL     1       1.612  11.495  18.954  0.00  0.00    +0.000 C 
ATOM      3  C   UNL     1       1.587  10.144  18.232  0.00  0.00    +0.000 C 
ATOM      4  N   UNL     1       1.361   9.097  19.220  0.00  0.00    +0.000 N 
ATOM      5  C   UNL     1       2.043   7.895  19.228  0.00  0.00    +0.000 A 
ATOM      6  C   UNL     1       2.712   7.421  18.112  0.00  0.00    +0.000 A 
ATOM      7  C   UNL     1       3.427   6.234  18.183  0.00  0.00    +0.000 A 
ATOM      8  N   UNL     1       3.479   5.551  19.337  0.00  0.00    +0.000 NA
ATOM      9  C   UNL     1       2.806   6.070  20.370  0.00  0.00    +0.000 A 
ATOM     10  N   UNL     1       2.080   7.196  20.372  0.00  0.00    +0.000 NA
ATOM     11  C   UNL     1       0.120   9.196  19.978  0.00  0.00    +0.000 C 
ATOM     12  C   UNL     1       0.102  10.518  20.743  0.00  0.00    +0.000 C 
ENDROOT
BRANCH   7  13
ATOM     13  N   UNL     1       4.099   5.743  17.093  0.00  0.00    +0.000 N 
ATOM     14  C   UNL     1       4.157   4.328  16.774  0.00  0.00    +0.000 C 
ATOM     15  C   UNL     1       5.512   4.204  16.084  0.00  0.00    +0.000 C 
ATOM     16  C   UNL     1       5.648   5.516  15.325  0.00  0.00    +0.000 C 
ATOM     17  C   UNL     1       4.920   6.539  16.195  0.00  0.00    +0.000 C 
ENDBRANCH   7  13
BRANCH   1  19
ATOM     18  N   UNL     1      -2.033  11.546  19.335  0.00  0.00    +0.000 N 
ATOM     19  C   UNL     1      -0.830  12.150  18.998  0.00  0.00    +0.000 C 
ATOM     20  O   UNL     1      -0.698  13.012  18.126  0.00  0.00    +0.000 OA
ATOM     21  H   UNL     1      -2.083  10.988  20.191  0.00  0.00    +0.000 HD
BRANCH  18  27
ATOM     22  C   UNL     1      -4.391  12.315  19.307  0.00  0.00    +0.000 A 
ATOM     23  C   UNL     1      -5.621  12.459  18.624  0.00  0.00    +0.000 A 
ATOM     24  C   UNL     1      -5.742  12.084  17.292  0.00  0.00    +0.000 A 
ATOM     25  C   UNL     1      -4.648  11.535  16.638  0.00  0.00    +0.000 A 
ATOM     26  C   UNL     1      -3.442  11.347  17.322  0.00  0.00    +0.000 A 
ATOM     27  C   UNL     1      -3.277  11.732  18.659  0.00  0.00    +0.000 A 
BRANCH  22  29
ATOM     28  N   UNL     1      -5.183  12.329  21.612  0.00  0.00    +0.000 N 
ATOM     29  C   UNL     1      -4.294  12.839  20.699  0.00  0.00    +0.000 C 
ATOM     30  O   UNL     1      -3.486  13.704  20.999  0.00  0.00    +0.000 OA
ATOM     31  H   UNL     1      -5.188  12.742  22.534  0.00  0.00    +0.000 HD
ATOM     32  H   UNL     1      -6.008  11.804  21.335  0.00  0.00    +0.000 HD
ENDBRANCH  22  29
ENDBRANCH  18  27
ENDBRANCH   1  19
TORSDOF 4
ENDMDL
MODEL 5
REMARK VINA RESULT:      -7.3      2.530      9.111
REMARK  Name = 
REMARK  4 active torsions:
REMARK  status: ('A' for Active; 'I' for Inactive)
REMARK    1  A    between atoms: C_2  and  C_4
REMARK    2  A    between atoms: C_9  and  N_10
REMARK    3  A    between atoms: C_11  and  C_13
REMARK    4  A    between atoms: C_19  and  N_20
REMARK                            x       y       z     vdW  Elec       q    Type
REMARK                         _______ _______ _______ _____ _____    ______ ____
ROOT
ATOM      1  C   UNL     1       1.733   9.404  19.211  0.00  0.00    +0.000 C 
ATOM      2  C   UNL     1       0.778  10.375  19.943  0.00  0.00    +0.000 C 
ATOM      3  C   UNL     1      -0.703  10.039  19.742  0.00  0.00    +0.000 C 
ATOM      4  N   UNL     1      -0.961   9.925  18.313  0.00  0.00    +0.000 N 
ATOM      5  C   UNL     1      -2.077  10.454  17.693  0.00  0.00    +0.000 A 
ATOM      6  C   UNL     1      -3.216  10.799  18.400  0.00  0.00    +0.000 A 
ATOM      7  C   UNL     1      -4.294  11.376  17.742  0.00  0.00    +0.000 A 
ATOM      8  N   UNL     1      -4.228  11.607  16.423  0.00  0.00    +0.000 NA
ATOM      9  C   UNL     1      -3.096  11.245  15.808  0.00  0.00    +0.000 A 
ATOM     10  N   UNL     1      -2.026  10.667  16.370  0.00  0.00    +0.000 NA
ATOM     11  C   UNL     1      -0.195   8.904  17.609  0.00  0.00    +0.000 C 
ATOM     12  C   UNL     1       1.296   9.204  17.753  0.00  0.00    +0.000 C 
ENDROOT
BRANCH   7  13
ATOM     13  N   UNL     1      -5.433  11.728  18.420  0.00  0.00    +0.000 N 
ATOM     14  C   UNL     1      -5.531  12.932  19.225  0.00  0.00    +0.000 C 
ATOM     15  C   UNL     1      -6.528  12.523  20.305  0.00  0.00    +0.000 C 
ATOM     16  C   UNL     1      -7.491  11.600  19.572  0.00  0.00    +0.000 C 
ATOM     17  C   UNL     1      -6.629  10.907  18.518  0.00  0.00    +0.000 C 
ENDBRANCH   7  13
BRANCH   1  19
ATOM     18  N   UNL     1       2.290   6.998  19.253  0.00  0.00    +0.000 N 
ATOM     19  C   UNL     1       1.867   8.093  19.993  0.00  0.00    +0.000 C 
ATOM     20  O   UNL     1       1.660   8.080  21.208  0.00  0.00    +0.000 OA
ATOM     21  H   UNL     1       2.617   7.147  18.294  0.00  0.00    +0.000 HD
BRANCH  18  27
ATOM     22  C   UNL     1       3.623   4.924  19.521  0.00  0.00    +0.000 A 
ATOM     23  C   UNL     1       3.734   3.596  19.993  0.00  0.00    +0.000 A 
ATOM     24  C   UNL     1       2.709   3.017  20.732  0.00  0.00    +0.000 A 
ATOM     25  C   UNL     1       1.554   3.745  20.980  0.00  0.00    +0.000 A 
ATOM     26  C   UNL     1       1.420   5.042  20.476  0.00  0.00    +0.000 A 
ATOM     27  C   UNL     1       2.440   5.666  19.745  0.00  0.00    +0.000 A 
BRANCH  22  29
ATOM     28  N   UNL     1       6.038   5.161  19.299  0.00  0.00    +0.000 N 
ATOM     29  C   UNL     1       4.799   5.525  18.833  0.00  0.00    +0.000 C 
ATOM     30  O   UNL     1       4.663   6.329  17.922  0.00  0.00    +0.000 OA
ATOM     31  H   UNL     1       6.839   5.632  18.901  0.00  0.00    +0.000 HD
ATOM     32  H   UNL     1       6.170   4.700  20.194  0.00  0.00    +0.000 HD
ENDBRANCH  22  29
ENDBRANCH  18  27
ENDBRANCH   1  19
TORSDOF 4
ENDMDL
MODEL 6
REMARK VINA RESULT:      -7.1      6.436     10.572
REMARK  Name = 
REMARK  4 active torsions:
REMARK  status: ('A' for Active; 'I' for Inactive)
REMARK    1  A    between atoms: C_2  and  C_4
REMARK    2  A    between atoms: C_9  and  N_10
REMARK    3  A    between atoms: C_11  and  C_13
REMARK    4  A    between atoms: C_19  and  N_20
REMARK                            x       y       z     vdW  Elec       q    Type
REMARK                         _______ _______ _______ _____ _____    ______ ____
ROOT
ATOM      1  C   UNL     1       5.836  15.777  19.776  0.00  0.00    +0.000 C 
ATOM      2  C   UNL     1       4.999  15.436  21.030  0.00  0.00    +0.000 C 
ATOM      3  C   UNL     1       4.177  14.152  20.881  0.00  0.00    +0.000 C 
ATOM      4  N   UNL     1       3.393  14.245  19.657  0.00  0.00    +0.000 N 
ATOM      5  C   UNL     1       2.070  13.856  19.566  0.00  0.00    +0.000 A 
ATOM      6  C   UNL     1       1.486  13.010  20.493  0.00  0.00    +0.000 A 
ATOM      7  C   UNL     1       0.140  12.689  20.390  0.00  0.00    +0.000 A 
ATOM      8  N   UNL     1      -0.598  13.207  19.397  0.00  0.00    +0.000 NA
ATOM      9  C   UNL     1       0.035  14.015  18.539  0.00  0.00    +0.000 A 
ATOM     10  N   UNL     1       1.331  14.354  18.563  0.00  0.00    +0.000 NA
ATOM     11  C   UNL     1       4.155  14.405  18.425  0.00  0.00    +0.000 C 
ATOM     12  C   UNL     1       4.978  15.690  18.506  0.00  0.00    +0.000 C 
ENDROOT
BRANCH   7  13
ATOM     13  N   UNL     1      -0.463  11.853  21.296  0.00  0.00    +0.000 N 
ATOM     14  C   UNL     1      -1.775  12.115  21.857  0.00  0.00    +0.000 C 
ATOM     15  C   UNL     1      -1.673  11.476  23.239  0.00  0.00    +0.000 C 
ATOM     16  C   UNL     1      -0.792  10.258  23.005  0.00  0.00    +0.000 C 
ATOM     17  C   UNL     1       0.163  10.684  21.891  0.00  0.00    +0.000 C 
ENDBRANCH   7  13
BRANCH   1  19
ATOM     18  N   UNL     1       7.592  14.657  18.449  0.00  0.00    +0.000 N 
ATOM     19  C   UNL     1       7.097  14.910  19.721  0.00  0.00    +0.000 C 
ATOM     20  O   UNL     1       7.633  14.538  20.768  0.00  0.00    +0.000 OA
ATOM     21  H   UNL     1       7.191  15.162  17.654  0.00  0.00    +0.000 HD
BRANCH  18  27
ATOM     22  C   UNL     1       9.938  14.397  17.688  0.00  0.00    +0.000 A 
ATOM     23  C   UNL     1      11.031  13.560  17.360  0.00  0.00    +0.000 A 
ATOM     24  C   UNL     1      10.946  12.183  17.528  0.00  0.00    +0.000 A 
ATOM     25  C   UNL     1       9.764  11.627  17.996  0.00  0.00    +0.000 A 
ATOM     26  C   UNL     1       8.666  12.444  18.278  0.00  0.00    +0.000 A 
ATOM     27  C   UNL     1       8.720  13.838  18.141  0.00  0.00    +0.000 A 
BRANCH  22  29
ATOM     28  N   UNL     1      10.489  16.367  16.364  0.00  0.00    +0.000 N 
ATOM     29  C   UNL     1      10.129  15.871  17.592  0.00  0.00    +0.000 C 
ATOM     30  O   UNL     1      10.005  16.595  18.569  0.00  0.00    +0.000 OA
ATOM     31  H   UNL     1      10.710  17.351  16.308  0.00  0.00    +0.000 HD
ATOM     32  H   UNL     1      10.833  15.772  15.615  0.00  0.00    +0.000 HD
ENDBRANCH  22  29
ENDBRANCH  18  27
ENDBRANCH   1  19
TORSDOF 4
ENDMDL
MODEL 7
REMARK VINA RESULT:      -7.1      1.784      3.119
REMARK  Name = 
REMARK  4 active torsions:
REMARK  status: ('A' for Active; 'I' for Inactive)
REMARK    1  A    between atoms: C_2  and  C_4
REMARK    2  A    between atoms: C_9  and  N_10
REMARK    3  A    between atoms: C_11  and  C_13
REMARK    4  A    between atoms: C_19  and  N_20
REMARK                            x       y       z     vdW  Elec       q    Type
REMARK                         _______ _______ _______ _____ _____    ______ ____
ROOT
ATOM      1  C   UNL     1       1.355   9.612  19.607  0.00  0.00    +0.000 C 
ATOM      2  C   UNL     1       2.313   9.623  18.394  0.00  0.00    +0.000 C 
ATOM      3  C   UNL     1       2.447   8.256  17.713  0.00  0.00    +0.000 C 
ATOM      4  N   UNL     1       2.790   7.268  18.727  0.00  0.00    +0.000 N 
ATOM      5  C   UNL     1       3.741   6.282  18.541  0.00  0.00    +0.000 A 
ATOM      6  C   UNL     1       4.175   5.906  17.282  0.00  0.00    +0.000 A 
ATOM      7  C   UNL     1       5.170   4.948  17.146  0.00  0.00    +0.000 A 
ATOM      8  N   UNL     1       5.718   4.393  18.238  0.00  0.00    +0.000 NA
ATOM      9  C   UNL     1       5.247   4.805  19.420  0.00  0.00    +0.000 A 
ATOM     10  N   UNL     1       4.278   5.708  19.628  0.00  0.00    +0.000 NA
ATOM     11  C   UNL     1       1.829   7.109  19.811  0.00  0.00    +0.000 C 
ATOM     12  C   UNL     1       1.675   8.440  20.545  0.00  0.00    +0.000 C 
ENDROOT
BRANCH   7  13
ATOM     13  N   UNL     1       5.617   4.558  15.910  0.00  0.00    +0.000 N 
ATOM     14  C   UNL     1       7.024   4.537  15.551  0.00  0.00    +0.000 C 
ATOM     15  C   UNL     1       6.983   4.822  14.053  0.00  0.00    +0.000 C 
ATOM     16  C   UNL     1       5.713   4.125  13.590  0.00  0.00    +0.000 C 
ATOM     17  C   UNL     1       4.760   4.233  14.781  0.00  0.00    +0.000 C 
ENDBRANCH   7  13
BRANCH   1  19
ATOM     18  N   UNL     1      -0.323  10.239  17.907  0.00  0.00    +0.000 N 
ATOM     19  C   UNL     1      -0.103   9.640  19.139  0.00  0.00    +0.000 C 
ATOM     20  O   UNL     1      -0.977   9.097  19.820  0.00  0.00    +0.000 OA
ATOM     21  H   UNL     1       0.484  10.492  17.331  0.00  0.00    +0.000 HD
BRANCH  18  27
ATOM     22  C   UNL     1      -2.486  11.438  17.721  0.00  0.00    +0.000 A 
ATOM     23  C   UNL     1      -3.753  11.585  17.110  0.00  0.00    +0.000 A 
ATOM     24  C   UNL     1      -4.122  10.780  16.039  0.00  0.00    +0.000 A 
ATOM     25  C   UNL     1      -3.246   9.803  15.589  0.00  0.00    +0.000 A 
ATOM     26  C   UNL     1      -2.010   9.623  16.219  0.00  0.00    +0.000 A 
ATOM     27  C   UNL     1      -1.595  10.429  17.287  0.00  0.00    +0.000 A 
BRANCH  22  29
ATOM     28  N   UNL     1      -3.057  12.678  19.740  0.00  0.00    +0.000 N 
ATOM     29  C   UNL     1      -2.105  12.404  18.790  0.00  0.00    +0.000 C 
ATOM     30  O   UNL     1      -1.012  12.950  18.795  0.00  0.00    +0.000 OA
ATOM     31  H   UNL     1      -2.843  13.399  20.415  0.00  0.00    +0.000 HD
ATOM     32  H   UNL     1      -4.035  12.433  19.618  0.00  0.00    +0.000 HD
ENDBRANCH  22  29
ENDBRANCH  18  27
ENDBRANCH   1  19
TORSDOF 4
ENDMDL
MODEL 8
REMARK VINA RESULT:      -7.0      3.403      4.935
REMARK  Name = 
REMARK  4 active torsions:
REMARK  status: ('A' for Active; 'I' for Inactive)
REMARK    1  A    between atoms: C_2  and  C_4
REMARK    2  A    between atoms: C_9  and  N_10
REMARK    3  A    between atoms: C_11  and  C_13
REMARK    4  A    between atoms: C_19  and  N_20
REMARK                            x       y       z     vdW  Elec       q    Type
REMARK                         _______ _______ _______ _____ _____    ______ ____
ROOT
ATOM      1  C   UNL     1      -1.000  11.322  20.265  0.00  0.00    +0.000 C 
ATOM      2  C   UNL     1      -1.278   9.814  20.465  0.00  0.00    +0.000 C 
ATOM      3  C   UNL     1      -0.033   9.015  20.865  0.00  0.00    +0.000 C 
ATOM      4  N   UNL     1       1.025   9.297  19.904  0.00  0.00    +0.000 N 
ATOM      5  C   UNL     1       1.857   8.327  19.378  0.00  0.00    +0.000 A 
ATOM      6  C   UNL     1       2.018   7.091  19.980  0.00  0.00    +0.000 A 
ATOM      7  C   UNL     1       2.825   6.129  19.386  0.00  0.00    +0.000 A 
ATOM      8  N   UNL     1       3.440   6.395  18.225  0.00  0.00    +0.000 NA
ATOM      9  C   UNL     1       3.239   7.611  17.705  0.00  0.00    +0.000 A 
ATOM     10  N   UNL     1       2.493   8.594  18.228  0.00  0.00    +0.000 NA
ATOM     11  C   UNL     1       1.433  10.692  19.800  0.00  0.00    +0.000 C 
ATOM     12  C   UNL     1       0.233  11.537  19.376  0.00  0.00    +0.000 C 
ENDROOT
BRANCH   7  13
ATOM     13  N   UNL     1       3.000   4.896  19.962  0.00  0.00    +0.000 N 
ATOM     14  C   UNL     1       3.885   3.887  19.408  0.00  0.00    +0.000 C 
ATOM     15  C   UNL     1       3.204   2.588  19.830  0.00  0.00    +0.000 C 
ATOM     16  C   UNL     1       2.617   2.919  21.195  0.00  0.00    +0.000 C 
ATOM     17  C   UNL     1       2.255   4.401  21.108  0.00  0.00    +0.000 C 
ENDBRANCH   7  13
BRANCH   1  19
ATOM     18  N   UNL     1      -1.906  12.967  21.869  0.00  0.00    +0.000 N 
ATOM     19  C   UNL     1      -0.909  12.034  21.617  0.00  0.00    +0.000 C 
ATOM     20  O   UNL     1      -0.025  11.720  22.418  0.00  0.00    +0.000 OA
ATOM     21  H   UNL     1      -2.701  13.024  21.227  0.00  0.00    +0.000 HD
BRANCH  18  27
ATOM     22  C   UNL     1      -3.111  13.701  23.908  0.00  0.00    +0.000 A 
ATOM     23  C   UNL     1      -3.199  14.550  25.036  0.00  0.00    +0.000 A 
ATOM     24  C   UNL     1      -2.177  15.443  25.335  0.00  0.00    +0.000 A 
ATOM     25  C   UNL     1      -1.075  15.519  24.496  0.00  0.00    +0.000 A 
ATOM     26  C   UNL     1      -1.003  14.716  23.353  0.00  0.00    +0.000 A 
ATOM     27  C   UNL     1      -2.004  13.789  23.032  0.00  0.00    +0.000 A 
BRANCH  22  29
ATOM     28  N   UNL     1      -4.596  11.996  24.817  0.00  0.00    +0.000 N 
ATOM     29  C   UNL     1      -4.185  12.689  23.706  0.00  0.00    +0.000 C 
ATOM     30  O   UNL     1      -4.650  12.465  22.597  0.00  0.00    +0.000 OA
ATOM     31  H   UNL     1      -5.257  11.245  24.676  0.00  0.00    +0.000 HD
ATOM     32  H   UNL     1      -4.064  11.988  25.682  0.00  0.00    +0.000 HD
ENDBRANCH  22  29
ENDBRANCH  18  27
ENDBRANCH   1  19
TORSDOF 4
ENDMDL
MODEL 9
REMARK VINA RESULT:      -6.9      2.927      9.150
REMARK  Name = 
REMARK  4 active torsions:
REMARK  status: ('A' for Active; 'I' for Inactive)
REMARK    1  A    between atoms: C_2  and  C_4
REMARK    2  A    between atoms: C_9  and  N_10
REMARK    3  A    between atoms: C_11  and  C_13
REMARK    4  A    between atoms: C_19  and  N_20
REMARK                            x       y       z     vdW  Elec       q    Type
REMARK                         _______ _______ _______ _____ _____    ______ ____
ROOT
ATOM      1  C   UNL     1       2.572   8.236  18.875  0.00  0.00    +0.000 C 
ATOM      2  C   UNL     1       2.077   8.567  20.301  0.00  0.00    +0.000 C 
ATOM      3  C   UNL     1       0.599   8.965  20.355  0.00  0.00    +0.000 C 
ATOM      4  N   UNL     1       0.373  10.033  19.390  0.00  0.00    +0.000 N 
ATOM      5  C   UNL     1      -0.400  11.148  19.652  0.00  0.00    +0.000 A 
ATOM      6  C   UNL     1      -1.321  11.179  20.685  0.00  0.00    +0.000 A 
ATOM      7  C   UNL     1      -2.037  12.340  20.943  0.00  0.00    +0.000 A 
ATOM      8  N   UNL     1      -1.829  13.435  20.197  0.00  0.00    +0.000 NA
ATOM      9  C   UNL     1      -0.926  13.328  19.216  0.00  0.00    +0.000 A 
ATOM     10  N   UNL     1      -0.213  12.240  18.896  0.00  0.00    +0.000 NA
ATOM     11  C   UNL     1       0.675   9.708  18.001  0.00  0.00    +0.000 C 
ATOM     12  C   UNL     1       2.149   9.328  17.883  0.00  0.00    +0.000 C 
ENDROOT
BRANCH   7  13
ATOM     13  N   UNL     1      -2.954  12.396  21.961  0.00  0.00    +0.000 N 
ATOM     14  C   UNL     1      -4.302  12.904  21.780  0.00  0.00    +0.000 C 
ATOM     15  C   UNL     1      -4.621  13.485  23.155  0.00  0.00    +0.000 C 
ATOM     16  C   UNL     1      -3.913  12.539  24.115  0.00  0.00    +0.000 C 
ATOM     17  C   UNL     1      -2.674  12.074  23.351  0.00  0.00    +0.000 C 
ENDBRANCH   7  13
BRANCH   1  19
ATOM     18  N   UNL     1       2.479   5.811  19.335  0.00  0.00    +0.000 N 
ATOM     19  C   UNL     1       2.122   6.831  18.464  0.00  0.00    +0.000 C 
ATOM     20  O   UNL     1       1.437   6.678  17.450  0.00  0.00    +0.000 OA
ATOM     21  H   UNL     1       2.882   6.057  20.243  0.00  0.00    +0.000 HD
BRANCH  18  27
ATOM     22  C   UNL     1       3.146   3.577  18.491  0.00  0.00    +0.000 A 
ATOM     23  C   UNL     1       2.850   2.209  18.286  0.00  0.00    +0.000 A 
ATOM     24  C   UNL     1       1.669   1.659  18.770  0.00  0.00    +0.000 A 
ATOM     25  C   UNL     1       0.762   2.472  19.435  0.00  0.00    +0.000 A 
ATOM     26  C   UNL     1       1.029   3.835  19.600  0.00  0.00    +0.000 A 
ATOM     27  C   UNL     1       2.218   4.421  19.144  0.00  0.00    +0.000 A 
BRANCH  22  29
ATOM     28  N   UNL     1       5.563   3.692  18.790  0.00  0.00    +0.000 N 
ATOM     29  C   UNL     1       4.476   4.081  18.046  0.00  0.00    +0.000 C 
ATOM     30  O   UNL     1       4.586   4.831  17.088  0.00  0.00    +0.000 OA
ATOM     31  H   UNL     1       6.456   4.101  18.553  0.00  0.00    +0.000 HD
ATOM     32  H   UNL     1       5.471   3.283  19.715  0.00  0.00    +0.000 HD
ENDBRANCH  22  29
ENDBRANCH  18  27
ENDBRANCH   1  19
TORSDOF 4
ENDMDL
