MODEL 1
REMARK VINA RESULT:      -9.1      0.000      0.000
REMARK  Name = 
REMARK  10 active torsions:
REMARK  status: ('A' for Active; 'I' for Inactive)
REMARK    1  A    between atoms: C_1  and  C_2
REMARK    2  A    between atoms: C_7  and  C_8
REMARK    3  A    between atoms: C_8  and  N_9
REMARK    4  A    between atoms: N_9  and  C_10
REMARK    5  A    between atoms: N_9  and  C_16
REMARK    6  A    between atoms: C_10  and  C_11
REMARK    7  A    between atoms: C_16  and  C_17
REMARK    8  A    between atoms: N_21  and  C_22
REMARK    9  A    between atoms: C_22  and  C_23
REMARK   10  A    between atoms: C_28  and  O_29
REMARK                            x       y       z     vdW  Elec       q    Type
REMARK                         _______ _______ _______ _____ _____    ______ ____
ROOT
ATOM      1  N   UNL     1       4.197   5.298  18.803  0.00  0.00    +0.000 NA
ENDROOT
BRANCH   1   2
ATOM      2  C   UNL     1       3.082   6.021  18.177  0.00  0.00    +0.000 C 
BRANCH   2   9
ATOM      3  C   UNL     1      -1.551  11.950  20.895  0.00  0.00    +0.000 C 
ATOM      4  C   UNL     1      -0.497  11.109  20.231  0.00  0.00    +0.000 A 
ATOM      5  C   UNL     1      -0.054  11.395  18.933  0.00  0.00    +0.000 A 
ATOM      6  C   UNL     1       0.861  10.541  18.302  0.00  0.00    +0.000 A 
ATOM      7  C   UNL     1       1.331   9.378  18.949  0.00  0.00    +0.000 A 
ATOM      8  C   UNL     1       2.144   8.423  18.293  0.00  0.00    +0.000 A 
ATOM      9  C   UNL     1       2.500   7.224  18.913  0.00  0.00    +0.000 A 
ATOM     10  C   UNL     1       2.072   7.119  20.234  0.00  0.00    +0.000 A 
ATOM     11  N   UNL     1       1.332   8.008  20.924  0.00  0.00    +0.000 NA
ATOM     12  C   UNL     1       0.929   9.109  20.270  0.00  0.00    +0.000 A 
ATOM     13  C   UNL     1       0.035   9.989  20.885  0.00  0.00    +0.000 A 
BRANCH  10  14
ATOM     14  O   UNL     1       2.322   6.021  20.986  0.00  0.00    +0.000 OA
ATOM     15  H   UNL     1       1.640   5.433  20.603  0.00  0.00    +0.000 HD
ENDBRANCH  10  14
ENDBRANCH   2   9
ENDBRANCH   1   2
BRANCH   1  16
ATOM     16  C   UNL     1       4.187   3.832  18.782  0.00  0.00    +0.000 C 
BRANCH  16  17
ATOM     17  C   UNL     1       2.882   3.113  18.976  0.00  0.00    +0.000 A 
ATOM     18  C   UNL     1       2.019   2.491  18.089  0.00  0.00    +0.000 A 
ATOM     19  C   UNL     1       0.863   2.129  18.821  0.00  0.00    +0.000 A 
ATOM     20  C   UNL     1       1.070   2.580  20.102  0.00  0.00    +0.000 A 
ATOM     21  O   UNL     1       2.293   3.171  20.212  0.00  0.00    +0.000 OA
ENDBRANCH  16  17
ENDBRANCH   1  16
BRANCH   1  22
ATOM     22  C   UNL     1       5.520   5.962  18.871  0.00  0.00    +0.000 C 
BRANCH  22  23
ATOM     23  C   UNL     1       6.588   5.219  18.091  0.00  0.00    +0.000 A 
ATOM     24  N   UNL     1       7.743   4.823  18.602  0.00  0.00    +0.000 NA
ATOM     25  N   UNL     1       8.428   4.172  17.622  0.00  0.00    +0.000 NA
ATOM     26  N   UNL     1       7.722   4.124  16.509  0.00  0.00    +0.000 NA
ATOM     27  N   UNL     1       6.548   4.736  16.788  0.00  0.00    +0.000 N 
BRANCH  27  28
ATOM     28  C   UNL     1       5.633   4.950  15.678  0.00  0.00    +0.000 C 
BRANCH  28  29
ATOM     29  C   UNL     1       6.245   4.760  14.322  0.00  0.00    +0.000 A 
ATOM     30  C   UNL     1       6.064   3.831  13.309  0.00  0.00    +0.000 A 
ATOM     31  C   UNL     1       7.112   4.029  12.375  0.00  0.00    +0.000 A 
ATOM     32  C   UNL     1       7.834   5.102  12.839  0.00  0.00    +0.000 A 
ATOM     33  O   UNL     1       7.319   5.553  14.014  0.00  0.00    +0.000 OA
ENDBRANCH  28  29
ENDBRANCH  27  28
ENDBRANCH  22  23
ENDBRANCH   1  22
TORSDOF 9
ENDMDL
MODEL 2
REMARK VINA RESULT:      -8.8      1.724      2.423
REMARK  Name = 
REMARK  10 active torsions:
REMARK  status: ('A' for Active; 'I' for Inactive)
REMARK    1  A    between atoms: C_1  and  C_2
REMARK    2  A    between atoms: C_7  and  C_8
REMARK    3  A    between atoms: C_8  and  N_9
REMARK    4  A    between atoms: N_9  and  C_10
REMARK    5  A    between atoms: N_9  and  C_16
REMARK    6  A    between atoms: C_10  and  C_11
REMARK    7  A    between atoms: C_16  and  C_17
REMARK    8  A    between atoms: N_21  and  C_22
REMARK    9  A    between atoms: C_22  and  C_23
REMARK   10  A    between atoms: C_28  and  O_29
REMARK                            x       y       z     vdW  Elec       q    Type
REMARK                         _______ _______ _______ _____ _____    ______ ____
ROOT
ATOM      1  N   UNL     1       3.145   6.342  18.166  0.00  0.00    +0.000 NA
ENDROOT
BRANCH   1   2
ATOM      2  C   UNL     1       3.105   7.805  18.303  0.00  0.00    +0.000 C 
BRANCH   2   9
ATOM      3  C   UNL     1      -1.668  11.929  23.224  0.00  0.00    +0.000 C 
ATOM      4  C   UNL     1      -0.896  10.870  22.488  0.00  0.00    +0.000 A 
ATOM      5  C   UNL     1      -0.300   9.801  23.171  0.00  0.00    +0.000 A 
ATOM      6  C   UNL     1       0.492   8.879  22.473  0.00  0.00    +0.000 A 
ATOM      7  C   UNL     1       0.719   9.022  21.088  0.00  0.00    +0.000 A 
ATOM      8  C   UNL     1       1.623   8.194  20.380  0.00  0.00    +0.000 A 
ATOM      9  C   UNL     1       1.921   8.428  19.036  0.00  0.00    +0.000 A 
ATOM     10  C   UNL     1       1.185   9.460  18.462  0.00  0.00    +0.000 A 
ATOM     11  N   UNL     1       0.285  10.256  19.071  0.00  0.00    +0.000 NA
ATOM     12  C   UNL     1       0.088  10.064  20.385  0.00  0.00    +0.000 A 
ATOM     13  C   UNL     1      -0.716  10.955  21.100  0.00  0.00    +0.000 A 
BRANCH  10  14
ATOM     14  O   UNL     1       1.350   9.830  17.169  0.00  0.00    +0.000 OA
ATOM     15  H   UNL     1       0.405   9.896  16.924  0.00  0.00    +0.000 HD
ENDBRANCH  10  14
ENDBRANCH   2   9
ENDBRANCH   1   2
BRANCH   1  16
ATOM     16  C   UNL     1       1.895   5.587  18.303  0.00  0.00    +0.000 C 
BRANCH  16  17
ATOM     17  C   UNL     1       1.784   4.562  19.395  0.00  0.00    +0.000 A 
ATOM     18  C   UNL     1       0.990   3.436  19.539  0.00  0.00    +0.000 A 
ATOM     19  C   UNL     1       1.201   2.945  20.850  0.00  0.00    +0.000 A 
ATOM     20  C   UNL     1       2.082   3.817  21.443  0.00  0.00    +0.000 A 
ATOM     21  O   UNL     1       2.449   4.797  20.570  0.00  0.00    +0.000 OA
ENDBRANCH  16  17
ENDBRANCH   1  16
BRANCH   1  22
ATOM     22  C   UNL     1       4.209   5.740  17.329  0.00  0.00    +0.000 C 
BRANCH  22  23
ATOM     23  C   UNL     1       5.486   5.482  18.105  0.00  0.00    +0.000 A 
ATOM     24  N   UNL     1       5.527   5.180  19.393  0.00  0.00    +0.000 NA
ATOM     25  N   UNL     1       6.832   4.994  19.734  0.00  0.00    +0.000 NA
ATOM     26  N   UNL     1       7.617   5.147  18.686  0.00  0.00    +0.000 NA
ATOM     27  N   UNL     1       6.796   5.412  17.643  0.00  0.00    +0.000 N 
BRANCH  27  28
ATOM     28  C   UNL     1       7.424   5.769  16.380  0.00  0.00    +0.000 C 
BRANCH  28  29
ATOM     29  C   UNL     1       6.888   5.031  15.189  0.00  0.00    +0.000 A 
ATOM     30  C   UNL     1       6.119   3.888  15.035  0.00  0.00    +0.000 A 
ATOM     31  C   UNL     1       6.151   3.551  13.658  0.00  0.00    +0.000 A 
ATOM     32  C   UNL     1       6.885   4.537  13.045  0.00  0.00    +0.000 A 
ATOM     33  O   UNL     1       7.335   5.438  13.960  0.00  0.00    +0.000 OA
ENDBRANCH  28  29
ENDBRANCH  27  28
ENDBRANCH  22  23
ENDBRANCH   1  22
TORSDOF 9
ENDMDL
MODEL 3
REMARK VINA RESULT:      -8.7      1.449      2.042
REMARK  Name = 
REMARK  10 active torsions:
REMARK  status: ('A' for Active; 'I' for Inactive)
REMARK    1  A    between atoms: C_1  and  C_2
REMARK    2  A    between atoms: C_7  and  C_8
REMARK    3  A    between atoms: C_8  and  N_9
REMARK    4  A    between atoms: N_9  and  C_10
REMARK    5  A    between atoms: N_9  and  C_16
REMARK    6  A    between atoms: C_10  and  C_11
REMARK    7  A    between atoms: C_16  and  C_17
REMARK    8  A    between atoms: N_21  and  C_22
REMARK    9  A    between atoms: C_22  and  C_23
REMARK   10  A    between atoms: C_28  and  O_29
REMARK                            x       y       z     vdW  Elec       q    Type
REMARK                         _______ _______ _______ _____ _____    ______ ____
ROOT
ATOM      1  N   UNL     1       3.376   5.765  18.279  0.00  0.00    +0.000 NA
ENDROOT
BRANCH   1   2
ATOM      2  C   UNL     1       3.474   6.802  19.315  0.00  0.00    +0.000 C 
BRANCH   2   9
ATOM      3  C   UNL     1      -1.711  12.285  21.971  0.00  0.00    +0.000 C 
ATOM      4  C   UNL     1      -0.942  11.029  21.670  0.00  0.00    +0.000 A 
ATOM      5  C   UNL     1      -0.682  10.081  22.669  0.00  0.00    +0.000 A 
ATOM      6  C   UNL     1       0.116   8.966  22.384  0.00  0.00    +0.000 A 
ATOM      7  C   UNL     1       0.686   8.790  21.105  0.00  0.00    +0.000 A 
ATOM      8  C   UNL     1       1.608   7.754  20.823  0.00  0.00    +0.000 A 
ATOM      9  C   UNL     1       2.249   7.669  19.586  0.00  0.00    +0.000 A 
ATOM     10  C   UNL     1       1.823   8.618  18.660  0.00  0.00    +0.000 A 
ATOM     11  N   UNL     1       0.924   9.601  18.854  0.00  0.00    +0.000 NA
ATOM     12  C   UNL     1       0.393   9.711  20.083  0.00  0.00    +0.000 A 
ATOM     13  C   UNL     1      -0.425  10.802  20.386  0.00  0.00    +0.000 A 
BRANCH  10  14
ATOM     14  O   UNL     1       2.342   8.687  17.410  0.00  0.00    +0.000 OA
ATOM     15  H   UNL     1       2.646   7.760  17.336  0.00  0.00    +0.000 HD
ENDBRANCH  10  14
ENDBRANCH   2   9
ENDBRANCH   1   2
BRANCH   1  16
ATOM     16  C   UNL     1       2.190   4.902  18.255  0.00  0.00    +0.000 C 
BRANCH  16  17
ATOM     17  C   UNL     1       1.928   3.998  19.426  0.00  0.00    +0.000 A 
ATOM     18  C   UNL     1       0.802   3.781  20.203  0.00  0.00    +0.000 A 
ATOM     19  C   UNL     1       1.192   2.935  21.269  0.00  0.00    +0.000 A 
ATOM     20  C   UNL     1       2.537   2.712  21.104  0.00  0.00    +0.000 A 
ATOM     21  O   UNL     1       2.995   3.344  19.986  0.00  0.00    +0.000 OA
ENDBRANCH  16  17
ENDBRANCH   1  16
BRANCH   1  22
ATOM     22  C   UNL     1       4.076   5.984  16.991  0.00  0.00    +0.000 C 
BRANCH  22  23
ATOM     23  C   UNL     1       5.540   5.594  17.049  0.00  0.00    +0.000 A 
ATOM     24  N   UNL     1       6.433   6.166  17.842  0.00  0.00    +0.000 NA
ATOM     25  N   UNL     1       7.626   5.543  17.640  0.00  0.00    +0.000 NA
ATOM     26  N   UNL     1       7.505   4.572  16.757  0.00  0.00    +0.000 NA
ATOM     27  N   UNL     1       6.199   4.554  16.402  0.00  0.00    +0.000 N 
BRANCH  27  28
ATOM     28  C   UNL     1       5.819   3.660  15.319  0.00  0.00    +0.000 C 
BRANCH  28  29
ATOM     29  C   UNL     1       6.346   4.056  13.971  0.00  0.00    +0.000 A 
ATOM     30  C   UNL     1       6.306   3.470  12.716  0.00  0.00    +0.000 A 
ATOM     31  C   UNL     1       7.197   4.202  11.891  0.00  0.00    +0.000 A 
ATOM     32  C   UNL     1       7.682   5.224  12.671  0.00  0.00    +0.000 A 
ATOM     33  O   UNL     1       7.173   5.147  13.930  0.00  0.00    +0.000 OA
ENDBRANCH  28  29
ENDBRANCH  27  28
ENDBRANCH  22  23
ENDBRANCH   1  22
TORSDOF 9
ENDMDL
MODEL 4
REMARK VINA RESULT:      -8.5      1.713      2.237
REMARK  Name = 
REMARK  10 active torsions:
REMARK  status: ('A' for Active; 'I' for Inactive)
REMARK    1  A    between atoms: C_1  and  C_2
REMARK    2  A    between atoms: C_7  and  C_8
REMARK    3  A    between atoms: C_8  and  N_9
REMARK    4  A    between atoms: N_9  and  C_10
REMARK    5  A    between atoms: N_9  and  C_16
REMARK    6  A    between atoms: C_10  and  C_11
REMARK    7  A    between atoms: C_16  and  C_17
REMARK    8  A    between atoms: N_21  and  C_22
REMARK    9  A    between atoms: C_22  and  C_23
REMARK   10  A    between atoms: C_28  and  O_29
REMARK                            x       y       z     vdW  Elec       q    Type
REMARK                         _______ _______ _______ _____ _____    ______ ____
ROOT
ATOM      1  N   UNL     1       3.522   5.979  18.483  0.00  0.00    +0.000 NA
ENDROOT
BRANCH   1   2
ATOM      2  C   UNL     1       3.363   7.415  18.214  0.00  0.00    +0.000 C 
BRANCH   2   9
ATOM      3  C   UNL     1      -1.279  11.834  23.002  0.00  0.00    +0.000 C 
ATOM      4  C   UNL     1      -0.588  10.728  22.254  0.00  0.00    +0.000 A 
ATOM      5  C   UNL     1      -0.219   9.539  22.897  0.00  0.00    +0.000 A 
ATOM      6  C   UNL     1       0.506   8.563  22.201  0.00  0.00    +0.000 A 
ATOM      7  C   UNL     1       0.893   8.768  20.859  0.00  0.00    +0.000 A 
ATOM      8  C   UNL     1       1.742   7.869  20.171  0.00  0.00    +0.000 A 
ATOM      9  C   UNL     1       2.207   8.151  18.885  0.00  0.00    +0.000 A 
ATOM     10  C   UNL     1       1.684   9.317  18.334  0.00  0.00    +0.000 A 
ATOM     11  N   UNL     1       0.843  10.190  18.921  0.00  0.00    +0.000 NA
ATOM     12  C   UNL     1       0.487   9.937  20.191  0.00  0.00    +0.000 A 
ATOM     13  C   UNL     1      -0.256  10.884  20.901  0.00  0.00    +0.000 A 
BRANCH  10  14
ATOM     14  O   UNL     1       2.030   9.748  17.097  0.00  0.00    +0.000 OA
ATOM     15  H   UNL     1       2.733  10.375  17.362  0.00  0.00    +0.000 HD
ENDBRANCH  10  14
ENDBRANCH   2   9
ENDBRANCH   1   2
BRANCH   1  16
ATOM     16  C   UNL     1       2.535   5.046  17.929  0.00  0.00    +0.000 C 
BRANCH  16  17
ATOM     17  C   UNL     1       1.883   4.051  18.846  0.00  0.00    +0.000 A 
ATOM     18  C   UNL     1       1.315   4.175  20.103  0.00  0.00    +0.000 A 
ATOM     19  C   UNL     1       1.005   2.868  20.548  0.00  0.00    +0.000 A 
ATOM     20  C   UNL     1       1.432   2.019  19.556  0.00  0.00    +0.000 A 
ATOM     21  O   UNL     1       1.959   2.724  18.515  0.00  0.00    +0.000 OA
ENDBRANCH  16  17
ENDBRANCH   1  16
BRANCH   1  22
ATOM     22  C   UNL     1       4.884   5.452  18.730  0.00  0.00    +0.000 C 
BRANCH  22  23
ATOM     23  C   UNL     1       5.924   6.070  17.815  0.00  0.00    +0.000 A 
ATOM     24  N   UNL     1       6.423   7.287  17.968  0.00  0.00    +0.000 NA
ATOM     25  N   UNL     1       7.340   7.485  16.982  0.00  0.00    +0.000 NA
ATOM     26  N   UNL     1       7.453   6.413  16.223  0.00  0.00    +0.000 NA
ATOM     27  N   UNL     1       6.607   5.497  16.748  0.00  0.00    +0.000 N 
BRANCH  27  28
ATOM     28  C   UNL     1       6.429   4.259  16.005  0.00  0.00    +0.000 C 
BRANCH  28  29
ATOM     29  C   UNL     1       6.609   4.392  14.522  0.00  0.00    +0.000 A 
ATOM     30  C   UNL     1       6.050   3.752  13.427  0.00  0.00    +0.000 A 
ATOM     31  C   UNL     1       6.806   4.140  12.292  0.00  0.00    +0.000 A 
ATOM     32  C   UNL     1       7.741   5.037  12.749  0.00  0.00    +0.000 A 
ATOM     33  O   UNL     1       7.630   5.198  14.095  0.00  0.00    +0.000 OA
ENDBRANCH  28  29
ENDBRANCH  27  28
ENDBRANCH  22  23
ENDBRANCH   1  22
TORSDOF 9
ENDMDL
MODEL 5
REMARK VINA RESULT:      -8.4      2.064      3.269
REMARK  Name = 
REMARK  10 active torsions:
REMARK  status: ('A' for Active; 'I' for Inactive)
REMARK    1  A    between atoms: C_1  and  C_2
REMARK    2  A    between atoms: C_7  and  C_8
REMARK    3  A    between atoms: C_8  and  N_9
REMARK    4  A    between atoms: N_9  and  C_10
REMARK    5  A    between atoms: N_9  and  C_16
REMARK    6  A    between atoms: C_10  and  C_11
REMARK    7  A    between atoms: C_16  and  C_17
REMARK    8  A    between atoms: N_21  and  C_22
REMARK    9  A    between atoms: C_22  and  C_23
REMARK   10  A    between atoms: C_28  and  O_29
REMARK                            x       y       z     vdW  Elec       q    Type
REMARK                         _______ _______ _______ _____ _____    ______ ____
ROOT
ATOM      1  N   UNL     1       4.520   4.062  18.236  0.00  0.00    +0.000 NA
ENDROOT
BRANCH   1   2
ATOM      2  C   UNL     1       4.621   5.284  19.046  0.00  0.00    +0.000 C 
BRANCH   2   9
ATOM      3  C   UNL     1      -0.467  11.320  20.341  0.00  0.00    +0.000 C 
ATOM      4  C   UNL     1       0.226   9.989  20.251  0.00  0.00    +0.000 A 
ATOM      5  C   UNL     1       0.170   9.071  21.309  0.00  0.00    +0.000 A 
ATOM      6  C   UNL     1       0.901   7.878  21.239  0.00  0.00    +0.000 A 
ATOM      7  C   UNL     1       1.715   7.591  20.122  0.00  0.00    +0.000 A 
ATOM      8  C   UNL     1       2.572   6.466  20.079  0.00  0.00    +0.000 A 
ATOM      9  C   UNL     1       3.455   6.267  19.016  0.00  0.00    +0.000 A 
ATOM     10  C   UNL     1       3.333   7.203  17.993  0.00  0.00    +0.000 A 
ATOM     11  N   UNL     1       2.512   8.269  17.957  0.00  0.00    +0.000 NA
ATOM     12  C   UNL     1       1.740   8.484  19.035  0.00  0.00    +0.000 A 
ATOM     13  C   UNL     1       0.984   9.656  19.120  0.00  0.00    +0.000 A 
BRANCH  10  14
ATOM     14  O   UNL     1       4.115   7.167  16.887  0.00  0.00    +0.000 OA
ATOM     15  H   UNL     1       4.615   6.352  17.098  0.00  0.00    +0.000 HD
ENDBRANCH  10  14
ENDBRANCH   2   9
ENDBRANCH   1   2
BRANCH   1  16
ATOM     16  C   UNL     1       4.149   2.807  18.897  0.00  0.00    +0.000 C 
BRANCH  16  17
ATOM     17  C   UNL     1       2.938   2.786  19.787  0.00  0.00    +0.000 A 
ATOM     18  C   UNL     1       1.592   2.995  19.535  0.00  0.00    +0.000 A 
ATOM     19  C   UNL     1       0.934   3.011  20.789  0.00  0.00    +0.000 A 
ATOM     20  C   UNL     1       1.918   2.848  21.735  0.00  0.00    +0.000 A 
ATOM     21  O   UNL     1       3.136   2.702  21.141  0.00  0.00    +0.000 OA
ENDBRANCH  16  17
ENDBRANCH   1  16
BRANCH   1  22
ATOM     22  C   UNL     1       4.184   4.192  16.799  0.00  0.00    +0.000 C 
BRANCH  22  23
ATOM     23  C   UNL     1       5.415   4.304  15.919  0.00  0.00    +0.000 A 
ATOM     24  N   UNL     1       5.424   4.065  14.617  0.00  0.00    +0.000 NA
ATOM     25  N   UNL     1       6.687   4.289  14.163  0.00  0.00    +0.000 NA
ATOM     26  N   UNL     1       7.474   4.689  15.143  0.00  0.00    +0.000 NA
ATOM     27  N   UNL     1       6.692   4.747  16.246  0.00  0.00    +0.000 N 
BRANCH  27  28
ATOM     28  C   UNL     1       7.352   5.025  17.512  0.00  0.00    +0.000 C 
BRANCH  28  29
ATOM     29  C   UNL     1       7.579   6.482  17.788  0.00  0.00    +0.000 A 
ATOM     30  C   UNL     1       7.335   7.643  17.071  0.00  0.00    +0.000 A 
ATOM     31  C   UNL     1       7.999   8.695  17.752  0.00  0.00    +0.000 A 
ATOM     32  C   UNL     1       8.556   8.128  18.872  0.00  0.00    +0.000 A 
ATOM     33  O   UNL     1       8.308   6.791  18.905  0.00  0.00    +0.000 OA
ENDBRANCH  28  29
ENDBRANCH  27  28
ENDBRANCH  22  23
ENDBRANCH   1  22
TORSDOF 9
ENDMDL
MODEL 6
REMARK VINA RESULT:      -8.3      2.503      3.449
REMARK  Name = 
REMARK  10 active torsions:
REMARK  status: ('A' for Active; 'I' for Inactive)
REMARK    1  A    between atoms: C_1  and  C_2
REMARK    2  A    between atoms: C_7  and  C_8
REMARK    3  A    between atoms: C_8  and  N_9
REMARK    4  A    between atoms: N_9  and  C_10
REMARK    5  A    between atoms: N_9  and  C_16
REMARK    6  A    between atoms: C_10  and  C_11
REMARK    7  A    between atoms: C_16  and  C_17
REMARK    8  A    between atoms: N_21  and  C_22
REMARK    9  A    between atoms: C_22  and  C_23
REMARK   10  A    between atoms: C_28  and  O_29
REMARK                            x       y       z     vdW  Elec       q    Type
REMARK                         _______ _______ _______ _____ _____    ______ ____
ROOT
ATOM      1  N   UNL     1       3.122   6.173  18.826  0.00  0.00    +0.000 NA
ENDROOT
BRANCH   1   2
ATOM      2  C   UNL     1       3.006   7.577  18.411  0.00  0.00    +0.000 C 
BRANCH   2   9
ATOM      3  C   UNL     1      -1.324  12.440  23.058  0.00  0.00    +0.000 C 
ATOM      4  C   UNL     1      -0.726  11.271  22.327  0.00  0.00    +0.000 A 
ATOM      5  C   UNL     1      -0.509  10.047  22.974  0.00  0.00    +0.000 A 
ATOM      6  C   UNL     1       0.136   9.003  22.298  0.00  0.00    +0.000 A 
ATOM      7  C   UNL     1       0.593   9.172  20.973  0.00  0.00    +0.000 A 
ATOM      8  C   UNL     1       1.369   8.191  20.309  0.00  0.00    +0.000 A 
ATOM      9  C   UNL     1       1.910   8.428  19.044  0.00  0.00    +0.000 A 
ATOM     10  C   UNL     1       1.533   9.645  18.484  0.00  0.00    +0.000 A 
ATOM     11  N   UNL     1       0.767  10.599  19.046  0.00  0.00    +0.000 NA
ATOM     12  C   UNL     1       0.338  10.380  20.300  0.00  0.00    +0.000 A 
ATOM     13  C   UNL     1      -0.328  11.397  20.989  0.00  0.00    +0.000 A 
BRANCH  10  14
ATOM     14  O   UNL     1       1.970  10.042  17.264  0.00  0.00    +0.000 OA
ATOM     15  H   UNL     1       2.520   9.260  17.054  0.00  0.00    +0.000 HD
ENDBRANCH  10  14
ENDBRANCH   2   9
ENDBRANCH   1   2
BRANCH   1  16
ATOM     16  C   UNL     1       2.085   5.226  18.405  0.00  0.00    +0.000 C 
BRANCH  16  17
ATOM     17  C   UNL     1       1.697   4.112  19.337  0.00  0.00    +0.000 A 
ATOM     18  C   UNL     1       1.106   4.108  20.589  0.00  0.00    +0.000 A 
ATOM     19  C   UNL     1       1.133   2.772  21.056  0.00  0.00    +0.000 A 
ATOM     20  C   UNL     1       1.771   2.043  20.080  0.00  0.00    +0.000 A 
ATOM     21  O   UNL     1       2.110   2.842  19.029  0.00  0.00    +0.000 OA
ENDBRANCH  16  17
ENDBRANCH   1  16
BRANCH   1  22
ATOM     22  C   UNL     1       4.473   5.621  19.086  0.00  0.00    +0.000 C 
BRANCH  22  23
ATOM     23  C   UNL     1       5.098   5.001  17.852  0.00  0.00    +0.000 A 
ATOM     24  N   UNL     1       4.421   4.336  16.928  0.00  0.00    +0.000 NA
ATOM     25  N   UNL     1       5.302   3.951  15.965  0.00  0.00    +0.000 NA
ATOM     26  N   UNL     1       6.518   4.378  16.244  0.00  0.00    +0.000 NA
ATOM     27  N   UNL     1       6.411   5.074  17.400  0.00  0.00    +0.000 N 
BRANCH  27  28
ATOM     28  C   UNL     1       7.647   5.536  18.012  0.00  0.00    +0.000 C 
BRANCH  28  29
ATOM     29  C   UNL     1       7.784   7.028  18.087  0.00  0.00    +0.000 A 
ATOM     30  C   UNL     1       7.313   8.074  17.310  0.00  0.00    +0.000 A 
ATOM     31  C   UNL     1       7.986   9.245  17.744  0.00  0.00    +0.000 A 
ATOM     32  C   UNL     1       8.780   8.857  18.796  0.00  0.00    +0.000 A 
ATOM     33  O   UNL     1       8.665   7.519  19.014  0.00  0.00    +0.000 OA
ENDBRANCH  28  29
ENDBRANCH  27  28
ENDBRANCH  22  23
ENDBRANCH   1  22
TORSDOF 9
ENDMDL
MODEL 7
REMARK VINA RESULT:      -8.2      2.020      2.979
REMARK  Name = 
REMARK  10 active torsions:
REMARK  status: ('A' for Active; 'I' for Inactive)
REMARK    1  A    between atoms: C_1  and  C_2
REMARK    2  A    between atoms: C_7  and  C_8
REMARK    3  A    between atoms: C_8  and  N_9
REMARK    4  A    between atoms: N_9  and  C_10
REMARK    5  A    between atoms: N_9  and  C_16
REMARK    6  A    between atoms: C_10  and  C_11
REMARK    7  A    between atoms: C_16  and  C_17
REMARK    8  A    between atoms: N_21  and  C_22
REMARK    9  A    between atoms: C_22  and  C_23
REMARK   10  A    between atoms: C_28  and  O_29
REMARK                            x       y       z     vdW  Elec       q    Type
REMARK                         _______ _______ _______ _____ _____    ______ ____
ROOT
ATOM      1  N   UNL     1       3.724   6.092  18.030  0.00  0.00    +0.000 NA
ENDROOT
BRANCH   1   2
ATOM      2  C   UNL     1       2.329   6.545  18.108  0.00  0.00    +0.000 C 
BRANCH   2   9
ATOM      3  C   UNL     1      -1.289  12.162  22.507  0.00  0.00    +0.000 C 
ATOM      4  C   UNL     1      -0.454  11.394  21.522  0.00  0.00    +0.000 A 
ATOM      5  C   UNL     1      -0.311  11.830  20.198  0.00  0.00    +0.000 A 
ATOM      6  C   UNL     1       0.395  11.048  19.275  0.00  0.00    +0.000 A 
ATOM      7  C   UNL     1       0.951   9.807  19.654  0.00  0.00    +0.000 A 
ATOM      8  C   UNL     1       1.548   8.928  18.718  0.00  0.00    +0.000 A 
ATOM      9  C   UNL     1       1.985   7.657  19.094  0.00  0.00    +0.000 A 
ATOM     10  C   UNL     1       1.870   7.396  20.457  0.00  0.00    +0.000 A 
ATOM     11  N   UNL     1       1.349   8.203  21.400  0.00  0.00    +0.000 NA
ATOM     12  C   UNL     1       0.854   9.383  20.991  0.00  0.00    +0.000 A 
ATOM     13  C   UNL     1       0.165  10.193  21.897  0.00  0.00    +0.000 A 
BRANCH  10  14
ATOM     14  O   UNL     1       2.239   6.209  20.997  0.00  0.00    +0.000 OA
ATOM     15  H   UNL     1       1.424   6.031  21.508  0.00  0.00    +0.000 HD
ENDBRANCH  10  14
ENDBRANCH   2   9
ENDBRANCH   1   2
BRANCH   1  16
ATOM     16  C   UNL     1       4.048   4.729  18.463  0.00  0.00    +0.000 C 
BRANCH  16  17
ATOM     17  C   UNL     1       2.925   3.762  18.715  0.00  0.00    +0.000 A 
ATOM     18  C   UNL     1       2.016   3.150  17.869  0.00  0.00    +0.000 A 
ATOM     19  C   UNL     1       1.085   2.466  18.688  0.00  0.00    +0.000 A 
ATOM     20  C   UNL     1       1.457   2.729  19.985  0.00  0.00    +0.000 A 
ATOM     21  O   UNL     1       2.576   3.506  20.015  0.00  0.00    +0.000 OA
ENDBRANCH  16  17
ENDBRANCH   1  16
BRANCH   1  22
ATOM     22  C   UNL     1       4.611   6.705  17.014  0.00  0.00    +0.000 C 
BRANCH  22  23
ATOM     23  C   UNL     1       5.703   5.762  16.546  0.00  0.00    +0.000 A 
ATOM     24  N   UNL     1       5.598   4.965  15.494  0.00  0.00    +0.000 NA
ATOM     25  N   UNL     1       6.773   4.290  15.367  0.00  0.00    +0.000 NA
ATOM     26  N   UNL     1       7.629   4.658  16.299  0.00  0.00    +0.000 NA
ATOM     27  N   UNL     1       6.999   5.610  17.026  0.00  0.00    +0.000 N 
BRANCH  27  28
ATOM     28  C   UNL     1       7.677   6.088  18.221  0.00  0.00    +0.000 C 
BRANCH  28  29
ATOM     29  C   UNL     1       7.938   7.565  18.238  0.00  0.00    +0.000 A 
ATOM     30  C   UNL     1       7.629   8.604  17.375  0.00  0.00    +0.000 A 
ATOM     31  C   UNL     1       8.364   9.735  17.811  0.00  0.00    +0.000 A 
ATOM     32  C   UNL     1       9.029   9.340  18.946  0.00  0.00    +0.000 A 
ATOM     33  O   UNL     1       8.778   8.030  19.215  0.00  0.00    +0.000 OA
ENDBRANCH  28  29
ENDBRANCH  27  28
ENDBRANCH  22  23
ENDBRANCH   1  22
TORSDOF 9
ENDMDL
MODEL 8
REMARK VINA RESULT:      -8.2      1.210      1.782
REMARK  Name = 
REMARK  10 active torsions:
REMARK  status: ('A' for Active; 'I' for Inactive)
REMARK    1  A    between atoms: C_1  and  C_2
REMARK    2  A    between atoms: C_7  and  C_8
REMARK    3  A    between atoms: C_8  and  N_9
REMARK    4  A    between atoms: N_9  and  C_10
REMARK    5  A    between atoms: N_9  and  C_16
REMARK    6  A    between atoms: C_10  and  C_11
REMARK    7  A    between atoms: C_16  and  C_17
REMARK    8  A    between atoms: N_21  and  C_22
REMARK    9  A    between atoms: C_22  and  C_23
REMARK   10  A    between atoms: C_28  and  O_29
REMARK                            x       y       z     vdW  Elec       q    Type
REMARK                         _______ _______ _______ _____ _____    ______ ____
ROOT
ATOM      1  N   UNL     1       2.679   6.142  17.809  0.00  0.00    +0.000 NA
ENDROOT
BRANCH   1   2
ATOM      2  C   UNL     1       2.563   7.600  17.675  0.00  0.00    +0.000 C 
BRANCH   2   9
ATOM      3  C   UNL     1      -1.837  11.357  23.201  0.00  0.00    +0.000 C 
ATOM      4  C   UNL     1      -0.924  10.990  22.065  0.00  0.00    +0.000 A 
ATOM      5  C   UNL     1      -0.944  11.704  20.859  0.00  0.00    +0.000 A 
ATOM      6  C   UNL     1      -0.151  11.284  19.783  0.00  0.00    +0.000 A 
ATOM      7  C   UNL     1       0.659  10.133  19.887  0.00  0.00    +0.000 A 
ATOM      8  C   UNL     1       1.364   9.601  18.781  0.00  0.00    +0.000 A 
ATOM      9  C   UNL     1       2.063   8.396  18.877  0.00  0.00    +0.000 A 
ATOM     10  C   UNL     1       2.078   7.848  20.156  0.00  0.00    +0.000 A 
ATOM     11  N   UNL     1       1.462   8.326  21.255  0.00  0.00    +0.000 NA
ATOM     12  C   UNL     1       0.723   9.437  21.108  0.00  0.00    +0.000 A 
ATOM     13  C   UNL     1      -0.060   9.890  22.173  0.00  0.00    +0.000 A 
BRANCH  10  14
ATOM     14  O   UNL     1       2.703   6.678  20.432  0.00  0.00    +0.000 OA
ATOM     15  H   UNL     1       2.263   6.124  19.755  0.00  0.00    +0.000 HD
ENDBRANCH  10  14
ENDBRANCH   2   9
ENDBRANCH   1   2
BRANCH   1  16
ATOM     16  C   UNL     1       1.457   5.351  17.985  0.00  0.00    +0.000 C 
BRANCH  16  17
ATOM     17  C   UNL     1       1.529   4.068  18.765  0.00  0.00    +0.000 A 
ATOM     18  C   UNL     1       1.624   2.743  18.374  0.00  0.00    +0.000 A 
ATOM     19  C   UNL     1       1.489   1.956  19.542  0.00  0.00    +0.000 A 
ATOM     20  C   UNL     1       1.284   2.840  20.573  0.00  0.00    +0.000 A 
ATOM     21  O   UNL     1       1.313   4.125  20.117  0.00  0.00    +0.000 OA
ENDBRANCH  16  17
ENDBRANCH   1  16
BRANCH   1  22
ATOM     22  C   UNL     1       3.836   5.464  17.177  0.00  0.00    +0.000 C 
BRANCH  22  23
ATOM     23  C   UNL     1       5.004   5.294  18.130  0.00  0.00    +0.000 A 
ATOM     24  N   UNL     1       4.884   4.937  19.399  0.00  0.00    +0.000 NA
ATOM     25  N   UNL     1       6.136   4.863  19.928  0.00  0.00    +0.000 NA
ATOM     26  N   UNL     1       7.048   5.140  19.017  0.00  0.00    +0.000 NA
ATOM     27  N   UNL     1       6.368   5.373  17.871  0.00  0.00    +0.000 N 
BRANCH  27  28
ATOM     28  C   UNL     1       7.135   5.848  16.730  0.00  0.00    +0.000 C 
BRANCH  28  29
ATOM     29  C   UNL     1       6.823   5.153  15.437  0.00  0.00    +0.000 A 
ATOM     30  C   UNL     1       6.060   4.046  15.104  0.00  0.00    +0.000 A 
ATOM     31  C   UNL     1       6.356   3.732  13.753  0.00  0.00    +0.000 A 
ATOM     32  C   UNL     1       7.232   4.698  13.324  0.00  0.00    +0.000 A 
ATOM     33  O   UNL     1       7.521   5.564  14.333  0.00  0.00    +0.000 OA
ENDBRANCH  28  29
ENDBRANCH  27  28
ENDBRANCH  22  23
ENDBRANCH   1  22
TORSDOF 9
ENDMDL
MODEL 9
REMARK VINA RESULT:      -8.2      1.150      1.402
REMARK  Name = 
REMARK  10 active torsions:
REMARK  status: ('A' for Active; 'I' for Inactive)
REMARK    1  A    between atoms: C_1  and  C_2
REMARK    2  A    between atoms: C_7  and  C_8
REMARK    3  A    between atoms: C_8  and  N_9
REMARK    4  A    between atoms: N_9  and  C_10
REMARK    5  A    between atoms: N_9  and  C_16
REMARK    6  A    between atoms: C_10  and  C_11
REMARK    7  A    between atoms: C_16  and  C_17
REMARK    8  A    between atoms: N_21  and  C_22
REMARK    9  A    between atoms: C_22  and  C_23
REMARK   10  A    between atoms: C_28  and  O_29
REMARK                            x       y       z     vdW  Elec       q    Type
REMARK                         _______ _______ _______ _____ _____    ______ ____
ROOT
ATOM      1  N   UNL     1       3.761   6.435  18.292  0.00  0.00    +0.000 NA
ENDROOT
BRANCH   1   2
ATOM      2  C   UNL     1       2.379   6.909  18.142  0.00  0.00    +0.000 C 
BRANCH   2   9
ATOM      3  C   UNL     1      -1.766  12.707  21.775  0.00  0.00    +0.000 C 
ATOM      4  C   UNL     1      -0.823  11.897  20.929  0.00  0.00    +0.000 A 
ATOM      5  C   UNL     1      -0.560  12.248  19.599  0.00  0.00    +0.000 A 
ATOM      6  C   UNL     1       0.249  11.425  18.804  0.00  0.00    +0.000 A 
ATOM      7  C   UNL     1       0.790  10.228  19.319  0.00  0.00    +0.000 A 
ATOM      8  C   UNL     1       1.494   9.305  18.509  0.00  0.00    +0.000 A 
ATOM      9  C   UNL     1       1.918   8.074  19.011  0.00  0.00    +0.000 A 
ATOM     10  C   UNL     1       1.674   7.901  20.371  0.00  0.00    +0.000 A 
ATOM     11  N   UNL     1       1.047   8.755  21.202  0.00  0.00    +0.000 NA
ATOM     12  C   UNL     1       0.571   9.891  20.667  0.00  0.00    +0.000 A 
ATOM     13  C   UNL     1      -0.220  10.741  21.445  0.00  0.00    +0.000 A 
BRANCH  10  14
ATOM     14  O   UNL     1       2.013   6.763  21.025  0.00  0.00    +0.000 OA
ATOM     15  H   UNL     1       1.733   6.123  20.339  0.00  0.00    +0.000 HD
ENDBRANCH  10  14
ENDBRANCH   2   9
ENDBRANCH   1   2
BRANCH   1  16
ATOM     16  C   UNL     1       4.004   5.192  19.032  0.00  0.00    +0.000 C 
BRANCH  16  17
ATOM     17  C   UNL     1       3.056   4.041  18.847  0.00  0.00    +0.000 A 
ATOM     18  C   UNL     1       2.110   3.469  19.681  0.00  0.00    +0.000 A 
ATOM     19  C   UNL     1       1.632   2.307  19.029  0.00  0.00    +0.000 A 
ATOM     20  C   UNL     1       2.336   2.216  17.853  0.00  0.00    +0.000 A 
ATOM     21  O   UNL     1       3.196   3.265  17.726  0.00  0.00    +0.000 OA
ENDBRANCH  16  17
ENDBRANCH   1  16
BRANCH   1  22
ATOM     22  C   UNL     1       4.753   6.807  17.255  0.00  0.00    +0.000 C 
BRANCH  22  23
ATOM     23  C   UNL     1       6.025   5.986  17.343  0.00  0.00    +0.000 A 
ATOM     24  N   UNL     1       7.027   6.249  18.167  0.00  0.00    +0.000 NA
ATOM     25  N   UNL     1       7.977   5.292  17.984  0.00  0.00    +0.000 NA
ATOM     26  N   UNL     1       7.590   4.413  17.081  0.00  0.00    +0.000 NA
ATOM     27  N   UNL     1       6.353   4.801  16.693  0.00  0.00    +0.000 N 
BRANCH  27  28
ATOM     28  C   UNL     1       5.749   4.076  15.585  0.00  0.00    +0.000 C 
BRANCH  28  29
ATOM     29  C   UNL     1       6.478   4.213  14.282  0.00  0.00    +0.000 A 
ATOM     30  C   UNL     1       7.377   5.140  13.779  0.00  0.00    +0.000 A 
ATOM     31  C   UNL     1       7.520   4.867  12.394  0.00  0.00    +0.000 A 
ATOM     32  C   UNL     1       6.750   3.756  12.147  0.00  0.00    +0.000 A 
ATOM     33  O   UNL     1       6.116   3.351  13.280  0.00  0.00    +0.000 OA
ENDBRANCH  28  29
ENDBRANCH  27  28
ENDBRANCH  22  23
ENDBRANCH   1  22
TORSDOF 9
ENDMDL
