MODEL 1
REMARK VINA RESULT:      -4.0      0.000      0.000
REMARK  Name = 
REMARK  4 active torsions:
REMARK  status: ('A' for Active; 'I' for Inactive)
REMARK    1  A    between atoms: C_1  and  O_2
REMARK    2  A    between atoms: O_2  and  C_3
REMARK    3  A    between atoms: C_3  and  C_5
REMARK    4  A    between atoms: C_6  and  C_7
REMARK                            x       y       z     vdW  Elec       q    Type
REMARK                         _______ _______ _______ _____ _____    ______ ____
ROOT
ATOM      1  C   UNL     1       7.195   4.680  16.506  0.00  0.00    +0.000 C 
ATOM      2  O   UNL     1       8.062   4.235  17.239  0.00  0.00    +0.000 OA
ENDROOT
BRANCH   1   4
ATOM      3  C   UNL     1       6.830   4.736  14.207  0.00  0.00    +0.000 C 
ATOM      4  O   UNL     1       7.384   5.376  15.357  0.00  0.00    +0.000 OA
ENDBRANCH   1   4
BRANCH   1   5
ATOM      5  C   UNL     1       5.739   4.550  16.731  0.00  0.00    +0.000 C 
ATOM      6  C   UNL     1       5.077   5.485  17.432  0.00  0.00    +0.000 C 
BRANCH   6   7
ATOM      7  C   UNL     1       3.603   5.448  17.698  0.00  0.00    +0.000 C 
ATOM      8  I   UNL     1       2.929   3.433  17.615  0.00  0.00    +0.000 I 
ENDBRANCH   6   7
ENDBRANCH   1   5
TORSDOF 3
ENDMDL
MODEL 2
REMARK VINA RESULT:      -3.9      1.243      1.254
REMARK  Name = 
REMARK  4 active torsions:
REMARK  status: ('A' for Active; 'I' for Inactive)
REMARK    1  A    between atoms: C_1  and  O_2
REMARK    2  A    between atoms: O_2  and  C_3
REMARK    3  A    between atoms: C_3  and  C_5
REMARK    4  A    between atoms: C_6  and  C_7
REMARK                            x       y       z     vdW  Elec       q    Type
REMARK                         _______ _______ _______ _____ _____    ______ ____
ROOT
ATOM      1  C   UNL     1       7.468   4.660  17.115  0.00  0.00    +0.000 C 
ATOM      2  O   UNL     1       8.331   4.098  17.767  0.00  0.00    +0.000 OA
ENDROOT
BRANCH   1   4
ATOM      3  C   UNL     1       6.402   4.089  15.125  0.00  0.00    +0.000 C 
ATOM      4  O   UNL     1       7.445   4.822  15.768  0.00  0.00    +0.000 OA
ENDBRANCH   1   4
BRANCH   1   5
ATOM      5  C   UNL     1       6.255   5.294  17.675  0.00  0.00    +0.000 C 
ATOM      6  C   UNL     1       5.612   4.730  18.710  0.00  0.00    +0.000 C 
BRANCH   6   7
ATOM      7  C   UNL     1       4.388   5.306  19.354  0.00  0.00    +0.000 C 
ATOM      8  I   UNL     1       2.684   4.806  18.183  0.00  0.00    +0.000 I 
ENDBRANCH   6   7
ENDBRANCH   1   5
TORSDOF 3
ENDMDL
MODEL 3
REMARK VINA RESULT:      -3.9      2.817      3.245
REMARK  Name = 
REMARK  4 active torsions:
REMARK  status: ('A' for Active; 'I' for Inactive)
REMARK    1  A    between atoms: C_1  and  O_2
REMARK    2  A    between atoms: O_2  and  C_3
REMARK    3  A    between atoms: C_3  and  C_5
REMARK    4  A    between atoms: C_6  and  C_7
REMARK                            x       y       z     vdW  Elec       q    Type
REMARK                         _______ _______ _______ _____ _____    ______ ____
ROOT
ATOM      1  C   UNL     1       7.627   5.908  18.997  0.00  0.00    +0.000 C 
ATOM      2  O   UNL     1       7.552   5.406  20.106  0.00  0.00    +0.000 OA
ENDROOT
BRANCH   1   4
ATOM      3  C   UNL     1       7.658   7.760  17.586  0.00  0.00    +0.000 C 
ATOM      4  O   UNL     1       8.268   7.058  18.670  0.00  0.00    +0.000 OA
ENDBRANCH   1   4
BRANCH   1   5
ATOM      5  C   UNL     1       7.018   5.355  17.768  0.00  0.00    +0.000 C 
ATOM      6  C   UNL     1       5.909   4.602  17.842  0.00  0.00    +0.000 C 
BRANCH   6   7
ATOM      7  C   UNL     1       5.212   4.013  16.654  0.00  0.00    +0.000 C 
ATOM      8  I   UNL     1       6.293   4.515  14.892  0.00  0.00    +0.000 I 
ENDBRANCH   6   7
ENDBRANCH   1   5
TORSDOF 3
ENDMDL
MODEL 4
REMARK VINA RESULT:      -3.8      1.616      2.016
REMARK  Name = 
REMARK  4 active torsions:
REMARK  status: ('A' for Active; 'I' for Inactive)
REMARK    1  A    between atoms: C_1  and  O_2
REMARK    2  A    between atoms: O_2  and  C_3
REMARK    3  A    between atoms: C_3  and  C_5
REMARK    4  A    between atoms: C_6  and  C_7
REMARK                            x       y       z     vdW  Elec       q    Type
REMARK                         _______ _______ _______ _____ _____    ______ ____
ROOT
ATOM      1  C   UNL     1       7.154   5.310  16.710  0.00  0.00    +0.000 C 
ATOM      2  O   UNL     1       7.914   4.371  16.877  0.00  0.00    +0.000 OA
ENDROOT
BRANCH   1   4
ATOM      3  C   UNL     1       7.561   7.433  17.572  0.00  0.00    +0.000 C 
ATOM      4  O   UNL     1       7.498   6.590  16.422  0.00  0.00    +0.000 OA
ENDBRANCH   1   4
BRANCH   1   5
ATOM      5  C   UNL     1       5.679   5.238  16.796  0.00  0.00    +0.000 C 
ATOM      6  C   UNL     1       5.073   4.073  17.077  0.00  0.00    +0.000 C 
BRANCH   6   7
ATOM      7  C   UNL     1       3.590   3.906  17.201  0.00  0.00    +0.000 C 
ATOM      8  I   UNL     1       2.796   5.530  18.321  0.00  0.00    +0.000 I 
ENDBRANCH   6   7
ENDBRANCH   1   5
TORSDOF 3
ENDMDL
MODEL 5
REMARK VINA RESULT:      -3.8      1.637      2.487
REMARK  Name = 
REMARK  4 active torsions:
REMARK  status: ('A' for Active; 'I' for Inactive)
REMARK    1  A    between atoms: C_1  and  O_2
REMARK    2  A    between atoms: O_2  and  C_3
REMARK    3  A    between atoms: C_3  and  C_5
REMARK    4  A    between atoms: C_6  and  C_7
REMARK                            x       y       z     vdW  Elec       q    Type
REMARK                         _______ _______ _______ _____ _____    ______ ____
ROOT
ATOM      1  C   UNL     1       7.158   4.689  17.101  0.00  0.00    +0.000 C 
ATOM      2  O   UNL     1       7.635   4.650  15.979  0.00  0.00    +0.000 OA
ENDROOT
BRANCH   1   4
ATOM      3  C   UNL     1       7.747   5.687  19.119  0.00  0.00    +0.000 C 
ATOM      4  O   UNL     1       7.825   4.541  18.272  0.00  0.00    +0.000 OA
ENDBRANCH   1   4
BRANCH   1   5
ATOM      5  C   UNL     1       5.728   4.903  17.411  0.00  0.00    +0.000 C 
ATOM      6  C   UNL     1       4.820   3.961  17.105  0.00  0.00    +0.000 C 
BRANCH   6   7
ATOM      7  C   UNL     1       3.355   4.080  17.395  0.00  0.00    +0.000 C 
ATOM      8  I   UNL     1       2.990   5.920  18.397  0.00  0.00    +0.000 I 
ENDBRANCH   6   7
ENDBRANCH   1   5
TORSDOF 3
ENDMDL
MODEL 6
REMARK VINA RESULT:      -3.8      1.511      1.933
REMARK  Name = 
REMARK  4 active torsions:
REMARK  status: ('A' for Active; 'I' for Inactive)
REMARK    1  A    between atoms: C_1  and  O_2
REMARK    2  A    between atoms: O_2  and  C_3
REMARK    3  A    between atoms: C_3  and  C_5
REMARK    4  A    between atoms: C_6  and  C_7
REMARK                            x       y       z     vdW  Elec       q    Type
REMARK                         _______ _______ _______ _____ _____    ______ ____
ROOT
ATOM      1  C   UNL     1       6.520   4.854  14.533  0.00  0.00    +0.000 C 
ATOM      2  O   UNL     1       7.639   5.297  14.337  0.00  0.00    +0.000 OA
ENDROOT
BRANCH   1   4
ATOM      3  C   UNL     1       6.453   3.618  12.561  0.00  0.00    +0.000 C 
ATOM      4  O   UNL     1       5.927   3.829  13.872  0.00  0.00    +0.000 OA
ENDBRANCH   1   4
BRANCH   1   5
ATOM      5  C   UNL     1       5.569   5.360  15.545  0.00  0.00    +0.000 C 
ATOM      6  C   UNL     1       4.891   4.503  16.325  0.00  0.00    +0.000 C 
BRANCH   6   7
ATOM      7  C   UNL     1       3.920   4.921  17.387  0.00  0.00    +0.000 C 
ATOM      8  I   UNL     1       2.572   3.321  17.770  0.00  0.00    +0.000 I 
ENDBRANCH   6   7
ENDBRANCH   1   5
TORSDOF 3
ENDMDL
MODEL 7
REMARK VINA RESULT:      -3.7      1.561      1.642
REMARK  Name = 
REMARK  4 active torsions:
REMARK  status: ('A' for Active; 'I' for Inactive)
REMARK    1  A    between atoms: C_1  and  O_2
REMARK    2  A    between atoms: O_2  and  C_3
REMARK    3  A    between atoms: C_3  and  C_5
REMARK    4  A    between atoms: C_6  and  C_7
REMARK                            x       y       z     vdW  Elec       q    Type
REMARK                         _______ _______ _______ _____ _____    ______ ____
ROOT
ATOM      1  C   UNL     1       6.645   4.549  17.674  0.00  0.00    +0.000 C 
ATOM      2  O   UNL     1       6.858   4.670  18.869  0.00  0.00    +0.000 OA
ENDROOT
BRANCH   1   4
ATOM      3  C   UNL     1       6.994   4.700  15.378  0.00  0.00    +0.000 C 
ATOM      4  O   UNL     1       7.567   4.578  16.680  0.00  0.00    +0.000 OA
ENDBRANCH   1   4
BRANCH   1   5
ATOM      5  C   UNL     1       5.314   4.350  17.062  0.00  0.00    +0.000 C 
ATOM      6  C   UNL     1       4.338   3.736  17.749  0.00  0.00    +0.000 C 
BRANCH   6   7
ATOM      7  C   UNL     1       2.956   3.503  17.219  0.00  0.00    +0.000 C 
ATOM      8  I   UNL     1       1.763   2.623  18.745  0.00  0.00    +0.000 I 
ENDBRANCH   6   7
ENDBRANCH   1   5
TORSDOF 3
ENDMDL
MODEL 8
REMARK VINA RESULT:      -3.7      1.206      2.085
REMARK  Name = 
REMARK  4 active torsions:
REMARK  status: ('A' for Active; 'I' for Inactive)
REMARK    1  A    between atoms: C_1  and  O_2
REMARK    2  A    between atoms: O_2  and  C_3
REMARK    3  A    between atoms: C_3  and  C_5
REMARK    4  A    between atoms: C_6  and  C_7
REMARK                            x       y       z     vdW  Elec       q    Type
REMARK                         _______ _______ _______ _____ _____    ______ ____
ROOT
ATOM      1  C   UNL     1       6.808   4.402  15.988  0.00  0.00    +0.000 C 
ATOM      2  O   UNL     1       6.774   4.268  14.777  0.00  0.00    +0.000 OA
ENDROOT
BRANCH   1   4
ATOM      3  C   UNL     1       7.683   4.939  18.078  0.00  0.00    +0.000 C 
ATOM      4  O   UNL     1       7.914   4.406  16.773  0.00  0.00    +0.000 OA
ENDBRANCH   1   4
BRANCH   1   5
ATOM      5  C   UNL     1       5.626   4.584  16.859  0.00  0.00    +0.000 C 
ATOM      6  C   UNL     1       4.469   3.970  16.565  0.00  0.00    +0.000 C 
BRANCH   6   7
ATOM      7  C   UNL     1       3.226   4.080  17.394  0.00  0.00    +0.000 C 
ATOM      8  I   UNL     1       2.874   2.226  18.374  0.00  0.00    +0.000 I 
ENDBRANCH   6   7
ENDBRANCH   1   5
TORSDOF 3
ENDMDL
MODEL 9
REMARK VINA RESULT:      -3.7      1.697      2.006
REMARK  Name = 
REMARK  4 active torsions:
REMARK  status: ('A' for Active; 'I' for Inactive)
REMARK    1  A    between atoms: C_1  and  O_2
REMARK    2  A    between atoms: O_2  and  C_3
REMARK    3  A    between atoms: C_3  and  C_5
REMARK    4  A    between atoms: C_6  and  C_7
REMARK                            x       y       z     vdW  Elec       q    Type
REMARK                         _______ _______ _______ _____ _____    ______ ____
ROOT
ATOM      1  C   UNL     1       6.589   4.749  14.677  0.00  0.00    +0.000 C 
ATOM      2  O   UNL     1       7.630   5.370  14.547  0.00  0.00    +0.000 OA
ENDROOT
BRANCH   1   4
ATOM      3  C   UNL     1       6.449   3.687  12.609  0.00  0.00    +0.000 C 
ATOM      4  O   UNL     1       6.232   3.617  14.019  0.00  0.00    +0.000 OA
ENDBRANCH   1   4
BRANCH   1   5
ATOM      5  C   UNL     1       5.484   5.117  15.589  0.00  0.00    +0.000 C 
ATOM      6  C   UNL     1       5.499   6.299  16.226  0.00  0.00    +0.000 C 
BRANCH   6   7
ATOM      7  C   UNL     1       4.420   6.766  17.154  0.00  0.00    +0.000 C 
ATOM      8  I   UNL     1       3.423   5.075  17.973  0.00  0.00    +0.000 I 
ENDBRANCH   6   7
ENDBRANCH   1   5
TORSDOF 3
ENDMDL
