MODEL 1
REMARK VINA RESULT:      -8.9      0.000      0.000
REMARK  Name = 
REMARK  5 active torsions:
REMARK  status: ('A' for Active; 'I' for Inactive)
REMARK    1  A    between atoms: C_4  and  C_5
REMARK    2  A    between atoms: C_5  and  N_6
REMARK    3  A    between atoms: C_8  and  C_9
REMARK    4  A    between atoms: N_21  and  C_22
REMARK    5  A    between atoms: C_22  and  C_23
REMARK                            x       y       z     vdW  Elec       q    Type
REMARK                         _______ _______ _______ _____ _____    ______ ____
ROOT
ATOM      1  O   UNL     1      -1.756   9.654  16.668  0.00  0.00    +0.000 OA
ATOM      2  C   UNL     1      -1.865  10.126  17.786  0.00  0.00    +0.000 C 
ATOM      3  O   UNL     1      -1.104   9.747  18.845  0.00  0.00    +0.000 OA
ATOM      4  C   UNL     1       0.026  10.555  19.298  0.00  0.00    +0.000 C 
ATOM      5  C   UNL     1      -0.173  12.073  19.149  0.00  0.00    +0.000 C 
ATOM      6  C   UNL     1      -1.499  12.524  19.650  0.00  0.00    +0.000 A 
ATOM      7  C   UNL     1      -1.819  13.461  20.602  0.00  0.00    +0.000 A 
ATOM      8  N   UNL     1      -3.190  13.620  20.599  0.00  0.00    +0.000 N 
ATOM      9  C   UNL     1      -3.764  12.755  19.686  0.00  0.00    +0.000 A 
ATOM     10  C   UNL     1      -5.093  12.539  19.282  0.00  0.00    +0.000 A 
ATOM     11  C   UNL     1      -5.335  11.543  18.320  0.00  0.00    +0.000 A 
ATOM     12  C   UNL     1      -4.302  10.758  17.805  0.00  0.00    +0.000 A 
ATOM     13  C   UNL     1      -2.991  10.973  18.235  0.00  0.00    +0.000 A 
ATOM     14  C   UNL     1      -2.720  12.008  19.145  0.00  0.00    +0.000 A 
ENDROOT
BRANCH   4  15
ATOM     15  C   UNL     1       1.298  10.133  18.563  0.00  0.00    +0.000 C 
BRANCH  15  16
ATOM     16  N   UNL     1       1.716   8.798  18.925  0.00  0.00    +0.000 N 
ATOM     17  C   UNL     1       2.243   7.852  18.101  0.00  0.00    +0.000 A 
ATOM     18  C   UNL     1       2.402   6.759  18.916  0.00  0.00    +0.000 A 
ATOM     19  N   UNL     1       2.045   7.097  20.200  0.00  0.00    +0.000 NA
ATOM     20  N   UNL     1       1.617   8.357  20.191  0.00  0.00    +0.000 NA
BRANCH  18  21
ATOM     21  C   UNL     1       2.859   5.452  18.503  0.00  0.00    +0.000 A 
ATOM     22  C   UNL     1       2.018   4.617  17.758  0.00  0.00    +0.000 A 
ATOM     23  C   UNL     1       2.460   3.355  17.344  0.00  0.00    +0.000 A 
ATOM     24  C   UNL     1       3.746   2.920  17.667  0.00  0.00    +0.000 A 
ATOM     25  C   UNL     1       4.589   3.742  18.408  0.00  0.00    +0.000 A 
ATOM     26  C   UNL     1       4.145   4.997  18.821  0.00  0.00    +0.000 A 
ATOM     27  F   UNL     1       4.999   5.762  19.518  0.00  0.00    +0.000 F 
ENDBRANCH  18  21
ENDBRANCH  15  16
ENDBRANCH   4  15
BRANCH   8  28
ATOM     28  C   UNL     1      -3.903  14.503  21.515  0.00  0.00    +0.000 C 
BRANCH  28  29
ATOM     29  C   UNL     1      -4.532  13.766  22.673  0.00  0.00    +0.000 A 
ATOM     30  C   UNL     1      -5.924  13.619  22.743  0.00  0.00    +0.000 A 
ATOM     31  C   UNL     1      -6.509  12.859  23.758  0.00  0.00    +0.000 A 
ATOM     32  C   UNL     1      -5.710  12.243  24.720  0.00  0.00    +0.000 A 
ATOM     33  C   UNL     1      -4.328  12.398  24.676  0.00  0.00    +0.000 A 
ATOM     34  C   UNL     1      -3.742  13.153  23.658  0.00  0.00    +0.000 A 
ENDBRANCH  28  29
ENDBRANCH   8  28
TORSDOF 5
ENDMDL
MODEL 2
REMARK VINA RESULT:      -8.8      0.820      1.426
REMARK  Name = 
REMARK  5 active torsions:
REMARK  status: ('A' for Active; 'I' for Inactive)
REMARK    1  A    between atoms: C_4  and  C_5
REMARK    2  A    between atoms: C_5  and  N_6
REMARK    3  A    between atoms: C_8  and  C_9
REMARK    4  A    between atoms: N_21  and  C_22
REMARK    5  A    between atoms: C_22  and  C_23
REMARK                            x       y       z     vdW  Elec       q    Type
REMARK                         _______ _______ _______ _____ _____    ______ ____
ROOT
ATOM      1  O   UNL     1      -1.778   9.644  16.511  0.00  0.00    +0.000 OA
ATOM      2  C   UNL     1      -1.885  10.096  17.638  0.00  0.00    +0.000 C 
ATOM      3  O   UNL     1      -1.101   9.722  18.681  0.00  0.00    +0.000 OA
ATOM      4  C   UNL     1       0.012  10.552  19.133  0.00  0.00    +0.000 C 
ATOM      5  C   UNL     1      -0.228  12.066  19.010  0.00  0.00    +0.000 C 
ATOM      6  C   UNL     1      -1.559  12.474  19.534  0.00  0.00    +0.000 A 
ATOM      7  C   UNL     1      -1.892  13.387  20.504  0.00  0.00    +0.000 A 
ATOM      8  N   UNL     1      -3.266  13.511  20.521  0.00  0.00    +0.000 N 
ATOM      9  C   UNL     1      -3.829  12.644  19.602  0.00  0.00    +0.000 A 
ATOM     10  C   UNL     1      -5.156  12.400  19.210  0.00  0.00    +0.000 A 
ATOM     11  C   UNL     1      -5.385  11.411  18.237  0.00  0.00    +0.000 A 
ATOM     12  C   UNL     1      -4.338  10.662  17.696  0.00  0.00    +0.000 A 
ATOM     13  C   UNL     1      -3.027  10.906  18.114  0.00  0.00    +0.000 A 
ATOM     14  C   UNL     1      -2.773  11.934  19.036  0.00  0.00    +0.000 A 
ENDROOT
BRANCH   4  15
ATOM     15  C   UNL     1       1.286  10.175  18.375  0.00  0.00    +0.000 C 
BRANCH  15  16
ATOM     16  N   UNL     1       1.767   8.863  18.742  0.00  0.00    +0.000 N 
ATOM     17  C   UNL     1       2.376   7.957  17.930  0.00  0.00    +0.000 A 
ATOM     18  C   UNL     1       2.568   6.866  18.741  0.00  0.00    +0.000 A 
ATOM     19  N   UNL     1       2.147   7.171  20.014  0.00  0.00    +0.000 NA
ATOM     20  N   UNL     1       1.648   8.404  20.000  0.00  0.00    +0.000 NA
BRANCH  18  21
ATOM     21  C   UNL     1       3.113   5.592  18.334  0.00  0.00    +0.000 A 
ATOM     22  C   UNL     1       4.453   5.284  18.599  0.00  0.00    +0.000 A 
ATOM     23  C   UNL     1       4.982   4.045  18.219  0.00  0.00    +0.000 A 
ATOM     24  C   UNL     1       4.178   3.104  17.575  0.00  0.00    +0.000 A 
ATOM     25  C   UNL     1       2.845   3.401  17.307  0.00  0.00    +0.000 A 
ATOM     26  C   UNL     1       2.322   4.636  17.685  0.00  0.00    +0.000 A 
ATOM     27  F   UNL     1       1.027   4.871  17.421  0.00  0.00    +0.000 F 
ENDBRANCH  18  21
ENDBRANCH  15  16
ENDBRANCH   4  15
BRANCH   8  28
ATOM     28  C   UNL     1      -3.990  14.360  21.459  0.00  0.00    +0.000 C 
BRANCH  28  29
ATOM     29  C   UNL     1      -4.611  13.585  22.597  0.00  0.00    +0.000 A 
ATOM     30  C   UNL     1      -3.799  12.996  23.575  0.00  0.00    +0.000 A 
ATOM     31  C   UNL     1      -4.366  12.359  24.681  0.00  0.00    +0.000 A 
ATOM     32  C   UNL     1      -5.751  12.297  24.819  0.00  0.00    +0.000 A 
ATOM     33  C   UNL     1      -6.571  12.858  23.845  0.00  0.00    +0.000 A 
ATOM     34  C   UNL     1      -6.005  13.500  22.742  0.00  0.00    +0.000 A 
ENDBRANCH  28  29
ENDBRANCH   8  28
TORSDOF 5
ENDMDL
MODEL 3
REMARK VINA RESULT:      -8.5      1.442      1.897
REMARK  Name = 
REMARK  5 active torsions:
REMARK  status: ('A' for Active; 'I' for Inactive)
REMARK    1  A    between atoms: C_4  and  C_5
REMARK    2  A    between atoms: C_5  and  N_6
REMARK    3  A    between atoms: C_8  and  C_9
REMARK    4  A    between atoms: N_21  and  C_22
REMARK    5  A    between atoms: C_22  and  C_23
REMARK                            x       y       z     vdW  Elec       q    Type
REMARK                         _______ _______ _______ _____ _____    ______ ____
ROOT
ATOM      1  O   UNL     1      -2.213  11.087  16.315  0.00  0.00    +0.000 OA
ATOM      2  C   UNL     1      -2.427  11.004  17.511  0.00  0.00    +0.000 C 
ATOM      3  O   UNL     1      -1.767  10.156  18.341  0.00  0.00    +0.000 OA
ATOM      4  C   UNL     1      -0.686  10.624  19.206  0.00  0.00    +0.000 C 
ATOM      5  C   UNL     1      -0.874  12.051  19.748  0.00  0.00    +0.000 C 
ATOM      6  C   UNL     1      -2.242  12.279  20.286  0.00  0.00    +0.000 A 
ATOM      7  C   UNL     1      -2.652  12.694  21.529  0.00  0.00    +0.000 A 
ATOM      8  N   UNL     1      -4.016  12.892  21.485  0.00  0.00    +0.000 N 
ATOM      9  C   UNL     1      -4.502  12.559  20.233  0.00  0.00    +0.000 A 
ATOM     10  C   UNL     1      -5.786  12.604  19.665  0.00  0.00    +0.000 A 
ATOM     11  C   UNL     1      -5.935  12.163  18.338  0.00  0.00    +0.000 A 
ATOM     12  C   UNL     1      -4.856  11.657  17.611  0.00  0.00    +0.000 A 
ATOM     13  C   UNL     1      -3.591  11.600  18.201  0.00  0.00    +0.000 A 
ATOM     14  C   UNL     1      -3.410  12.098  19.501  0.00  0.00    +0.000 A 
ENDROOT
BRANCH   4  15
ATOM     15  C   UNL     1       0.650  10.531  18.469  0.00  0.00    +0.000 C 
BRANCH  15  16
ATOM     16  N   UNL     1       1.317   9.273  18.713  0.00  0.00    +0.000 N 
ATOM     17  C   UNL     1       1.904   8.464  17.789  0.00  0.00    +0.000 A 
ATOM     18  C   UNL     1       2.324   7.381  18.521  0.00  0.00    +0.000 A 
ATOM     19  N   UNL     1       2.051   7.602  19.851  0.00  0.00    +0.000 NA
ATOM     20  N   UNL     1       1.423   8.771  19.955  0.00  0.00    +0.000 NA
BRANCH  18  21
ATOM     21  C   UNL     1       2.943   6.188  17.993  0.00  0.00    +0.000 A 
ATOM     22  C   UNL     1       2.226   4.987  17.943  0.00  0.00    +0.000 A 
ATOM     23  C   UNL     1       2.817   3.831  17.420  0.00  0.00    +0.000 A 
ATOM     24  C   UNL     1       4.126   3.867  16.939  0.00  0.00    +0.000 A 
ATOM     25  C   UNL     1       4.848   5.056  16.985  0.00  0.00    +0.000 A 
ATOM     26  C   UNL     1       4.257   6.204  17.509  0.00  0.00    +0.000 A 
ATOM     27  F   UNL     1       4.986   7.331  17.517  0.00  0.00    +0.000 F 
ENDBRANCH  18  21
ENDBRANCH  15  16
ENDBRANCH   4  15
BRANCH   8  28
ATOM     28  C   UNL     1      -4.814  13.291  22.639  0.00  0.00    +0.000 C 
BRANCH  28  29
ATOM     29  C   UNL     1      -4.153  14.363  23.470  0.00  0.00    +0.000 A 
ATOM     30  C   UNL     1      -3.525  14.032  24.679  0.00  0.00    +0.000 A 
ATOM     31  C   UNL     1      -2.830  15.000  25.408  0.00  0.00    +0.000 A 
ATOM     32  C   UNL     1      -2.759  16.311  24.941  0.00  0.00    +0.000 A 
ATOM     33  C   UNL     1      -3.395  16.660  23.754  0.00  0.00    +0.000 A 
ATOM     34  C   UNL     1      -4.086  15.692  23.022  0.00  0.00    +0.000 A 
ENDBRANCH  28  29
ENDBRANCH   8  28
TORSDOF 5
ENDMDL
MODEL 4
REMARK VINA RESULT:      -8.4      1.924      2.360
REMARK  Name = 
REMARK  5 active torsions:
REMARK  status: ('A' for Active; 'I' for Inactive)
REMARK    1  A    between atoms: C_4  and  C_5
REMARK    2  A    between atoms: C_5  and  N_6
REMARK    3  A    between atoms: C_8  and  C_9
REMARK    4  A    between atoms: N_21  and  C_22
REMARK    5  A    between atoms: C_22  and  C_23
REMARK                            x       y       z     vdW  Elec       q    Type
REMARK                         _______ _______ _______ _____ _____    ______ ____
ROOT
ATOM      1  O   UNL     1      -1.928  11.558  17.293  0.00  0.00    +0.000 OA
ATOM      2  C   UNL     1      -2.007  11.329  18.486  0.00  0.00    +0.000 C 
ATOM      3  O   UNL     1      -1.367  10.303  19.104  0.00  0.00    +0.000 OA
ATOM      4  C   UNL     1      -0.141  10.520  19.868  0.00  0.00    +0.000 C 
ATOM      5  C   UNL     1      -0.080  11.866  20.610  0.00  0.00    +0.000 C 
ATOM      6  C   UNL     1      -1.335  12.163  21.351  0.00  0.00    +0.000 A 
ATOM      7  C   UNL     1      -1.538  12.439  22.681  0.00  0.00    +0.000 A 
ATOM      8  N   UNL     1      -2.862  12.791  22.847  0.00  0.00    +0.000 N 
ATOM      9  C   UNL     1      -3.530  12.695  21.640  0.00  0.00    +0.000 A 
ATOM     10  C   UNL     1      -4.856  12.963  21.260  0.00  0.00    +0.000 A 
ATOM     11  C   UNL     1      -5.217  12.735  19.920  0.00  0.00    +0.000 A 
ATOM     12  C   UNL     1      -4.305  12.223  18.995  0.00  0.00    +0.000 A 
ATOM     13  C   UNL     1      -2.997  11.944  19.397  0.00  0.00    +0.000 A 
ATOM     14  C   UNL     1      -2.601  12.227  20.714  0.00  0.00    +0.000 A 
ENDROOT
BRANCH   4  15
ATOM     15  C   UNL     1       1.076  10.387  18.953  0.00  0.00    +0.000 C 
BRANCH  15  16
ATOM     16  N   UNL     1       1.664   9.070  19.021  0.00  0.00    +0.000 N 
ATOM     17  C   UNL     1       2.334   8.419  18.031  0.00  0.00    +0.000 A 
ATOM     18  C   UNL     1       2.623   7.194  18.581  0.00  0.00    +0.000 A 
ATOM     19  N   UNL     1       2.195   7.174  19.888  0.00  0.00    +0.000 NA
ATOM     20  N   UNL     1       1.598   8.335  20.145  0.00  0.00    +0.000 NA
BRANCH  18  21
ATOM     21  C   UNL     1       3.263   6.090  17.905  0.00  0.00    +0.000 A 
ATOM     22  C   UNL     1       4.526   6.258  17.326  0.00  0.00    +0.000 A 
ATOM     23  C   UNL     1       5.156   5.187  16.680  0.00  0.00    +0.000 A 
ATOM     24  C   UNL     1       4.531   3.941  16.612  0.00  0.00    +0.000 A 
ATOM     25  C   UNL     1       3.275   3.765  17.184  0.00  0.00    +0.000 A 
ATOM     26  C   UNL     1       2.650   4.833  17.823  0.00  0.00    +0.000 A 
ATOM     27  F   UNL     1       1.447   4.611  18.376  0.00  0.00    +0.000 F 
ENDBRANCH  18  21
ENDBRANCH  15  16
ENDBRANCH   4  15
BRANCH   8  28
ATOM     28  C   UNL     1      -3.460  13.105  24.139  0.00  0.00    +0.000 C 
BRANCH  28  29
ATOM     29  C   UNL     1      -3.482  14.585  24.434  0.00  0.00    +0.000 A 
ATOM     30  C   UNL     1      -4.636  15.339  24.177  0.00  0.00    +0.000 A 
ATOM     31  C   UNL     1      -4.698  16.687  24.535  0.00  0.00    +0.000 A 
ATOM     32  C   UNL     1      -3.607  17.300  25.147  0.00  0.00    +0.000 A 
ATOM     33  C   UNL     1      -2.447  16.571  25.389  0.00  0.00    +0.000 A 
ATOM     34  C   UNL     1      -2.385  15.221  25.037  0.00  0.00    +0.000 A 
ENDBRANCH  28  29
ENDBRANCH   8  28
TORSDOF 5
ENDMDL
MODEL 5
REMARK VINA RESULT:      -8.4      1.501      1.907
REMARK  Name = 
REMARK  5 active torsions:
REMARK  status: ('A' for Active; 'I' for Inactive)
REMARK    1  A    between atoms: C_4  and  C_5
REMARK    2  A    between atoms: C_5  and  N_6
REMARK    3  A    between atoms: C_8  and  C_9
REMARK    4  A    between atoms: N_21  and  C_22
REMARK    5  A    between atoms: C_22  and  C_23
REMARK                            x       y       z     vdW  Elec       q    Type
REMARK                         _______ _______ _______ _____ _____    ______ ____
ROOT
ATOM      1  O   UNL     1      -2.214  10.859  16.156  0.00  0.00    +0.000 OA
ATOM      2  C   UNL     1      -2.501  10.835  17.340  0.00  0.00    +0.000 C 
ATOM      3  O   UNL     1      -1.841  10.090  18.264  0.00  0.00    +0.000 OA
ATOM      4  C   UNL     1      -0.855  10.688  19.161  0.00  0.00    +0.000 C 
ATOM      5  C   UNL     1      -1.177  12.129  19.594  0.00  0.00    +0.000 C 
ATOM      6  C   UNL     1      -2.590  12.289  20.030  0.00  0.00    +0.000 A 
ATOM      7  C   UNL     1      -3.109  12.749  21.215  0.00  0.00    +0.000 A 
ATOM      8  N   UNL     1      -4.479  12.844  21.072  0.00  0.00    +0.000 N 
ATOM      9  C   UNL     1      -4.855  12.399  19.818  0.00  0.00    +0.000 A 
ATOM     10  C   UNL     1      -6.098  12.315  19.169  0.00  0.00    +0.000 A 
ATOM     11  C   UNL     1      -6.129  11.782  17.868  0.00  0.00    +0.000 A 
ATOM     12  C   UNL     1      -4.971  11.312  17.245  0.00  0.00    +0.000 A 
ATOM     13  C   UNL     1      -3.748  11.385  17.914  0.00  0.00    +0.000 A 
ATOM     14  C   UNL     1      -3.688  11.975  19.188  0.00  0.00    +0.000 A 
ENDROOT
BRANCH   4  15
ATOM     15  C   UNL     1       0.530  10.648  18.516  0.00  0.00    +0.000 C 
BRANCH  15  16
ATOM     16  N   UNL     1       1.208   9.397  18.766  0.00  0.00    +0.000 N 
ATOM     17  C   UNL     1       1.792   8.583  17.845  0.00  0.00    +0.000 A 
ATOM     18  C   UNL     1       2.226   7.510  18.585  0.00  0.00    +0.000 A 
ATOM     19  N   UNL     1       1.964   7.742  19.914  0.00  0.00    +0.000 NA
ATOM     20  N   UNL     1       1.330   8.908  20.012  0.00  0.00    +0.000 NA
BRANCH  18  21
ATOM     21  C   UNL     1       2.849   6.316  18.062  0.00  0.00    +0.000 A 
ATOM     22  C   UNL     1       2.143   5.108  18.040  0.00  0.00    +0.000 A 
ATOM     23  C   UNL     1       2.737   3.950  17.523  0.00  0.00    +0.000 A 
ATOM     24  C   UNL     1       4.038   3.993  17.021  0.00  0.00    +0.000 A 
ATOM     25  C   UNL     1       4.749   5.189  17.039  0.00  0.00    +0.000 A 
ATOM     26  C   UNL     1       4.155   6.338  17.557  0.00  0.00    +0.000 A 
ATOM     27  F   UNL     1       4.872   7.473  17.537  0.00  0.00    +0.000 F 
ENDBRANCH  18  21
ENDBRANCH  15  16
ENDBRANCH   4  15
BRANCH   8  28
ATOM     28  C   UNL     1      -5.377  13.254  22.145  0.00  0.00    +0.000 C 
BRANCH  28  29
ATOM     29  C   UNL     1      -5.180  14.691  22.562  0.00  0.00    +0.000 A 
ATOM     30  C   UNL     1      -5.348  15.726  21.631  0.00  0.00    +0.000 A 
ATOM     31  C   UNL     1      -5.262  17.062  22.028  0.00  0.00    +0.000 A 
ATOM     32  C   UNL     1      -4.999  17.380  23.359  0.00  0.00    +0.000 A 
ATOM     33  C   UNL     1      -4.808  16.365  24.291  0.00  0.00    +0.000 A 
ATOM     34  C   UNL     1      -4.900  15.029  23.896  0.00  0.00    +0.000 A 
ENDBRANCH  28  29
ENDBRANCH   8  28
TORSDOF 5
ENDMDL
MODEL 6
REMARK VINA RESULT:      -8.4      1.497      2.035
REMARK  Name = 
REMARK  5 active torsions:
REMARK  status: ('A' for Active; 'I' for Inactive)
REMARK    1  A    between atoms: C_4  and  C_5
REMARK    2  A    between atoms: C_5  and  N_6
REMARK    3  A    between atoms: C_8  and  C_9
REMARK    4  A    between atoms: N_21  and  C_22
REMARK    5  A    between atoms: C_22  and  C_23
REMARK                            x       y       z     vdW  Elec       q    Type
REMARK                         _______ _______ _______ _____ _____    ______ ____
ROOT
ATOM      1  O   UNL     1      -2.097  10.708  16.301  0.00  0.00    +0.000 OA
ATOM      2  C   UNL     1      -2.314  10.749  17.499  0.00  0.00    +0.000 C 
ATOM      3  O   UNL     1      -1.598  10.056  18.422  0.00  0.00    +0.000 OA
ATOM      4  C   UNL     1      -0.564  10.703  19.225  0.00  0.00    +0.000 C 
ATOM      5  C   UNL     1      -0.865  12.165  19.598  0.00  0.00    +0.000 C 
ATOM      6  C   UNL     1      -2.251  12.347  20.106  0.00  0.00    +0.000 A 
ATOM      7  C   UNL     1      -2.702  12.872  21.292  0.00  0.00    +0.000 A 
ATOM      8  N   UNL     1      -4.078  12.958  21.225  0.00  0.00    +0.000 N 
ATOM      9  C   UNL     1      -4.525  12.445  20.022  0.00  0.00    +0.000 A 
ATOM     10  C   UNL     1      -5.804  12.324  19.452  0.00  0.00    +0.000 A 
ATOM     11  C   UNL     1      -5.908  11.721  18.186  0.00  0.00    +0.000 A 
ATOM     12  C   UNL     1      -4.787  11.219  17.522  0.00  0.00    +0.000 A 
ATOM     13  C   UNL     1      -3.527  11.329  18.114  0.00  0.00    +0.000 A 
ATOM     14  C   UNL     1      -3.395  11.987  19.348  0.00  0.00    +0.000 A 
ENDROOT
BRANCH   4  15
ATOM     15  C   UNL     1       0.782  10.629  18.504  0.00  0.00    +0.000 C 
BRANCH  15  16
ATOM     16  N   UNL     1       1.434   9.355  18.703  0.00  0.00    +0.000 N 
ATOM     17  C   UNL     1       2.100   8.620  17.772  0.00  0.00    +0.000 A 
ATOM     18  C   UNL     1       2.464   7.483  18.450  0.00  0.00    +0.000 A 
ATOM     19  N   UNL     1       2.081   7.600  19.765  0.00  0.00    +0.000 NA
ATOM     20  N   UNL     1       1.440   8.757  19.908  0.00  0.00    +0.000 NA
BRANCH  18  21
ATOM     21  C   UNL     1       3.132   6.335  17.883  0.00  0.00    +0.000 A 
ATOM     22  C   UNL     1       4.372   6.484  17.252  0.00  0.00    +0.000 A 
ATOM     23  C   UNL     1       5.030   5.372  16.712  0.00  0.00    +0.000 A 
ATOM     24  C   UNL     1       4.456   4.103  16.803  0.00  0.00    +0.000 A 
ATOM     25  C   UNL     1       3.223   3.945  17.429  0.00  0.00    +0.000 A 
ATOM     26  C   UNL     1       2.570   5.054  17.962  0.00  0.00    +0.000 A 
ATOM     27  F   UNL     1       1.392   4.850  18.571  0.00  0.00    +0.000 F 
ENDBRANCH  18  21
ENDBRANCH  15  16
ENDBRANCH   4  15
BRANCH   8  28
ATOM     28  C   UNL     1      -4.913  13.425  22.325  0.00  0.00    +0.000 C 
BRANCH  28  29
ATOM     29  C   UNL     1      -4.200  14.393  23.238  0.00  0.00    +0.000 A 
ATOM     30  C   UNL     1      -3.688  13.956  24.467  0.00  0.00    +0.000 A 
ATOM     31  C   UNL     1      -2.944  14.820  25.275  0.00  0.00    +0.000 A 
ATOM     32  C   UNL     1      -2.709  16.131  24.867  0.00  0.00    +0.000 A 
ATOM     33  C   UNL     1      -3.230  16.586  23.659  0.00  0.00    +0.000 A 
ATOM     34  C   UNL     1      -3.968  15.722  22.849  0.00  0.00    +0.000 A 
ENDBRANCH  28  29
ENDBRANCH   8  28
TORSDOF 5
ENDMDL
MODEL 7
REMARK VINA RESULT:      -8.2      1.045      1.200
REMARK  Name = 
REMARK  5 active torsions:
REMARK  status: ('A' for Active; 'I' for Inactive)
REMARK    1  A    between atoms: C_4  and  C_5
REMARK    2  A    between atoms: C_5  and  N_6
REMARK    3  A    between atoms: C_8  and  C_9
REMARK    4  A    between atoms: N_21  and  C_22
REMARK    5  A    between atoms: C_22  and  C_23
REMARK                            x       y       z     vdW  Elec       q    Type
REMARK                         _______ _______ _______ _____ _____    ______ ____
ROOT
ATOM      1  O   UNL     1      -1.255   9.762  17.029  0.00  0.00    +0.000 OA
ATOM      2  C   UNL     1      -1.720  10.210  18.062  0.00  0.00    +0.000 C 
ATOM      3  O   UNL     1      -1.227   9.936  19.297  0.00  0.00    +0.000 OA
ATOM      4  C   UNL     1      -0.378  10.890  20.006  0.00  0.00    +0.000 C 
ATOM      5  C   UNL     1      -0.730  12.367  19.759  0.00  0.00    +0.000 C 
ATOM      6  C   UNL     1      -2.190  12.629  19.874  0.00  0.00    +0.000 A 
ATOM      7  C   UNL     1      -2.875  13.510  20.675  0.00  0.00    +0.000 A 
ATOM      8  N   UNL     1      -4.203  13.479  20.303  0.00  0.00    +0.000 N 
ATOM      9  C   UNL     1      -4.392  12.546  19.301  0.00  0.00    +0.000 A 
ATOM     10  C   UNL     1      -5.523  12.151  18.566  0.00  0.00    +0.000 A 
ATOM     11  C   UNL     1      -5.364  11.134  17.608  0.00  0.00    +0.000 A 
ATOM     12  C   UNL     1      -4.135  10.501  17.412  0.00  0.00    +0.000 A 
ATOM     13  C   UNL     1      -3.028  10.893  18.167  0.00  0.00    +0.000 A 
ATOM     14  C   UNL     1      -3.152  11.952  19.081  0.00  0.00    +0.000 A 
ENDROOT
BRANCH   4  15
ATOM     15  C   UNL     1       1.089  10.650  19.649  0.00  0.00    +0.000 C 
BRANCH  15  16
ATOM     16  N   UNL     1       1.433   9.247  19.683  0.00  0.00    +0.000 N 
ATOM     17  C   UNL     1       1.969   8.509  18.673  0.00  0.00    +0.000 A 
ATOM     18  C   UNL     1       2.037   7.241  19.194  0.00  0.00    +0.000 A 
ATOM     19  N   UNL     1       1.620   7.267  20.504  0.00  0.00    +0.000 NA
ATOM     20  N   UNL     1       1.243   8.511  20.792  0.00  0.00    +0.000 NA
BRANCH  18  21
ATOM     21  C   UNL     1       2.465   6.056  18.487  0.00  0.00    +0.000 A 
ATOM     22  C   UNL     1       1.634   4.931  18.435  0.00  0.00    +0.000 A 
ATOM     23  C   UNL     1       2.038   3.784  17.740  0.00  0.00    +0.000 A 
ATOM     24  C   UNL     1       3.272   3.755  17.090  0.00  0.00    +0.000 A 
ATOM     25  C   UNL     1       4.106   4.868  17.137  0.00  0.00    +0.000 A 
ATOM     26  C   UNL     1       3.702   6.006  17.831  0.00  0.00    +0.000 A 
ATOM     27  F   UNL     1       4.531   7.062  17.834  0.00  0.00    +0.000 F 
ENDBRANCH  18  21
ENDBRANCH  15  16
ENDBRANCH   4  15
BRANCH   8  28
ATOM     28  C   UNL     1      -5.247  14.252  20.968  0.00  0.00    +0.000 C 
BRANCH  28  29
ATOM     29  C   UNL     1      -6.022  13.446  21.981  0.00  0.00    +0.000 A 
ATOM     30  C   UNL     1      -7.221  12.818  21.615  0.00  0.00    +0.000 A 
ATOM     31  C   UNL     1      -7.896  11.993  22.518  0.00  0.00    +0.000 A 
ATOM     32  C   UNL     1      -7.386  11.792  23.799  0.00  0.00    +0.000 A 
ATOM     33  C   UNL     1      -6.208  12.426  24.184  0.00  0.00    +0.000 A 
ATOM     34  C   UNL     1      -5.530  13.246  23.280  0.00  0.00    +0.000 A 
ENDBRANCH  28  29
ENDBRANCH   8  28
TORSDOF 5
ENDMDL
MODEL 8
REMARK VINA RESULT:      -8.2      1.555      2.034
REMARK  Name = 
REMARK  5 active torsions:
REMARK  status: ('A' for Active; 'I' for Inactive)
REMARK    1  A    between atoms: C_4  and  C_5
REMARK    2  A    between atoms: C_5  and  N_6
REMARK    3  A    between atoms: C_8  and  C_9
REMARK    4  A    between atoms: N_21  and  C_22
REMARK    5  A    between atoms: C_22  and  C_23
REMARK                            x       y       z     vdW  Elec       q    Type
REMARK                         _______ _______ _______ _____ _____    ______ ____
ROOT
ATOM      1  O   UNL     1      -2.043  10.492  16.276  0.00  0.00    +0.000 OA
ATOM      2  C   UNL     1      -2.313  10.597  17.459  0.00  0.00    +0.000 C 
ATOM      3  O   UNL     1      -1.598  10.012  18.454  0.00  0.00    +0.000 OA
ATOM      4  C   UNL     1      -0.640  10.773  19.252  0.00  0.00    +0.000 C 
ATOM      5  C   UNL     1      -1.043  12.235  19.512  0.00  0.00    +0.000 C 
ATOM      6  C   UNL     1      -2.458  12.363  19.952  0.00  0.00    +0.000 A 
ATOM      7  C   UNL     1      -2.990  12.935  21.082  0.00  0.00    +0.000 A 
ATOM      8  N   UNL     1      -4.364  12.930  20.955  0.00  0.00    +0.000 N 
ATOM      9  C   UNL     1      -4.728  12.313  19.773  0.00  0.00    +0.000 A 
ATOM     10  C   UNL     1      -5.972  12.076  19.164  0.00  0.00    +0.000 A 
ATOM     11  C   UNL     1      -5.985  11.386  17.938  0.00  0.00    +0.000 A 
ATOM     12  C   UNL     1      -4.809  10.912  17.354  0.00  0.00    +0.000 A 
ATOM     13  C   UNL     1      -3.584  11.139  17.986  0.00  0.00    +0.000 A 
ATOM     14  C   UNL     1      -3.545  11.884  19.177  0.00  0.00    +0.000 A 
ENDROOT
BRANCH   4  15
ATOM     15  C   UNL     1       0.738  10.736  18.590  0.00  0.00    +0.000 C 
BRANCH  15  16
ATOM     16  N   UNL     1       1.390   9.459  18.768  0.00  0.00    +0.000 N 
ATOM     17  C   UNL     1       2.103   8.766  17.839  0.00  0.00    +0.000 A 
ATOM     18  C   UNL     1       2.445   7.605  18.486  0.00  0.00    +0.000 A 
ATOM     19  N   UNL     1       2.002   7.666  19.786  0.00  0.00    +0.000 NA
ATOM     20  N   UNL     1       1.346   8.813  19.946  0.00  0.00    +0.000 NA
BRANCH  18  21
ATOM     21  C   UNL     1       3.147   6.485  17.905  0.00  0.00    +0.000 A 
ATOM     22  C   UNL     1       4.351   6.688  17.221  0.00  0.00    +0.000 A 
ATOM     23  C   UNL     1       5.042   5.604  16.667  0.00  0.00    +0.000 A 
ATOM     24  C   UNL     1       4.538   4.309  16.795  0.00  0.00    +0.000 A 
ATOM     25  C   UNL     1       3.341   4.096  17.473  0.00  0.00    +0.000 A 
ATOM     26  C   UNL     1       2.655   5.178  18.021  0.00  0.00    +0.000 A 
ATOM     27  F   UNL     1       1.514   4.923  18.681  0.00  0.00    +0.000 F 
ENDBRANCH  18  21
ENDBRANCH  15  16
ENDBRANCH   4  15
BRANCH   8  28
ATOM     28  C   UNL     1      -5.273  13.415  21.988  0.00  0.00    +0.000 C 
BRANCH  28  29
ATOM     29  C   UNL     1      -4.814  14.708  22.617  0.00  0.00    +0.000 A 
ATOM     30  C   UNL     1      -4.885  15.908  21.896  0.00  0.00    +0.000 A 
ATOM     31  C   UNL     1      -4.552  17.122  22.502  0.00  0.00    +0.000 A 
ATOM     32  C   UNL     1      -4.138  17.151  23.831  0.00  0.00    +0.000 A 
ATOM     33  C   UNL     1      -4.041  15.965  24.554  0.00  0.00    +0.000 A 
ATOM     34  C   UNL     1      -4.379  14.752  23.951  0.00  0.00    +0.000 A 
ENDBRANCH  28  29
ENDBRANCH   8  28
TORSDOF 5
ENDMDL
MODEL 9
REMARK VINA RESULT:      -8.1      1.616      2.268
REMARK  Name = 
REMARK  5 active torsions:
REMARK  status: ('A' for Active; 'I' for Inactive)
REMARK    1  A    between atoms: C_4  and  C_5
REMARK    2  A    between atoms: C_5  and  N_6
REMARK    3  A    between atoms: C_8  and  C_9
REMARK    4  A    between atoms: N_21  and  C_22
REMARK    5  A    between atoms: C_22  and  C_23
REMARK                            x       y       z     vdW  Elec       q    Type
REMARK                         _______ _______ _______ _____ _____    ______ ____
ROOT
ATOM      1  O   UNL     1      -1.979  10.123  16.425  0.00  0.00    +0.000 OA
ATOM      2  C   UNL     1      -2.212  10.408  17.587  0.00  0.00    +0.000 C 
ATOM      3  O   UNL     1      -1.477   9.961  18.638  0.00  0.00    +0.000 OA
ATOM      4  C   UNL     1      -0.483  10.811  19.287  0.00  0.00    +0.000 C 
ATOM      5  C   UNL     1      -0.853  12.304  19.338  0.00  0.00    +0.000 C 
ATOM      6  C   UNL     1      -2.252  12.526  19.793  0.00  0.00    +0.000 A 
ATOM      7  C   UNL     1      -2.740  13.270  20.839  0.00  0.00    +0.000 A 
ATOM      8  N   UNL     1      -4.117  13.276  20.753  0.00  0.00    +0.000 N 
ATOM      9  C   UNL     1      -4.527  12.498  19.685  0.00  0.00    +0.000 A 
ATOM     10  C   UNL     1      -5.792  12.201  19.152  0.00  0.00    +0.000 A 
ATOM     11  C   UNL     1      -5.854  11.338  18.044  0.00  0.00    +0.000 A 
ATOM     12  C   UNL     1      -4.704  10.757  17.505  0.00  0.00    +0.000 A 
ATOM     13  C   UNL     1      -3.457  11.049  18.062  0.00  0.00    +0.000 A 
ATOM     14  C   UNL     1      -3.369  11.960  19.127  0.00  0.00    +0.000 A 
ENDROOT
BRANCH   4  15
ATOM     15  C   UNL     1       0.873  10.647  18.601  0.00  0.00    +0.000 C 
BRANCH  15  16
ATOM     16  N   UNL     1       1.440   9.337  18.826  0.00  0.00    +0.000 N 
ATOM     17  C   UNL     1       1.985   8.508  17.895  0.00  0.00    +0.000 A 
ATOM     18  C   UNL     1       2.308   7.380  18.608  0.00  0.00    +0.000 A 
ATOM     19  N   UNL     1       2.023   7.590  19.937  0.00  0.00    +0.000 NA
ATOM     20  N   UNL     1       1.481   8.799  20.057  0.00  0.00    +0.000 NA
BRANCH  18  21
ATOM     21  C   UNL     1       2.848   6.157  18.062  0.00  0.00    +0.000 A 
ATOM     22  C   UNL     1       2.074   4.991  18.048  0.00  0.00    +0.000 A 
ATOM     23  C   UNL     1       2.589   3.806  17.509  0.00  0.00    +0.000 A 
ATOM     24  C   UNL     1       3.878   3.779  16.976  0.00  0.00    +0.000 A 
ATOM     25  C   UNL     1       4.656   4.932  16.986  0.00  0.00    +0.000 A 
ATOM     26  C   UNL     1       4.142   6.109  17.526  0.00  0.00    +0.000 A 
ATOM     27  F   UNL     1       4.922   7.201  17.498  0.00  0.00    +0.000 F 
ENDBRANCH  18  21
ENDBRANCH  15  16
ENDBRANCH   4  15
BRANCH   8  28
ATOM     28  C   UNL     1      -4.985  13.928  21.726  0.00  0.00    +0.000 C 
BRANCH  28  29
ATOM     29  C   UNL     1      -5.778  15.069  21.137  0.00  0.00    +0.000 A 
ATOM     30  C   UNL     1      -7.177  15.078  21.228  0.00  0.00    +0.000 A 
ATOM     31  C   UNL     1      -7.913  16.173  20.772  0.00  0.00    +0.000 A 
ATOM     32  C   UNL     1      -7.261  17.270  20.212  0.00  0.00    +0.000 A 
ATOM     33  C   UNL     1      -5.875  17.267  20.094  0.00  0.00    +0.000 A 
ATOM     34  C   UNL     1      -5.138  16.175  20.556  0.00  0.00    +0.000 A 
ENDBRANCH  28  29
ENDBRANCH   8  28
TORSDOF 5
ENDMDL
