MODEL 1
REMARK VINA RESULT:      -8.2      0.000      0.000
REMARK  Name = 
REMARK  7 active torsions:
REMARK  status: ('A' for Active; 'I' for Inactive)
REMARK    1  A    between atoms: C_1  and  C_2
REMARK    2  A    between atoms: C_2  and  C_3
REMARK    3  A    between atoms: C_2  and  N_4
REMARK    4  A    between atoms: C_5  and  C_7
REMARK    5  A    between atoms: C_11  and  N_12
REMARK    6  A    between atoms: N_15  and  C_16
REMARK    7  A    between atoms: C_19  and  C_20
REMARK                            x       y       z     vdW  Elec       q    Type
REMARK                         _______ _______ _______ _____ _____    ______ ____
ROOT
ATOM      1  N   UNL     1       8.182   7.191  18.801  0.00  0.00    +0.000 N 
ATOM      2  C   UNL     1       8.264   8.538  18.486  0.00  0.00    +0.000 C 
ATOM      3  O   UNL     1       7.522   9.112  17.690  0.00  0.00    +0.000 OA
ATOM      4  N   UNL     1       9.300   9.183  19.144  0.00  0.00    +0.000 N 
ATOM      5  H   UNL     1       8.573   6.917  19.691  0.00  0.00    +0.000 HD
ATOM      6  H   UNL     1      10.124   8.614  19.282  0.00  0.00    +0.000 HD
ENDROOT
BRANCH   1  11
ATOM      7  C   UNL     1       5.561   4.584  18.280  0.00  0.00    +0.000 A 
ATOM      8  C   UNL     1       5.620   4.407  16.892  0.00  0.00    +0.000 A 
ATOM      9  C   UNL     1       6.526   5.147  16.140  0.00  0.00    +0.000 A 
ATOM     10  C   UNL     1       7.374   6.058  16.764  0.00  0.00    +0.000 A 
ATOM     11  C   UNL     1       7.328   6.266  18.149  0.00  0.00    +0.000 A 
ATOM     12  C   UNL     1       6.427   5.505  18.906  0.00  0.00    +0.000 A 
BRANCH   7  14
ATOM     13  N   UNL     1       3.301   4.086  19.098  0.00  0.00    +0.000 N 
ATOM     14  C   UNL     1       4.641   3.761  19.127  0.00  0.00    +0.000 C 
ATOM     15  O   UNL     1       5.100   2.845  19.799  0.00  0.00    +0.000 OA
ATOM     16  H   UNL     1       3.020   4.987  18.735  0.00  0.00    +0.000 HD
BRANCH  13  18
ATOM     17  C   UNL     1       1.249   4.287  20.444  0.00  0.00    +0.000 C 
ATOM     18  C   UNL     1       2.307   3.346  19.878  0.00  0.00    +0.000 C 
ATOM     19  C   UNL     1       1.657   2.263  19.021  0.00  0.00    +0.000 C 
ENDBRANCH  13  18
ENDBRANCH   7  14
ENDBRANCH   1  11
BRANCH   4  20
ATOM     20  C   UNL     1       9.513  10.571  18.957  0.00  0.00    +0.000 A 
ATOM     21  C   UNL     1      10.128  11.066  17.803  0.00  0.00    +0.000 A 
ATOM     22  C   UNL     1      10.347  12.439  17.642  0.00  0.00    +0.000 A 
ATOM     23  C   UNL     1       9.967  13.342  18.641  0.00  0.00    +0.000 A 
ATOM     24  C   UNL     1       9.362  12.838  19.802  0.00  0.00    +0.000 A 
ATOM     25  C   UNL     1       9.113  11.465  19.950  0.00  0.00    +0.000 A 
BRANCH  23  26
ATOM     26  C   UNL     1      10.159  14.774  18.476  0.00  0.00    +0.000 A 
ATOM     27  C   UNL     1      11.259  15.600  18.813  0.00  0.00    +0.000 A 
ATOM     28  N   UNL     1      11.054  16.886  18.520  0.00  0.00    +0.000 NA
ATOM     29  N   UNL     1       9.819  16.893  17.994  0.00  0.00    +0.000 N 
ATOM     30  C   UNL     1       9.243  15.657  17.942  0.00  0.00    +0.000 A 
ATOM     31  H   UNL     1       9.430  17.781  17.692  0.00  0.00    +0.000 HD
ENDBRANCH  23  26
ENDBRANCH   4  20
TORSDOF 5
ENDMDL
MODEL 2
REMARK VINA RESULT:      -8.1      1.118      1.307
REMARK  Name = 
REMARK  7 active torsions:
REMARK  status: ('A' for Active; 'I' for Inactive)
REMARK    1  A    between atoms: C_1  and  C_2
REMARK    2  A    between atoms: C_2  and  C_3
REMARK    3  A    between atoms: C_2  and  N_4
REMARK    4  A    between atoms: C_5  and  C_7
REMARK    5  A    between atoms: C_11  and  N_12
REMARK    6  A    between atoms: N_15  and  C_16
REMARK    7  A    between atoms: C_19  and  C_20
REMARK                            x       y       z     vdW  Elec       q    Type
REMARK                         _______ _______ _______ _____ _____    ______ ____
ROOT
ATOM      1  N   UNL     1       7.760   6.765  18.366  0.00  0.00    +0.000 N 
ATOM      2  C   UNL     1       7.954   8.130  18.223  0.00  0.00    +0.000 C 
ATOM      3  O   UNL     1       7.324   8.844  17.446  0.00  0.00    +0.000 OA
ATOM      4  N   UNL     1       8.967   8.617  19.036  0.00  0.00    +0.000 N 
ATOM      5  H   UNL     1       8.053   6.363  19.245  0.00  0.00    +0.000 HD
ATOM      6  H   UNL     1       9.738   7.977  19.170  0.00  0.00    +0.000 HD
ENDROOT
BRANCH   1  11
ATOM      7  C   UNL     1       4.856   4.691  17.266  0.00  0.00    +0.000 A 
ATOM      8  C   UNL     1       5.199   4.423  15.935  0.00  0.00    +0.000 A 
ATOM      9  C   UNL     1       6.385   4.925  15.411  0.00  0.00    +0.000 A 
ATOM     10  C   UNL     1       7.233   5.690  16.209  0.00  0.00    +0.000 A 
ATOM     11  C   UNL     1       6.910   5.986  17.540  0.00  0.00    +0.000 A 
ATOM     12  C   UNL     1       5.722   5.463  18.069  0.00  0.00    +0.000 A 
BRANCH   7  14
ATOM     13  N   UNL     1       3.446   4.296  19.235  0.00  0.00    +0.000 N 
ATOM     14  C   UNL     1       3.617   4.116  17.878  0.00  0.00    +0.000 C 
ATOM     15  O   UNL     1       2.816   3.520  17.169  0.00  0.00    +0.000 OA
ATOM     16  H   UNL     1       4.239   4.566  19.801  0.00  0.00    +0.000 HD
BRANCH  13  18
ATOM     17  C   UNL     1       2.675   2.789  21.023  0.00  0.00    +0.000 C 
ATOM     18  C   UNL     1       2.270   3.786  19.942  0.00  0.00    +0.000 C 
ATOM     19  C   UNL     1       1.471   4.937  20.548  0.00  0.00    +0.000 C 
ENDBRANCH  13  18
ENDBRANCH   7  14
ENDBRANCH   1  11
BRANCH   4  20
ATOM     20  C   UNL     1       9.283   9.997  19.036  0.00  0.00    +0.000 A 
ATOM     21  C   UNL     1       9.609  10.671  17.855  0.00  0.00    +0.000 A 
ATOM     22  C   UNL     1       9.937  12.032  17.875  0.00  0.00    +0.000 A 
ATOM     23  C   UNL     1       9.957  12.742  19.080  0.00  0.00    +0.000 A 
ATOM     24  C   UNL     1       9.639  12.057  20.264  0.00  0.00    +0.000 A 
ATOM     25  C   UNL     1       9.281  10.701  20.240  0.00  0.00    +0.000 A 
BRANCH  23  26
ATOM     26  C   UNL     1      10.263  14.163  19.115  0.00  0.00    +0.000 A 
ATOM     27  C   UNL     1      11.162  14.890  19.934  0.00  0.00    +0.000 A 
ATOM     28  N   UNL     1      11.154  16.201  19.679  0.00  0.00    +0.000 NA
ATOM     29  N   UNL     1      10.249  16.322  18.695  0.00  0.00    +0.000 N 
ATOM     30  C   UNL     1       9.691  15.134  18.319  0.00  0.00    +0.000 A 
ATOM     31  H   UNL     1      10.061  17.248  18.326  0.00  0.00    +0.000 HD
ENDBRANCH  23  26
ENDBRANCH   4  20
TORSDOF 5
ENDMDL
MODEL 3
REMARK VINA RESULT:      -8.0      2.451      3.899
REMARK  Name = 
REMARK  7 active torsions:
REMARK  status: ('A' for Active; 'I' for Inactive)
REMARK    1  A    between atoms: C_1  and  C_2
REMARK    2  A    between atoms: C_2  and  C_3
REMARK    3  A    between atoms: C_2  and  N_4
REMARK    4  A    between atoms: C_5  and  C_7
REMARK    5  A    between atoms: C_11  and  N_12
REMARK    6  A    between atoms: N_15  and  C_16
REMARK    7  A    between atoms: C_19  and  C_20
REMARK                            x       y       z     vdW  Elec       q    Type
REMARK                         _______ _______ _______ _____ _____    ______ ____
ROOT
ATOM      1  N   UNL     1       7.872   6.687  18.478  0.00  0.00    +0.000 N 
ATOM      2  C   UNL     1       7.957   8.065  18.362  0.00  0.00    +0.000 C 
ATOM      3  O   UNL     1       7.173   8.758  17.717  0.00  0.00    +0.000 OA
ATOM      4  N   UNL     1       9.049   8.595  19.034  0.00  0.00    +0.000 N 
ATOM      5  H   UNL     1       8.319   6.278  19.286  0.00  0.00    +0.000 HD
ATOM      6  H   UNL     1       9.869   8.005  19.026  0.00  0.00    +0.000 HD
ENDROOT
BRANCH   1  11
ATOM      7  C   UNL     1       6.274   4.839  15.653  0.00  0.00    +0.000 A 
ATOM      8  C   UNL     1       5.157   4.282  16.286  0.00  0.00    +0.000 A 
ATOM      9  C   UNL     1       4.937   4.522  17.638  0.00  0.00    +0.000 A 
ATOM     10  C   UNL     1       5.824   5.317  18.361  0.00  0.00    +0.000 A 
ATOM     11  C   UNL     1       6.958   5.877  17.757  0.00  0.00    +0.000 A 
ATOM     12  C   UNL     1       7.166   5.648  16.390  0.00  0.00    +0.000 A 
BRANCH   7  14
ATOM     13  N   UNL     1       5.682   3.765  13.528  0.00  0.00    +0.000 N 
ATOM     14  C   UNL     1       6.508   4.652  14.186  0.00  0.00    +0.000 C 
ATOM     15  O   UNL     1       7.402   5.281  13.634  0.00  0.00    +0.000 OA
ATOM     16  H   UNL     1       5.142   3.101  14.066  0.00  0.00    +0.000 HD
BRANCH  13  18
ATOM     17  C   UNL     1       6.704   2.300  11.833  0.00  0.00    +0.000 C 
ATOM     18  C   UNL     1       5.810   3.508  12.092  0.00  0.00    +0.000 C 
ATOM     19  C   UNL     1       4.435   3.300  11.463  0.00  0.00    +0.000 C 
ENDBRANCH  13  18
ENDBRANCH   7  14
ENDBRANCH   1  11
BRANCH   4  20
ATOM     20  C   UNL     1       9.274   9.993  19.043  0.00  0.00    +0.000 A 
ATOM     21  C   UNL     1       9.446  10.712  17.855  0.00  0.00    +0.000 A 
ATOM     22  C   UNL     1       9.686  12.090  17.882  0.00  0.00    +0.000 A 
ATOM     23  C   UNL     1       9.772  12.775  19.099  0.00  0.00    +0.000 A 
ATOM     24  C   UNL     1       9.609  12.046  20.288  0.00  0.00    +0.000 A 
ATOM     25  C   UNL     1       9.337  10.669  20.260  0.00  0.00    +0.000 A 
BRANCH  23  26
ATOM     26  C   UNL     1       9.988  14.212  19.144  0.00  0.00    +0.000 A 
ATOM     27  C   UNL     1       9.464  15.247  18.331  0.00  0.00    +0.000 A 
ATOM     28  N   UNL     1       9.914  16.456  18.673  0.00  0.00    +0.000 NA
ATOM     29  N   UNL     1      10.731  16.204  19.708  0.00  0.00    +0.000 N 
ATOM     30  C   UNL     1      10.807  14.880  20.031  0.00  0.00    +0.000 A 
ATOM     31  H   UNL     1      11.206  16.986  20.147  0.00  0.00    +0.000 HD
ENDBRANCH  23  26
ENDBRANCH   4  20
TORSDOF 5
ENDMDL
MODEL 4
REMARK VINA RESULT:      -8.0      1.110      1.698
REMARK  Name = 
REMARK  7 active torsions:
REMARK  status: ('A' for Active; 'I' for Inactive)
REMARK    1  A    between atoms: C_1  and  C_2
REMARK    2  A    between atoms: C_2  and  C_3
REMARK    3  A    between atoms: C_2  and  N_4
REMARK    4  A    between atoms: C_5  and  C_7
REMARK    5  A    between atoms: C_11  and  N_12
REMARK    6  A    between atoms: N_15  and  C_16
REMARK    7  A    between atoms: C_19  and  C_20
REMARK                            x       y       z     vdW  Elec       q    Type
REMARK                         _______ _______ _______ _____ _____    ______ ____
ROOT
ATOM      1  N   UNL     1       7.779   6.745  18.399  0.00  0.00    +0.000 N 
ATOM      2  C   UNL     1       7.959   8.111  18.251  0.00  0.00    +0.000 C 
ATOM      3  O   UNL     1       7.315   8.817  17.476  0.00  0.00    +0.000 OA
ATOM      4  N   UNL     1       8.973   8.610  19.054  0.00  0.00    +0.000 N 
ATOM      5  H   UNL     1       8.083   6.348  19.277  0.00  0.00    +0.000 HD
ATOM      6  H   UNL     1       9.751   7.979  19.185  0.00  0.00    +0.000 HD
ENDROOT
BRANCH   1  11
ATOM      7  C   UNL     1       4.858   4.690  17.309  0.00  0.00    +0.000 A 
ATOM      8  C   UNL     1       5.221   4.371  15.995  0.00  0.00    +0.000 A 
ATOM      9  C   UNL     1       6.427   4.834  15.479  0.00  0.00    +0.000 A 
ATOM     10  C   UNL     1       7.274   5.609  16.269  0.00  0.00    +0.000 A 
ATOM     11  C   UNL     1       6.931   5.954  17.582  0.00  0.00    +0.000 A 
ATOM     12  C   UNL     1       5.723   5.471  18.104  0.00  0.00    +0.000 A 
BRANCH   7  14
ATOM     13  N   UNL     1       3.502   4.185  19.291  0.00  0.00    +0.000 N 
ATOM     14  C   UNL     1       3.597   4.157  17.915  0.00  0.00    +0.000 C 
ATOM     15  O   UNL     1       2.713   3.728  17.184  0.00  0.00    +0.000 OA
ATOM     16  H   UNL     1       4.340   4.311  19.841  0.00  0.00    +0.000 HD
BRANCH  13  18
ATOM     17  C   UNL     1       2.700   2.771  21.140  0.00  0.00    +0.000 C 
ATOM     18  C   UNL     1       2.313   3.701  19.994  0.00  0.00    +0.000 C 
ATOM     19  C   UNL     1       1.485   4.874  20.513  0.00  0.00    +0.000 C 
ENDBRANCH  13  18
ENDBRANCH   7  14
ENDBRANCH   1  11
BRANCH   4  20
ATOM     20  C   UNL     1       9.275   9.994  19.048  0.00  0.00    +0.000 A 
ATOM     21  C   UNL     1       9.270  10.748  20.227  0.00  0.00    +0.000 A 
ATOM     22  C   UNL     1       9.553  12.118  20.200  0.00  0.00    +0.000 A 
ATOM     23  C   UNL     1       9.832  12.764  18.991  0.00  0.00    +0.000 A 
ATOM     24  C   UNL     1       9.823  12.005  17.811  0.00  0.00    +0.000 A 
ATOM     25  C   UNL     1       9.571  10.625  17.840  0.00  0.00    +0.000 A 
BRANCH  23  26
ATOM     26  C   UNL     1      10.159  14.181  18.950  0.00  0.00    +0.000 A 
ATOM     27  C   UNL     1       9.714  15.202  18.075  0.00  0.00    +0.000 A 
ATOM     28  N   UNL     1      10.258  16.392  18.345  0.00  0.00    +0.000 NA
ATOM     29  N   UNL     1      11.055  16.139  19.394  0.00  0.00    +0.000 N 
ATOM     30  C   UNL     1      11.030  14.836  19.796  0.00  0.00    +0.000 A 
ATOM     31  H   UNL     1      11.591  16.907  19.786  0.00  0.00    +0.000 HD
ENDBRANCH  23  26
ENDBRANCH   4  20
TORSDOF 5
ENDMDL
MODEL 5
REMARK VINA RESULT:      -7.9      1.164      1.564
REMARK  Name = 
REMARK  7 active torsions:
REMARK  status: ('A' for Active; 'I' for Inactive)
REMARK    1  A    between atoms: C_1  and  C_2
REMARK    2  A    between atoms: C_2  and  C_3
REMARK    3  A    between atoms: C_2  and  N_4
REMARK    4  A    between atoms: C_5  and  C_7
REMARK    5  A    between atoms: C_11  and  N_12
REMARK    6  A    between atoms: N_15  and  C_16
REMARK    7  A    between atoms: C_19  and  C_20
REMARK                            x       y       z     vdW  Elec       q    Type
REMARK                         _______ _______ _______ _____ _____    ______ ____
ROOT
ATOM      1  N   UNL     1       7.624   6.868  18.483  0.00  0.00    +0.000 N 
ATOM      2  C   UNL     1       7.911   8.134  17.996  0.00  0.00    +0.000 C 
ATOM      3  O   UNL     1       7.498   8.578  16.926  0.00  0.00    +0.000 OA
ATOM      4  N   UNL     1       8.748   8.855  18.834  0.00  0.00    +0.000 N 
ATOM      5  H   UNL     1       7.701   6.747  19.483  0.00  0.00    +0.000 HD
ATOM      6  H   UNL     1       9.440   8.297  19.314  0.00  0.00    +0.000 HD
ENDROOT
BRANCH   1  11
ATOM      7  C   UNL     1       5.114   4.243  17.618  0.00  0.00    +0.000 A 
ATOM      8  C   UNL     1       5.543   3.862  16.341  0.00  0.00    +0.000 A 
ATOM      9  C   UNL     1       6.658   4.471  15.776  0.00  0.00    +0.000 A 
ATOM     10  C   UNL     1       7.349   5.455  16.480  0.00  0.00    +0.000 A 
ATOM     11  C   UNL     1       6.935   5.866  17.753  0.00  0.00    +0.000 A 
ATOM     12  C   UNL     1       5.821   5.237  18.327  0.00  0.00    +0.000 A 
BRANCH   7  14
ATOM     13  N   UNL     1       3.368   4.221  19.343  0.00  0.00    +0.000 N 
ATOM     14  C   UNL     1       3.955   3.566  18.280  0.00  0.00    +0.000 C 
ATOM     15  O   UNL     1       3.575   2.478  17.863  0.00  0.00    +0.000 OA
ATOM     16  H   UNL     1       3.868   4.974  19.794  0.00  0.00    +0.000 HD
BRANCH  13  18
ATOM     17  C   UNL     1       2.685   2.770  21.212  0.00  0.00    +0.000 C 
ATOM     18  C   UNL     1       2.223   3.660  20.061  0.00  0.00    +0.000 C 
ATOM     19  C   UNL     1       1.318   4.775  20.578  0.00  0.00    +0.000 C 
ENDBRANCH  13  18
ENDBRANCH   7  14
ENDBRANCH   1  11
BRANCH   4  20
ATOM     20  C   UNL     1       9.123  10.180  18.502  0.00  0.00    +0.000 A 
ATOM     21  C   UNL     1       8.191  11.102  18.013  0.00  0.00    +0.000 A 
ATOM     22  C   UNL     1       8.582  12.402  17.673  0.00  0.00    +0.000 A 
ATOM     23  C   UNL     1       9.917  12.801  17.803  0.00  0.00    +0.000 A 
ATOM     24  C   UNL     1      10.849  11.868  18.283  0.00  0.00    +0.000 A 
ATOM     25  C   UNL     1      10.452  10.575  18.654  0.00  0.00    +0.000 A 
BRANCH  23  26
ATOM     26  C   UNL     1      10.334  14.158  17.484  0.00  0.00    +0.000 A 
ATOM     27  C   UNL     1       9.690  15.397  17.719  0.00  0.00    +0.000 A 
ATOM     28  N   UNL     1      10.386  16.440  17.262  0.00  0.00    +0.000 NA
ATOM     29  N   UNL     1      11.481  15.876  16.729  0.00  0.00    +0.000 N 
ATOM     30  C   UNL     1      11.500  14.516  16.839  0.00  0.00    +0.000 A 
ATOM     31  H   UNL     1      12.176  16.481  16.305  0.00  0.00    +0.000 HD
ENDBRANCH  23  26
ENDBRANCH   4  20
TORSDOF 5
ENDMDL
MODEL 6
REMARK VINA RESULT:      -7.8      6.553      8.008
REMARK  Name = 
REMARK  7 active torsions:
REMARK  status: ('A' for Active; 'I' for Inactive)
REMARK    1  A    between atoms: C_1  and  C_2
REMARK    2  A    between atoms: C_2  and  C_3
REMARK    3  A    between atoms: C_2  and  N_4
REMARK    4  A    between atoms: C_5  and  C_7
REMARK    5  A    between atoms: C_11  and  N_12
REMARK    6  A    between atoms: N_15  and  C_16
REMARK    7  A    between atoms: C_19  and  C_20
REMARK                            x       y       z     vdW  Elec       q    Type
REMARK                         _______ _______ _______ _____ _____    ______ ____
ROOT
ATOM      1  N   UNL     1       3.893   5.560  18.051  0.00  0.00    +0.000 N 
ATOM      2  C   UNL     1       3.418   6.858  18.147  0.00  0.00    +0.000 C 
ATOM      3  O   UNL     1       3.978   7.841  17.664  0.00  0.00    +0.000 OA
ATOM      4  N   UNL     1       2.244   6.949  18.879  0.00  0.00    +0.000 N 
ATOM      5  H   UNL     1       3.206   4.826  18.155  0.00  0.00    +0.000 HD
ATOM      6  H   UNL     1       2.181   6.298  19.649  0.00  0.00    +0.000 HD
ENDROOT
BRANCH   1  11
ATOM      7  C   UNL     1       6.540   4.732  15.552  0.00  0.00    +0.000 A 
ATOM      8  C   UNL     1       7.639   4.492  16.385  0.00  0.00    +0.000 A 
ATOM      9  C   UNL     1       7.499   4.602  17.764  0.00  0.00    +0.000 A 
ATOM     10  C   UNL     1       6.267   4.947  18.316  0.00  0.00    +0.000 A 
ATOM     11  C   UNL     1       5.153   5.205  17.507  0.00  0.00    +0.000 A 
ATOM     12  C   UNL     1       5.294   5.075  16.118  0.00  0.00    +0.000 A 
BRANCH   7  14
ATOM     13  N   UNL     1       5.834   3.605  13.489  0.00  0.00    +0.000 N 
ATOM     14  C   UNL     1       6.641   4.562  14.068  0.00  0.00    +0.000 C 
ATOM     15  O   UNL     1       7.417   5.266  13.433  0.00  0.00    +0.000 OA
ATOM     16  H   UNL     1       5.411   2.897  14.074  0.00  0.00    +0.000 HD
BRANCH  13  18
ATOM     17  C   UNL     1       6.647   2.106  11.713  0.00  0.00    +0.000 C 
ATOM     18  C   UNL     1       5.839   3.356  12.047  0.00  0.00    +0.000 C 
ATOM     19  C   UNL     1       4.412   3.226  11.522  0.00  0.00    +0.000 C 
ENDBRANCH  13  18
ENDBRANCH   7  14
ENDBRANCH   1  11
BRANCH   4  20
ATOM     20  C   UNL     1       1.605   8.201  19.056  0.00  0.00    +0.000 A 
ATOM     21  C   UNL     1       1.325   8.704  20.330  0.00  0.00    +0.000 A 
ATOM     22  C   UNL     1       0.678   9.935  20.487  0.00  0.00    +0.000 A 
ATOM     23  C   UNL     1       0.285  10.680  19.370  0.00  0.00    +0.000 A 
ATOM     24  C   UNL     1       0.559  10.164  18.093  0.00  0.00    +0.000 A 
ATOM     25  C   UNL     1       1.236   8.946  17.936  0.00  0.00    +0.000 A 
BRANCH  23  26
ATOM     26  C   UNL     1      -0.360  11.976  19.515  0.00  0.00    +0.000 A 
ATOM     27  C   UNL     1       0.191  13.281  19.531  0.00  0.00    +0.000 A 
ATOM     28  N   UNL     1      -0.730  14.232  19.703  0.00  0.00    +0.000 NA
ATOM     29  N   UNL     1      -1.877  13.542  19.800  0.00  0.00    +0.000 N 
ATOM     30  C   UNL     1      -1.711  12.192  19.690  0.00  0.00    +0.000 A 
ATOM     31  H   UNL     1      -2.738  14.060  19.942  0.00  0.00    +0.000 HD
ENDBRANCH  23  26
ENDBRANCH   4  20
TORSDOF 5
ENDMDL
MODEL 7
REMARK VINA RESULT:      -7.7      6.723      9.700
REMARK  Name = 
REMARK  7 active torsions:
REMARK  status: ('A' for Active; 'I' for Inactive)
REMARK    1  A    between atoms: C_1  and  C_2
REMARK    2  A    between atoms: C_2  and  C_3
REMARK    3  A    between atoms: C_2  and  N_4
REMARK    4  A    between atoms: C_5  and  C_7
REMARK    5  A    between atoms: C_11  and  N_12
REMARK    6  A    between atoms: N_15  and  C_16
REMARK    7  A    between atoms: C_19  and  C_20
REMARK                            x       y       z     vdW  Elec       q    Type
REMARK                         _______ _______ _______ _____ _____    ______ ____
ROOT
ATOM      1  N   UNL     1       2.017   7.529  20.576  0.00  0.00    +0.000 N 
ATOM      2  C   UNL     1       2.586   7.305  19.332  0.00  0.00    +0.000 C 
ATOM      3  O   UNL     1       2.483   8.068  18.373  0.00  0.00    +0.000 OA
ATOM      4  N   UNL     1       3.272   6.102  19.263  0.00  0.00    +0.000 N 
ATOM      5  H   UNL     1       2.449   7.053  21.356  0.00  0.00    +0.000 HD
ATOM      6  H   UNL     1       2.861   5.356  19.806  0.00  0.00    +0.000 HD
ENDROOT
BRANCH   1  11
ATOM      7  C   UNL     1      -0.366  10.362  20.088  0.00  0.00    +0.000 A 
ATOM      8  C   UNL     1      -0.641  10.721  21.413  0.00  0.00    +0.000 A 
ATOM      9  C   UNL     1      -0.038  10.028  22.457  0.00  0.00    +0.000 A 
ATOM     10  C   UNL     1       0.842   8.982  22.185  0.00  0.00    +0.000 A 
ATOM     11  C   UNL     1       1.127   8.593  20.870  0.00  0.00    +0.000 A 
ATOM     12  C   UNL     1       0.530   9.305  19.821  0.00  0.00    +0.000 A 
BRANCH   7  14
ATOM     13  N   UNL     1      -2.046  10.573  18.312  0.00  0.00    +0.000 N 
ATOM     14  C   UNL     1      -0.950  11.126  18.941  0.00  0.00    +0.000 C 
ATOM     15  O   UNL     1      -0.447  12.192  18.610  0.00  0.00    +0.000 OA
ATOM     16  H   UNL     1      -2.258   9.595  18.459  0.00  0.00    +0.000 HD
BRANCH  13  18
ATOM     17  C   UNL     1      -2.592  10.392  15.918  0.00  0.00    +0.000 C 
ATOM     18  C   UNL     1      -2.708  11.233  17.186  0.00  0.00    +0.000 C 
ATOM     19  C   UNL     1      -4.173  11.507  17.513  0.00  0.00    +0.000 C 
ENDBRANCH  13  18
ENDBRANCH   7  14
ENDBRANCH   1  11
BRANCH   4  20
ATOM     20  C   UNL     1       3.937   5.725  18.071  0.00  0.00    +0.000 A 
ATOM     21  C   UNL     1       4.666   6.652  17.317  0.00  0.00    +0.000 A 
ATOM     22  C   UNL     1       5.302   6.267  16.131  0.00  0.00    +0.000 A 
ATOM     23  C   UNL     1       5.210   4.949  15.669  0.00  0.00    +0.000 A 
ATOM     24  C   UNL     1       4.468   4.027  16.424  0.00  0.00    +0.000 A 
ATOM     25  C   UNL     1       3.856   4.405  17.629  0.00  0.00    +0.000 A 
BRANCH  23  26
ATOM     26  C   UNL     1       5.891   4.525  14.457  0.00  0.00    +0.000 A 
ATOM     27  C   UNL     1       7.133   4.932  13.909  0.00  0.00    +0.000 A 
ATOM     28  N   UNL     1       7.418   4.321  12.757  0.00  0.00    +0.000 NA
ATOM     29  N   UNL     1       6.360   3.520  12.558  0.00  0.00    +0.000 N 
ATOM     30  C   UNL     1       5.422   3.601  13.545  0.00  0.00    +0.000 A 
ATOM     31  H   UNL     1       6.345   2.943  11.723  0.00  0.00    +0.000 HD
ENDBRANCH  23  26
ENDBRANCH   4  20
TORSDOF 5
ENDMDL
MODEL 8
REMARK VINA RESULT:      -7.6      6.741      9.836
REMARK  Name = 
REMARK  7 active torsions:
REMARK  status: ('A' for Active; 'I' for Inactive)
REMARK    1  A    between atoms: C_1  and  C_2
REMARK    2  A    between atoms: C_2  and  C_3
REMARK    3  A    between atoms: C_2  and  N_4
REMARK    4  A    between atoms: C_5  and  C_7
REMARK    5  A    between atoms: C_11  and  N_12
REMARK    6  A    between atoms: N_15  and  C_16
REMARK    7  A    between atoms: C_19  and  C_20
REMARK                            x       y       z     vdW  Elec       q    Type
REMARK                         _______ _______ _______ _____ _____    ______ ____
ROOT
ATOM      1  N   UNL     1       1.641   7.817  20.993  0.00  0.00    +0.000 N 
ATOM      2  C   UNL     1       2.224   7.546  19.765  0.00  0.00    +0.000 C 
ATOM      3  O   UNL     1       2.135   8.273  18.777  0.00  0.00    +0.000 OA
ATOM      4  N   UNL     1       2.906   6.339  19.749  0.00  0.00    +0.000 N 
ATOM      5  H   UNL     1       2.061   7.368  21.794  0.00  0.00    +0.000 HD
ATOM      6  H   UNL     1       2.486   5.614  20.313  0.00  0.00    +0.000 HD
ENDROOT
BRANCH   1  11
ATOM      7  C   UNL     1      -0.717  10.645  20.372  0.00  0.00    +0.000 A 
ATOM      8  C   UNL     1      -1.016  11.046  21.680  0.00  0.00    +0.000 A 
ATOM      9  C   UNL     1      -0.436  10.383  22.756  0.00  0.00    +0.000 A 
ATOM     10  C   UNL     1       0.443   9.325  22.534  0.00  0.00    +0.000 A 
ATOM     11  C   UNL     1       0.750   8.894  21.237  0.00  0.00    +0.000 A 
ATOM     12  C   UNL     1       0.178   9.576  20.155  0.00  0.00    +0.000 A 
BRANCH   7  14
ATOM     13  N   UNL     1      -2.296  10.758  18.496  0.00  0.00    +0.000 N 
ATOM     14  C   UNL     1      -1.276  11.375  19.191  0.00  0.00    +0.000 C 
ATOM     15  O   UNL     1      -0.820  12.472  18.891  0.00  0.00    +0.000 OA
ATOM     16  H   UNL     1      -2.455   9.769  18.630  0.00  0.00    +0.000 HD
BRANCH  13  18
ATOM     17  C   UNL     1      -2.558  10.636  16.051  0.00  0.00    +0.000 C 
ATOM     18  C   UNL     1      -2.926  11.381  17.331  0.00  0.00    +0.000 C 
ATOM     19  C   UNL     1      -4.441  11.429  17.506  0.00  0.00    +0.000 C 
ENDBRANCH  13  18
ENDBRANCH   7  14
ENDBRANCH   1  11
BRANCH   4  20
ATOM     20  C   UNL     1       3.585   5.917  18.579  0.00  0.00    +0.000 A 
ATOM     21  C   UNL     1       3.468   4.607  18.100  0.00  0.00    +0.000 A 
ATOM     22  C   UNL     1       4.159   4.201  16.953  0.00  0.00    +0.000 A 
ATOM     23  C   UNL     1       4.993   5.094  16.270  0.00  0.00    +0.000 A 
ATOM     24  C   UNL     1       5.115   6.403  16.763  0.00  0.00    +0.000 A 
ATOM     25  C   UNL     1       4.397   6.820  17.894  0.00  0.00    +0.000 A 
BRANCH  23  26
ATOM     26  C   UNL     1       5.693   4.698  15.059  0.00  0.00    +0.000 A 
ATOM     27  C   UNL     1       5.242   3.964  13.935  0.00  0.00    +0.000 A 
ATOM     28  N   UNL     1       6.194   3.782  13.016  0.00  0.00    +0.000 NA
ATOM     29  N   UNL     1       7.262   4.399  13.547  0.00  0.00    +0.000 N 
ATOM     30  C   UNL     1       7.014   4.965  14.764  0.00  0.00    +0.000 A 
ATOM     31  H   UNL     1       8.130   4.393  13.022  0.00  0.00    +0.000 HD
ENDBRANCH  23  26
ENDBRANCH   4  20
TORSDOF 5
ENDMDL
MODEL 9
REMARK VINA RESULT:      -7.5      6.707      9.578
REMARK  Name = 
REMARK  7 active torsions:
REMARK  status: ('A' for Active; 'I' for Inactive)
REMARK    1  A    between atoms: C_1  and  C_2
REMARK    2  A    between atoms: C_2  and  C_3
REMARK    3  A    between atoms: C_2  and  N_4
REMARK    4  A    between atoms: C_5  and  C_7
REMARK    5  A    between atoms: C_11  and  N_12
REMARK    6  A    between atoms: N_15  and  C_16
REMARK    7  A    between atoms: C_19  and  C_20
REMARK                            x       y       z     vdW  Elec       q    Type
REMARK                         _______ _______ _______ _____ _____    ______ ____
ROOT
ATOM      1  N   UNL     1       2.117   7.359  20.636  0.00  0.00    +0.000 N 
ATOM      2  C   UNL     1       0.980   8.059  21.010  0.00  0.00    +0.000 C 
ATOM      3  O   UNL     1      -0.130   7.552  21.163  0.00  0.00    +0.000 OA
ATOM      4  N   UNL     1       1.214   9.416  21.173  0.00  0.00    +0.000 N 
ATOM      5  H   UNL     1       3.001   7.778  20.887  0.00  0.00    +0.000 HD
ATOM      6  H   UNL     1       1.893   9.802  20.532  0.00  0.00    +0.000 HD
ENDROOT
BRANCH   1  11
ATOM      7  C   UNL     1       3.092   4.206  18.891  0.00  0.00    +0.000 A 
ATOM      8  C   UNL     1       2.170   3.299  19.426  0.00  0.00    +0.000 A 
ATOM      9  C   UNL     1       1.232   3.734  20.356  0.00  0.00    +0.000 A 
ATOM     10  C   UNL     1       1.207   5.070  20.751  0.00  0.00    +0.000 A 
ATOM     11  C   UNL     1       2.126   5.997  20.242  0.00  0.00    +0.000 A 
ATOM     12  C   UNL     1       3.058   5.558  19.292  0.00  0.00    +0.000 A 
BRANCH   7  14
ATOM     13  N   UNL     1       5.060   4.689  17.506  0.00  0.00    +0.000 N 
ATOM     14  C   UNL     1       4.075   3.784  17.843  0.00  0.00    +0.000 C 
ATOM     15  O   UNL     1       3.974   2.674  17.335  0.00  0.00    +0.000 OA
ATOM     16  H   UNL     1       4.947   5.660  17.765  0.00  0.00    +0.000 HD
BRANCH  13  18
ATOM     17  C   UNL     1       5.864   5.209  15.237  0.00  0.00    +0.000 C 
ATOM     18  C   UNL     1       6.081   4.384  16.502  0.00  0.00    +0.000 C 
ATOM     19  C   UNL     1       7.476   4.631  17.068  0.00  0.00    +0.000 C 
ENDBRANCH  13  18
ENDBRANCH   7  14
ENDBRANCH   1  11
BRANCH   4  20
ATOM     20  C   UNL     1       0.166  10.278  21.579  0.00  0.00    +0.000 A 
ATOM     21  C   UNL     1      -0.371  10.216  22.870  0.00  0.00    +0.000 A 
ATOM     22  C   UNL     1      -1.419  11.062  23.250  0.00  0.00    +0.000 A 
ATOM     23  C   UNL     1      -1.959  11.979  22.342  0.00  0.00    +0.000 A 
ATOM     24  C   UNL     1      -1.423  12.029  21.045  0.00  0.00    +0.000 A 
ATOM     25  C   UNL     1      -0.352  11.202  20.673  0.00  0.00    +0.000 A 
BRANCH  23  26
ATOM     26  C   UNL     1      -3.025  12.888  22.730  0.00  0.00    +0.000 A 
ATOM     27  C   UNL     1      -3.494  14.073  22.112  0.00  0.00    +0.000 A 
ATOM     28  N   UNL     1      -4.493  14.650  22.784  0.00  0.00    +0.000 NA
ATOM     29  N   UNL     1      -4.670  13.839  23.838  0.00  0.00    +0.000 N 
ATOM     30  C   UNL     1      -3.821  12.771  23.851  0.00  0.00    +0.000 A 
ATOM     31  H   UNL     1      -5.390  14.077  24.513  0.00  0.00    +0.000 HD
ENDBRANCH  23  26
ENDBRANCH   4  20
TORSDOF 5
ENDMDL
