MODEL 1
REMARK VINA RESULT:      -5.9      0.000      0.000
REMARK  Name = 
REMARK  7 active torsions:
REMARK  status: ('A' for Active; 'I' for Inactive)
REMARK    1  A    between atoms: C_1  and  C_2
REMARK    2  A    between atoms: C_2  and  O_3
REMARK    3  A    between atoms: O_3  and  C_4
REMARK    4  A    between atoms: C_4  and  C_6
REMARK    5  A    between atoms: C_8  and  O_9
REMARK    6  A    between atoms: C_10  and  O_11
REMARK    7  A    between atoms: C_12  and  O_13
REMARK                            x       y       z     vdW  Elec       q    Type
REMARK                         _______ _______ _______ _____ _____    ______ ____
ROOT
ATOM      1  C   UNL     1       3.718   4.297  18.077  0.00  0.00    +0.000 A 
ATOM      2  C   UNL     1       4.214   3.945  16.810  0.00  0.00    +0.000 A 
ATOM      3  C   UNL     1       5.577   4.063  16.556  0.00  0.00    +0.000 A 
ATOM      4  C   UNL     1       6.436   4.520  17.550  0.00  0.00    +0.000 A 
ATOM      5  C   UNL     1       5.945   4.860  18.802  0.00  0.00    +0.000 A 
ATOM      6  C   UNL     1       4.591   4.750  19.079  0.00  0.00    +0.000 A 
ENDROOT
BRANCH   1   7
ATOM      7  C   UNL     1       2.245   4.275  18.282  0.00  0.00    +0.000 C 
ATOM      8  O   UNL     1       1.448   3.951  17.417  0.00  0.00    +0.000 OA
BRANCH   7   9
ATOM      9  O   UNL     1       1.952   4.793  19.498  0.00  0.00    +0.000 OA
BRANCH   9  11
ATOM     10  C   UNL     1       1.660   3.093  21.146  0.00  0.00    +0.000 C 
ATOM     11  C   UNL     1       0.952   4.094  20.248  0.00  0.00    +0.000 C 
ENDBRANCH   9  11
ENDBRANCH   7   9
ENDBRANCH   1   7
BRANCH   3  12
ATOM     12  O   UNL     1       6.117   3.761  15.338  0.00  0.00    +0.000 OA
ATOM     13  H   UNL     1       5.673   4.303  14.661  0.00  0.00    +0.000 HD
ENDBRANCH   3  12
BRANCH   4  14
ATOM     14  O   UNL     1       7.776   4.657  17.308  0.00  0.00    +0.000 OA
ATOM     15  H   UNL     1       7.869   5.570  16.965  0.00  0.00    +0.000 HD
ENDBRANCH   4  14
BRANCH   5  16
ATOM     16  O   UNL     1       6.783   5.326  19.771  0.00  0.00    +0.000 OA
ATOM     17  H   UNL     1       6.191   5.593  20.504  0.00  0.00    +0.000 HD
ENDBRANCH   5  16
TORSDOF 6
ENDMDL
MODEL 2
REMARK VINA RESULT:      -5.9      0.154      2.219
REMARK  Name = 
REMARK  7 active torsions:
REMARK  status: ('A' for Active; 'I' for Inactive)
REMARK    1  A    between atoms: C_1  and  C_2
REMARK    2  A    between atoms: C_2  and  O_3
REMARK    3  A    between atoms: O_3  and  C_4
REMARK    4  A    between atoms: C_4  and  C_6
REMARK    5  A    between atoms: C_8  and  O_9
REMARK    6  A    between atoms: C_10  and  O_11
REMARK    7  A    between atoms: C_12  and  O_13
REMARK                            x       y       z     vdW  Elec       q    Type
REMARK                         _______ _______ _______ _____ _____    ______ ____
ROOT
ATOM      1  C   UNL     1       3.658   4.476  18.022  0.00  0.00    +0.000 A 
ATOM      2  C   UNL     1       4.520   4.908  19.045  0.00  0.00    +0.000 A 
ATOM      3  C   UNL     1       5.894   4.887  18.831  0.00  0.00    +0.000 A 
ATOM      4  C   UNL     1       6.405   4.448  17.614  0.00  0.00    +0.000 A 
ATOM      5  C   UNL     1       5.552   4.028  16.604  0.00  0.00    +0.000 A 
ATOM      6  C   UNL     1       4.180   4.041  16.793  0.00  0.00    +0.000 A 
ENDROOT
BRANCH   1   7
ATOM      7  C   UNL     1       2.203   4.397  18.320  0.00  0.00    +0.000 C 
ATOM      8  O   UNL     1       1.360   4.091  17.492  0.00  0.00    +0.000 OA
BRANCH   7   9
ATOM      9  O   UNL     1       1.976   4.844  19.577  0.00  0.00    +0.000 OA
BRANCH   9  11
ATOM     10  C   UNL     1       1.638   2.948  20.985  0.00  0.00    +0.000 C 
ATOM     11  C   UNL     1       0.972   4.140  20.317  0.00  0.00    +0.000 C 
ENDBRANCH   9  11
ENDBRANCH   7   9
ENDBRANCH   1   7
BRANCH   3  12
ATOM     12  O   UNL     1       6.784   5.270  19.794  0.00  0.00    +0.000 OA
ATOM     13  H   UNL     1       7.678   5.011  19.508  0.00  0.00    +0.000 HD
ENDBRANCH   3  12
BRANCH   4  14
ATOM     14  O   UNL     1       7.756   4.405  17.397  0.00  0.00    +0.000 OA
ATOM     15  H   UNL     1       7.971   3.450  17.392  0.00  0.00    +0.000 HD
ENDBRANCH   4  14
BRANCH   5  16
ATOM     16  O   UNL     1       6.053   3.579  15.417  0.00  0.00    +0.000 OA
ATOM     17  H   UNL     1       6.938   3.993  15.350  0.00  0.00    +0.000 HD
ENDBRANCH   5  16
TORSDOF 6
ENDMDL
MODEL 3
REMARK VINA RESULT:      -5.8      1.887      2.716
REMARK  Name = 
REMARK  7 active torsions:
REMARK  status: ('A' for Active; 'I' for Inactive)
REMARK    1  A    between atoms: C_1  and  C_2
REMARK    2  A    between atoms: C_2  and  O_3
REMARK    3  A    between atoms: O_3  and  C_4
REMARK    4  A    between atoms: C_4  and  C_6
REMARK    5  A    between atoms: C_8  and  O_9
REMARK    6  A    between atoms: C_10  and  O_11
REMARK    7  A    between atoms: C_12  and  O_13
REMARK                            x       y       z     vdW  Elec       q    Type
REMARK                         _______ _______ _______ _____ _____    ______ ____
ROOT
ATOM      1  C   UNL     1       4.740   5.126  18.281  0.00  0.00    +0.000 A 
ATOM      2  C   UNL     1       5.994   4.500  18.385  0.00  0.00    +0.000 A 
ATOM      3  C   UNL     1       6.939   4.699  17.383  0.00  0.00    +0.000 A 
ATOM      4  C   UNL     1       6.641   5.513  16.294  0.00  0.00    +0.000 A 
ATOM      5  C   UNL     1       5.405   6.134  16.197  0.00  0.00    +0.000 A 
ATOM      6  C   UNL     1       4.449   5.952  17.184  0.00  0.00    +0.000 A 
ENDROOT
BRANCH   1   7
ATOM      7  C   UNL     1       3.710   4.801  19.304  0.00  0.00    +0.000 C 
ATOM      8  O   UNL     1       3.008   5.641  19.844  0.00  0.00    +0.000 OA
BRANCH   7   9
ATOM      9  O   UNL     1       3.787   3.487  19.620  0.00  0.00    +0.000 OA
BRANCH   9  11
ATOM     10  C   UNL     1       2.381   2.399  18.030  0.00  0.00    +0.000 C 
ATOM     11  C   UNL     1       2.569   2.745  19.497  0.00  0.00    +0.000 C 
ENDBRANCH   9  11
ENDBRANCH   7   9
ENDBRANCH   1   7
BRANCH   3  12
ATOM     12  O   UNL     1       8.166   4.099  17.413  0.00  0.00    +0.000 OA
ATOM     13  H   UNL     1       8.061   3.169  17.146  0.00  0.00    +0.000 HD
ENDBRANCH   3  12
BRANCH   4  14
ATOM     14  O   UNL     1       7.555   5.702  15.293  0.00  0.00    +0.000 OA
ATOM     15  H   UNL     1       8.409   5.810  15.761  0.00  0.00    +0.000 HD
ENDBRANCH   4  14
BRANCH   5  16
ATOM     16  O   UNL     1       5.106   6.917  15.122  0.00  0.00    +0.000 OA
ATOM     17  H   UNL     1       4.293   6.522  14.746  0.00  0.00    +0.000 HD
ENDBRANCH   5  16
TORSDOF 6
ENDMDL
MODEL 4
REMARK VINA RESULT:      -5.7      1.736      3.207
REMARK  Name = 
REMARK  7 active torsions:
REMARK  status: ('A' for Active; 'I' for Inactive)
REMARK    1  A    between atoms: C_1  and  C_2
REMARK    2  A    between atoms: C_2  and  O_3
REMARK    3  A    between atoms: O_3  and  C_4
REMARK    4  A    between atoms: C_4  and  C_6
REMARK    5  A    between atoms: C_8  and  O_9
REMARK    6  A    between atoms: C_10  and  O_11
REMARK    7  A    between atoms: C_12  and  O_13
REMARK                            x       y       z     vdW  Elec       q    Type
REMARK                         _______ _______ _______ _____ _____    ______ ____
ROOT
ATOM      1  C   UNL     1       5.389   4.427  17.709  0.00  0.00    +0.000 A 
ATOM      2  C   UNL     1       6.188   5.581  17.796  0.00  0.00    +0.000 A 
ATOM      3  C   UNL     1       6.964   5.955  16.704  0.00  0.00    +0.000 A 
ATOM      4  C   UNL     1       6.942   5.195  15.538  0.00  0.00    +0.000 A 
ATOM      5  C   UNL     1       6.148   4.061  15.453  0.00  0.00    +0.000 A 
ATOM      6  C   UNL     1       5.366   3.669  16.527  0.00  0.00    +0.000 A 
ENDROOT
BRANCH   1   7
ATOM      7  C   UNL     1       4.663   3.986  18.929  0.00  0.00    +0.000 C 
ATOM      8  O   UNL     1       5.029   3.059  19.634  0.00  0.00    +0.000 OA
BRANCH   7   9
ATOM      9  O   UNL     1       3.499   4.669  19.033  0.00  0.00    +0.000 OA
BRANCH   9  11
ATOM     10  C   UNL     1       1.569   4.269  17.690  0.00  0.00    +0.000 C 
ATOM     11  C   UNL     1       2.306   3.881  18.962  0.00  0.00    +0.000 C 
ENDBRANCH   9  11
ENDBRANCH   7   9
ENDBRANCH   1   7
BRANCH   3  12
ATOM     12  O   UNL     1       7.779   7.050  16.734  0.00  0.00    +0.000 OA
ATOM     13  H   UNL     1       8.589   6.817  17.222  0.00  0.00    +0.000 HD
ENDBRANCH   3  12
BRANCH   4  14
ATOM     14  O   UNL     1       7.715   5.543  14.462  0.00  0.00    +0.000 OA
ATOM     15  H   UNL     1       8.256   6.293  14.785  0.00  0.00    +0.000 HD
ENDBRANCH   4  14
BRANCH   5  16
ATOM     16  O   UNL     1       6.141   3.306  14.317  0.00  0.00    +0.000 OA
ATOM     17  H   UNL     1       7.071   3.024  14.201  0.00  0.00    +0.000 HD
ENDBRANCH   5  16
TORSDOF 6
ENDMDL
MODEL 5
REMARK VINA RESULT:      -5.7      2.382      5.494
REMARK  Name = 
REMARK  7 active torsions:
REMARK  status: ('A' for Active; 'I' for Inactive)
REMARK    1  A    between atoms: C_1  and  C_2
REMARK    2  A    between atoms: C_2  and  O_3
REMARK    3  A    between atoms: O_3  and  C_4
REMARK    4  A    between atoms: C_4  and  C_6
REMARK    5  A    between atoms: C_8  and  O_9
REMARK    6  A    between atoms: C_10  and  O_11
REMARK    7  A    between atoms: C_12  and  O_13
REMARK                            x       y       z     vdW  Elec       q    Type
REMARK                         _______ _______ _______ _____ _____    ______ ____
ROOT
ATOM      1  C   UNL     1       6.408   4.680  15.870  0.00  0.00    +0.000 A 
ATOM      2  C   UNL     1       7.363   4.761  16.898  0.00  0.00    +0.000 A 
ATOM      3  C   UNL     1       6.938   4.962  18.208  0.00  0.00    +0.000 A 
ATOM      4  C   UNL     1       5.581   5.075  18.492  0.00  0.00    +0.000 A 
ATOM      5  C   UNL     1       4.640   4.988  17.477  0.00  0.00    +0.000 A 
ATOM      6  C   UNL     1       5.039   4.787  16.165  0.00  0.00    +0.000 A 
ENDROOT
BRANCH   1   7
ATOM      7  C   UNL     1       6.895   4.585  14.469  0.00  0.00    +0.000 C 
ATOM      8  O   UNL     1       7.682   5.375  13.972  0.00  0.00    +0.000 OA
BRANCH   7   9
ATOM      9  O   UNL     1       6.230   3.596  13.827  0.00  0.00    +0.000 OA
BRANCH   9  11
ATOM     10  C   UNL     1       5.029   3.201  11.804  0.00  0.00    +0.000 C 
ATOM     11  C   UNL     1       6.376   3.569  12.403  0.00  0.00    +0.000 C 
ENDBRANCH   9  11
ENDBRANCH   7   9
ENDBRANCH   1   7
BRANCH   3  12
ATOM     12  O   UNL     1       7.818   5.075  19.246  0.00  0.00    +0.000 OA
ATOM     13  H   UNL     1       7.667   4.333  19.859  0.00  0.00    +0.000 HD
ENDBRANCH   3  12
BRANCH   4  14
ATOM     14  O   UNL     1       5.151   5.290  19.774  0.00  0.00    +0.000 OA
ATOM     15  H   UNL     1       5.856   5.839  20.177  0.00  0.00    +0.000 HD
ENDBRANCH   4  14
BRANCH   5  16
ATOM     16  O   UNL     1       3.311   5.117  17.753  0.00  0.00    +0.000 OA
ATOM     17  H   UNL     1       2.857   4.713  16.984  0.00  0.00    +0.000 HD
ENDBRANCH   5  16
TORSDOF 6
ENDMDL
MODEL 6
REMARK VINA RESULT:      -5.7      1.735      2.079
REMARK  Name = 
REMARK  7 active torsions:
REMARK  status: ('A' for Active; 'I' for Inactive)
REMARK    1  A    between atoms: C_1  and  C_2
REMARK    2  A    between atoms: C_2  and  O_3
REMARK    3  A    between atoms: O_3  and  C_4
REMARK    4  A    between atoms: C_4  and  C_6
REMARK    5  A    between atoms: C_8  and  O_9
REMARK    6  A    between atoms: C_10  and  O_11
REMARK    7  A    between atoms: C_12  and  O_13
REMARK                            x       y       z     vdW  Elec       q    Type
REMARK                         _______ _______ _______ _____ _____    ______ ____
ROOT
ATOM      1  C   UNL     1       4.542   5.320  18.401  0.00  0.00    +0.000 A 
ATOM      2  C   UNL     1       4.336   6.078  17.236  0.00  0.00    +0.000 A 
ATOM      3  C   UNL     1       5.351   6.158  16.287  0.00  0.00    +0.000 A 
ATOM      4  C   UNL     1       6.553   5.487  16.492  0.00  0.00    +0.000 A 
ATOM      5  C   UNL     1       6.751   4.735  17.641  0.00  0.00    +0.000 A 
ATOM      6  C   UNL     1       5.755   4.640  18.599  0.00  0.00    +0.000 A 
ENDROOT
BRANCH   1   7
ATOM      7  C   UNL     1       3.489   5.350  19.450  0.00  0.00    +0.000 C 
ATOM      8  O   UNL     1       2.887   6.362  19.774  0.00  0.00    +0.000 OA
BRANCH   7   9
ATOM      9  O   UNL     1       3.421   4.141  20.055  0.00  0.00    +0.000 OA
BRANCH   9  11
ATOM     10  C   UNL     1       1.565   3.171  21.197  0.00  0.00    +0.000 C 
ATOM     11  C   UNL     1       2.212   3.405  19.842  0.00  0.00    +0.000 C 
ENDBRANCH   9  11
ENDBRANCH   7   9
ENDBRANCH   1   7
BRANCH   3  12
ATOM     12  O   UNL     1       5.222   6.898  15.146  0.00  0.00    +0.000 OA
ATOM     13  H   UNL     1       6.095   7.263  14.916  0.00  0.00    +0.000 HD
ENDBRANCH   3  12
BRANCH   4  14
ATOM     14  O   UNL     1       7.566   5.572  15.575  0.00  0.00    +0.000 OA
ATOM     15  H   UNL     1       7.227   5.087  14.794  0.00  0.00    +0.000 HD
ENDBRANCH   4  14
BRANCH   5  16
ATOM     16  O   UNL     1       7.936   4.093  17.851  0.00  0.00    +0.000 OA
ATOM     17  H   UNL     1       7.747   3.152  17.656  0.00  0.00    +0.000 HD
ENDBRANCH   5  16
TORSDOF 6
ENDMDL
MODEL 7
REMARK VINA RESULT:      -5.7      0.930      1.242
REMARK  Name = 
REMARK  7 active torsions:
REMARK  status: ('A' for Active; 'I' for Inactive)
REMARK    1  A    between atoms: C_1  and  C_2
REMARK    2  A    between atoms: C_2  and  O_3
REMARK    3  A    between atoms: O_3  and  C_4
REMARK    4  A    between atoms: C_4  and  C_6
REMARK    5  A    between atoms: C_8  and  O_9
REMARK    6  A    between atoms: C_10  and  O_11
REMARK    7  A    between atoms: C_12  and  O_13
REMARK                            x       y       z     vdW  Elec       q    Type
REMARK                         _______ _______ _______ _____ _____    ______ ____
ROOT
ATOM      1  C   UNL     1       4.076   5.163  18.020  0.00  0.00    +0.000 A 
ATOM      2  C   UNL     1       4.486   4.612  16.793  0.00  0.00    +0.000 A 
ATOM      3  C   UNL     1       5.827   4.289  16.607  0.00  0.00    +0.000 A 
ATOM      4  C   UNL     1       6.746   4.504  17.629  0.00  0.00    +0.000 A 
ATOM      5  C   UNL     1       6.337   5.042  18.841  0.00  0.00    +0.000 A 
ATOM      6  C   UNL     1       5.008   5.372  19.050  0.00  0.00    +0.000 A 
ENDROOT
BRANCH   1   7
ATOM      7  C   UNL     1       2.664   5.609  18.148  0.00  0.00    +0.000 C 
ATOM      8  O   UNL     1       2.340   6.748  18.445  0.00  0.00    +0.000 OA
BRANCH   7   9
ATOM      9  O   UNL     1       1.841   4.541  18.026  0.00  0.00    +0.000 OA
BRANCH   9  11
ATOM     10  C   UNL     1       1.012   4.063  20.212  0.00  0.00    +0.000 C 
ATOM     11  C   UNL     1       1.909   3.579  19.084  0.00  0.00    +0.000 C 
ENDBRANCH   9  11
ENDBRANCH   7   9
ENDBRANCH   1   7
BRANCH   3  12
ATOM     12  O   UNL     1       6.292   3.774  15.431  0.00  0.00    +0.000 OA
ATOM     13  H   UNL     1       6.113   4.417  14.721  0.00  0.00    +0.000 HD
ENDBRANCH   3  12
BRANCH   4  14
ATOM     14  O   UNL     1       8.070   4.206  17.452  0.00  0.00    +0.000 OA
ATOM     15  H   UNL     1       8.101   3.738  16.592  0.00  0.00    +0.000 HD
ENDBRANCH   4  14
BRANCH   5  16
ATOM     16  O   UNL     1       7.241   5.271  19.836  0.00  0.00    +0.000 OA
ATOM     17  H   UNL     1       8.022   4.733  19.590  0.00  0.00    +0.000 HD
ENDBRANCH   5  16
TORSDOF 6
ENDMDL
MODEL 8
REMARK VINA RESULT:      -5.7      1.141      2.606
REMARK  Name = 
REMARK  7 active torsions:
REMARK  status: ('A' for Active; 'I' for Inactive)
REMARK    1  A    between atoms: C_1  and  C_2
REMARK    2  A    between atoms: C_2  and  O_3
REMARK    3  A    between atoms: O_3  and  C_4
REMARK    4  A    between atoms: C_4  and  C_6
REMARK    5  A    between atoms: C_8  and  O_9
REMARK    6  A    between atoms: C_10  and  O_11
REMARK    7  A    between atoms: C_12  and  O_13
REMARK                            x       y       z     vdW  Elec       q    Type
REMARK                         _______ _______ _______ _____ _____    ______ ____
ROOT
ATOM      1  C   UNL     1       4.011   5.327  18.010  0.00  0.00    +0.000 A 
ATOM      2  C   UNL     1       4.894   5.616  19.065  0.00  0.00    +0.000 A 
ATOM      3  C   UNL     1       6.214   5.185  18.984  0.00  0.00    +0.000 A 
ATOM      4  C   UNL     1       6.653   4.482  17.866  0.00  0.00    +0.000 A 
ATOM      5  C   UNL     1       5.780   4.204  16.823  0.00  0.00    +0.000 A 
ATOM      6  C   UNL     1       4.461   4.623  16.881  0.00  0.00    +0.000 A 
ENDROOT
BRANCH   1   7
ATOM      7  C   UNL     1       2.579   5.695  18.175  0.00  0.00    +0.000 C 
ATOM      8  O   UNL     1       2.204   6.786  18.574  0.00  0.00    +0.000 OA
BRANCH   7   9
ATOM      9  O   UNL     1       1.807   4.605  17.955  0.00  0.00    +0.000 OA
BRANCH   9  11
ATOM     10  C   UNL     1       1.122   2.446  18.704  0.00  0.00    +0.000 C 
ATOM     11  C   UNL     1       1.405   3.880  19.122  0.00  0.00    +0.000 C 
ENDBRANCH   9  11
ENDBRANCH   7   9
ENDBRANCH   1   7
BRANCH   3  12
ATOM     12  O   UNL     1       7.114   5.412  19.986  0.00  0.00    +0.000 OA
ATOM     13  H   UNL     1       8.007   5.435  19.599  0.00  0.00    +0.000 HD
ENDBRANCH   3  12
BRANCH   4  14
ATOM     14  O   UNL     1       7.945   4.037  17.783  0.00  0.00    +0.000 OA
ATOM     15  H   UNL     1       8.483   4.801  18.077  0.00  0.00    +0.000 HD
ENDBRANCH   4  14
BRANCH   5  16
ATOM     16  O   UNL     1       6.205   3.498  15.736  0.00  0.00    +0.000 OA
ATOM     17  H   UNL     1       7.159   3.707  15.662  0.00  0.00    +0.000 HD
ENDBRANCH   5  16
TORSDOF 6
ENDMDL
MODEL 9
REMARK VINA RESULT:      -5.7      2.053      5.197
REMARK  Name = 
REMARK  7 active torsions:
REMARK  status: ('A' for Active; 'I' for Inactive)
REMARK    1  A    between atoms: C_1  and  C_2
REMARK    2  A    between atoms: C_2  and  O_3
REMARK    3  A    between atoms: O_3  and  C_4
REMARK    4  A    between atoms: C_4  and  C_6
REMARK    5  A    between atoms: C_8  and  O_9
REMARK    6  A    between atoms: C_10  and  O_11
REMARK    7  A    between atoms: C_12  and  O_13
REMARK                            x       y       z     vdW  Elec       q    Type
REMARK                         _______ _______ _______ _____ _____    ______ ____
ROOT
ATOM      1  C   UNL     1       6.131   4.644  16.191  0.00  0.00    +0.000 A 
ATOM      2  C   UNL     1       4.778   4.265  16.198  0.00  0.00    +0.000 A 
ATOM      3  C   UNL     1       4.094   4.205  17.408  0.00  0.00    +0.000 A 
ATOM      4  C   UNL     1       4.746   4.523  18.596  0.00  0.00    +0.000 A 
ATOM      5  C   UNL     1       6.080   4.903  18.585  0.00  0.00    +0.000 A 
ATOM      6  C   UNL     1       6.782   4.971  17.392  0.00  0.00    +0.000 A 
ENDROOT
BRANCH   1   7
ATOM      7  C   UNL     1       6.868   4.584  14.901  0.00  0.00    +0.000 C 
ATOM      8  O   UNL     1       7.754   5.365  14.592  0.00  0.00    +0.000 OA
BRANCH   7   9
ATOM      9  O   UNL     1       6.309   3.642  14.106  0.00  0.00    +0.000 OA
BRANCH   9  11
ATOM     10  C   UNL     1       5.350   3.144  11.979  0.00  0.00    +0.000 C 
ATOM     11  C   UNL     1       6.507   3.816  12.699  0.00  0.00    +0.000 C 
ENDBRANCH   9  11
ENDBRANCH   7   9
ENDBRANCH   1   7
BRANCH   3  12
ATOM     12  O   UNL     1       2.786   3.820  17.484  0.00  0.00    +0.000 OA
ATOM     13  H   UNL     1       2.438   3.731  16.578  0.00  0.00    +0.000 HD
ENDBRANCH   3  12
BRANCH   4  14
ATOM     14  O   UNL     1       4.089   4.451  19.795  0.00  0.00    +0.000 OA
ATOM     15  H   UNL     1       3.220   4.057  19.572  0.00  0.00    +0.000 HD
ENDBRANCH   4  14
BRANCH   5  16
ATOM     16  O   UNL     1       6.724   5.197  19.751  0.00  0.00    +0.000 OA
ATOM     17  H   UNL     1       6.947   6.148  19.678  0.00  0.00    +0.000 HD
ENDBRANCH   5  16
TORSDOF 6
ENDMDL
