MODEL 1
REMARK VINA RESULT:      -8.5      0.000      0.000
REMARK  Name = 
REMARK  5 active torsions:
REMARK  status: ('A' for Active; 'I' for Inactive)
REMARK    1  A    between atoms: C_1  and  C_2
REMARK    2  A    between atoms: C_5  and  N_6
REMARK    3  A    between atoms: C_11  and  C_12
REMARK    4  A    between atoms: C_17  and  N_18
REMARK    5  A    between atoms: C_27  and  C_28
REMARK                            x       y       z     vdW  Elec       q    Type
REMARK                         _______ _______ _______ _____ _____    ______ ____
ROOT
ATOM      1  N   UNL     1       1.045   9.528  19.433  0.00  0.00    +0.000 N 
ATOM      2  N   UNL     1       1.406   9.397  18.084  0.00  0.00    +0.000 N 
ATOM      3  C   UNL     1       2.251   8.318  17.913  0.00  0.00    +0.000 C 
ATOM      4  O   UNL     1       2.923   8.059  16.934  0.00  0.00    +0.000 OA
ATOM      5  C   UNL     1       2.210   7.599  19.200  0.00  0.00    +0.000 C 
ATOM      6  C   UNL     1       2.751   6.417  19.523  0.00  0.00    +0.000 C 
ATOM      7  C   UNL     1       1.471   8.427  20.182  0.00  0.00    +0.000 C 
ATOM      8  O   UNL     1       1.291   8.134  21.352  0.00  0.00    +0.000 OA
ATOM      9  H   UNL     1       1.533  10.216  17.502  0.00  0.00    +0.000 HD
ENDROOT
BRANCH   6  10
ATOM     10  C   UNL     1       3.531   5.578  18.606  0.00  0.00    +0.000 A 
ATOM     11  C   UNL     1       4.876   5.958  18.436  0.00  0.00    +0.000 A 
ATOM     12  C   UNL     1       5.651   5.257  17.537  0.00  0.00    +0.000 A 
ATOM     13  C   UNL     1       5.154   4.196  16.823  0.00  0.00    +0.000 A 
ATOM     14  C   UNL     1       3.856   3.762  16.975  0.00  0.00    +0.000 A 
ATOM     15  C   UNL     1       3.029   4.461  17.878  0.00  0.00    +0.000 A 
ATOM     16  O   UNL     1       6.074   3.668  15.972  0.00  0.00    +0.000 OA
ATOM     17  C   UNL     1       7.186   4.565  16.183  0.00  0.00    +0.000 C 
ATOM     18  O   UNL     1       6.949   5.526  17.233  0.00  0.00    +0.000 OA
BRANCH  15  19
ATOM     19  N   UNL     1       1.634   3.995  18.012  0.00  0.00    +0.000 N 
ATOM     20  O   UNL     1       1.307   3.356  19.020  0.00  0.00    +0.000 OA
ATOM     21  O   UNL     1       0.846   4.283  17.099  0.00  0.00    +0.000 OA
ENDBRANCH  15  19
ENDBRANCH   6  10
BRANCH   1  26
ATOM     22  C   UNL     1      -1.756  14.115  21.431  0.00  0.00    +0.000 C 
ATOM     23  C   UNL     1      -1.047  12.907  20.884  0.00  0.00    +0.000 A 
ATOM     24  C   UNL     1       0.268  12.649  21.290  0.00  0.00    +0.000 A 
ATOM     25  C   UNL     1       0.948  11.524  20.826  0.00  0.00    +0.000 A 
ATOM     26  C   UNL     1       0.346  10.654  19.916  0.00  0.00    +0.000 A 
ATOM     27  C   UNL     1      -0.960  10.924  19.486  0.00  0.00    +0.000 A 
ATOM     28  C   UNL     1      -1.678  12.025  19.986  0.00  0.00    +0.000 A 
ATOM     29  C   UNL     1      -3.113  12.219  19.576  0.00  0.00    +0.000 C 
ENDBRANCH   1  26
TORSDOF 3
ENDMDL
MODEL 2
REMARK VINA RESULT:      -8.4      0.752      1.153
REMARK  Name = 
REMARK  5 active torsions:
REMARK  status: ('A' for Active; 'I' for Inactive)
REMARK    1  A    between atoms: C_1  and  C_2
REMARK    2  A    between atoms: C_5  and  N_6
REMARK    3  A    between atoms: C_11  and  C_12
REMARK    4  A    between atoms: C_17  and  N_18
REMARK    5  A    between atoms: C_27  and  C_28
REMARK                            x       y       z     vdW  Elec       q    Type
REMARK                         _______ _______ _______ _____ _____    ______ ____
ROOT
ATOM      1  N   UNL     1       1.065   9.474  19.553  0.00  0.00    +0.000 N 
ATOM      2  N   UNL     1       1.379   9.357  18.190  0.00  0.00    +0.000 N 
ATOM      3  C   UNL     1       2.226   8.288  17.980  0.00  0.00    +0.000 C 
ATOM      4  O   UNL     1       2.866   8.043  16.976  0.00  0.00    +0.000 OA
ATOM      5  C   UNL     1       2.237   7.557  19.261  0.00  0.00    +0.000 C 
ATOM      6  C   UNL     1       2.799   6.377  19.554  0.00  0.00    +0.000 C 
ATOM      7  C   UNL     1       1.525   8.370  20.276  0.00  0.00    +0.000 C 
ATOM      8  O   UNL     1       1.389   8.065  21.449  0.00  0.00    +0.000 OA
ATOM      9  H   UNL     1       1.479  10.182  17.612  0.00  0.00    +0.000 HD
ENDROOT
BRANCH   6  10
ATOM     10  C   UNL     1       3.553   5.553  18.602  0.00  0.00    +0.000 A 
ATOM     11  C   UNL     1       4.898   5.923  18.417  0.00  0.00    +0.000 A 
ATOM     12  C   UNL     1       5.650   5.237  17.488  0.00  0.00    +0.000 A 
ATOM     13  C   UNL     1       5.129   4.199  16.757  0.00  0.00    +0.000 A 
ATOM     14  C   UNL     1       3.829   3.774  16.922  0.00  0.00    +0.000 A 
ATOM     15  C   UNL     1       3.026   4.458  17.858  0.00  0.00    +0.000 A 
ATOM     16  O   UNL     1       6.028   3.682  15.877  0.00  0.00    +0.000 OA
ATOM     17  C   UNL     1       7.152   4.563  16.089  0.00  0.00    +0.000 C 
ATOM     18  O   UNL     1       6.944   5.501  17.166  0.00  0.00    +0.000 OA
BRANCH  15  19
ATOM     19  N   UNL     1       1.629   4.003  18.006  0.00  0.00    +0.000 N 
ATOM     20  O   UNL     1       0.814   4.262  17.112  0.00  0.00    +0.000 OA
ATOM     21  O   UNL     1       1.342   3.364  19.030  0.00  0.00    +0.000 OA
ENDBRANCH  15  19
ENDBRANCH   6  10
BRANCH   1  26
ATOM     22  C   UNL     1      -1.724  14.038  21.617  0.00  0.00    +0.000 C 
ATOM     23  C   UNL     1      -1.009  12.821  21.099  0.00  0.00    +0.000 A 
ATOM     24  C   UNL     1      -0.295  12.912  19.898  0.00  0.00    +0.000 A 
ATOM     25  C   UNL     1       0.405  11.813  19.402  0.00  0.00    +0.000 A 
ATOM     26  C   UNL     1       0.374  10.589  20.070  0.00  0.00    +0.000 A 
ATOM     27  C   UNL     1      -0.364  10.486  21.258  0.00  0.00    +0.000 A 
ATOM     28  C   UNL     1      -1.029  11.600  21.800  0.00  0.00    +0.000 A 
ATOM     29  C   UNL     1      -1.721  11.472  23.129  0.00  0.00    +0.000 C 
ENDBRANCH   1  26
TORSDOF 3
ENDMDL
MODEL 3
REMARK VINA RESULT:      -8.4      3.015      9.367
REMARK  Name = 
REMARK  5 active torsions:
REMARK  status: ('A' for Active; 'I' for Inactive)
REMARK    1  A    between atoms: C_1  and  C_2
REMARK    2  A    between atoms: C_5  and  N_6
REMARK    3  A    between atoms: C_11  and  C_12
REMARK    4  A    between atoms: C_17  and  N_18
REMARK    5  A    between atoms: C_27  and  C_28
REMARK                            x       y       z     vdW  Elec       q    Type
REMARK                         _______ _______ _______ _____ _____    ______ ____
ROOT
ATOM      1  N   UNL     1       1.832   8.061  19.653  0.00  0.00    +0.000 N 
ATOM      2  N   UNL     1       1.734   8.125  21.051  0.00  0.00    +0.000 N 
ATOM      3  C   UNL     1       1.182   9.327  21.442  0.00  0.00    +0.000 C 
ATOM      4  O   UNL     1       1.165   9.799  22.562  0.00  0.00    +0.000 OA
ATOM      5  C   UNL     1       0.685   9.938  20.195  0.00  0.00    +0.000 C 
ATOM      6  C   UNL     1      -0.047  11.049  20.032  0.00  0.00    +0.000 C 
ATOM      7  C   UNL     1       1.164   9.130  19.049  0.00  0.00    +0.000 C 
ATOM      8  O   UNL     1       0.958   9.388  17.874  0.00  0.00    +0.000 OA
ATOM      9  H   UNL     1       2.441   7.696  21.637  0.00  0.00    +0.000 HD
ENDROOT
BRANCH   6  10
ATOM     10  C   UNL     1      -0.508  11.911  21.127  0.00  0.00    +0.000 A 
ATOM     11  C   UNL     1      -1.700  11.503  21.755  0.00  0.00    +0.000 A 
ATOM     12  C   UNL     1      -2.230  12.300  22.746  0.00  0.00    +0.000 A 
ATOM     13  C   UNL     1      -1.621  13.463  23.145  0.00  0.00    +0.000 A 
ATOM     14  C   UNL     1      -0.436  13.891  22.587  0.00  0.00    +0.000 A 
ATOM     15  C   UNL     1       0.131  13.106  21.563  0.00  0.00    +0.000 A 
ATOM     16  O   UNL     1      -2.324  14.112  24.111  0.00  0.00    +0.000 OA
ATOM     17  C   UNL     1      -3.483  13.258  24.223  0.00  0.00    +0.000 C 
ATOM     18  O   UNL     1      -3.390  12.066  23.416  0.00  0.00    +0.000 OA
BRANCH  15  19
ATOM     19  N   UNL     1       1.390  13.592  20.961  0.00  0.00    +0.000 N 
ATOM     20  O   UNL     1       1.337  14.385  20.013  0.00  0.00    +0.000 OA
ATOM     21  O   UNL     1       2.453  13.184  21.454  0.00  0.00    +0.000 OA
ENDBRANCH  15  19
ENDBRANCH   6  10
BRANCH   1  26
ATOM     22  C   UNL     1       4.657   3.823  17.019  0.00  0.00    +0.000 C 
ATOM     23  C   UNL     1       3.927   4.956  17.684  0.00  0.00    +0.000 A 
ATOM     24  C   UNL     1       3.049   4.674  18.739  0.00  0.00    +0.000 A 
ATOM     25  C   UNL     1       2.376   5.701  19.399  0.00  0.00    +0.000 A 
ATOM     26  C   UNL     1       2.532   7.027  18.996  0.00  0.00    +0.000 A 
ATOM     27  C   UNL     1       3.387   7.311  17.923  0.00  0.00    +0.000 A 
ATOM     28  C   UNL     1       4.115   6.293  17.283  0.00  0.00    +0.000 A 
ATOM     29  C   UNL     1       5.100   6.654  16.204  0.00  0.00    +0.000 C 
ENDBRANCH   1  26
TORSDOF 3
ENDMDL
MODEL 4
REMARK VINA RESULT:      -8.3      0.402      1.334
REMARK  Name = 
REMARK  5 active torsions:
REMARK  status: ('A' for Active; 'I' for Inactive)
REMARK    1  A    between atoms: C_1  and  C_2
REMARK    2  A    between atoms: C_5  and  N_6
REMARK    3  A    between atoms: C_11  and  C_12
REMARK    4  A    between atoms: C_17  and  N_18
REMARK    5  A    between atoms: C_27  and  C_28
REMARK                            x       y       z     vdW  Elec       q    Type
REMARK                         _______ _______ _______ _____ _____    ______ ____
ROOT
ATOM      1  N   UNL     1       1.083   9.624  19.326  0.00  0.00    +0.000 N 
ATOM      2  N   UNL     1       1.466   9.482  17.984  0.00  0.00    +0.000 N 
ATOM      3  C   UNL     1       2.274   8.374  17.826  0.00  0.00    +0.000 C 
ATOM      4  O   UNL     1       2.956   8.093  16.860  0.00  0.00    +0.000 OA
ATOM      5  C   UNL     1       2.181   7.654  19.110  0.00  0.00    +0.000 C 
ATOM      6  C   UNL     1       2.672   6.452  19.441  0.00  0.00    +0.000 C 
ATOM      7  C   UNL     1       1.453   8.506  20.080  0.00  0.00    +0.000 C 
ATOM      8  O   UNL     1       1.239   8.217  21.245  0.00  0.00    +0.000 OA
ATOM      9  H   UNL     1       1.635  10.298  17.407  0.00  0.00    +0.000 HD
ENDROOT
BRANCH   6  10
ATOM     10  C   UNL     1       3.439   5.587  18.536  0.00  0.00    +0.000 A 
ATOM     11  C   UNL     1       4.791   5.939  18.367  0.00  0.00    +0.000 A 
ATOM     12  C   UNL     1       5.556   5.212  17.480  0.00  0.00    +0.000 A 
ATOM     13  C   UNL     1       5.041   4.153  16.776  0.00  0.00    +0.000 A 
ATOM     14  C   UNL     1       3.734   3.746  16.929  0.00  0.00    +0.000 A 
ATOM     15  C   UNL     1       2.918   4.471  17.820  0.00  0.00    +0.000 A 
ATOM     16  O   UNL     1       5.954   3.597  15.936  0.00  0.00    +0.000 OA
ATOM     17  C   UNL     1       7.082   4.475  16.140  0.00  0.00    +0.000 C 
ATOM     18  O   UNL     1       6.860   5.453  17.177  0.00  0.00    +0.000 OA
BRANCH  15  19
ATOM     19  N   UNL     1       1.513   4.034  17.954  0.00  0.00    +0.000 N 
ATOM     20  O   UNL     1       1.186   3.352  18.934  0.00  0.00    +0.000 OA
ATOM     21  O   UNL     1       0.718   4.387  17.070  0.00  0.00    +0.000 OA
ENDBRANCH  15  19
ENDBRANCH   6  10
BRANCH   1  26
ATOM     22  C   UNL     1      -1.676  14.277  21.226  0.00  0.00    +0.000 C 
ATOM     23  C   UNL     1      -0.923  13.069  20.744  0.00  0.00    +0.000 A 
ATOM     24  C   UNL     1      -1.636  12.006  20.175  0.00  0.00    +0.000 A 
ATOM     25  C   UNL     1      -0.970  10.881  19.690  0.00  0.00    +0.000 A 
ATOM     26  C   UNL     1       0.416  10.773  19.799  0.00  0.00    +0.000 A 
ATOM     27  C   UNL     1       1.131  11.822  20.393  0.00  0.00    +0.000 A 
ATOM     28  C   UNL     1       0.480  12.987  20.837  0.00  0.00    +0.000 A 
ATOM     29  C   UNL     1       1.296  14.131  21.374  0.00  0.00    +0.000 C 
ENDBRANCH   1  26
TORSDOF 3
ENDMDL
MODEL 5
REMARK VINA RESULT:      -8.3      3.009      9.286
REMARK  Name = 
REMARK  5 active torsions:
REMARK  status: ('A' for Active; 'I' for Inactive)
REMARK    1  A    between atoms: C_1  and  C_2
REMARK    2  A    between atoms: C_5  and  N_6
REMARK    3  A    between atoms: C_11  and  C_12
REMARK    4  A    between atoms: C_17  and  N_18
REMARK    5  A    between atoms: C_27  and  C_28
REMARK                            x       y       z     vdW  Elec       q    Type
REMARK                         _______ _______ _______ _____ _____    ______ ____
ROOT
ATOM      1  N   UNL     1       1.865   8.085  19.407  0.00  0.00    +0.000 N 
ATOM      2  N   UNL     1       1.794   8.111  20.808  0.00  0.00    +0.000 N 
ATOM      3  C   UNL     1       1.239   9.297  21.242  0.00  0.00    +0.000 C 
ATOM      4  O   UNL     1       1.239   9.739  22.375  0.00  0.00    +0.000 OA
ATOM      5  C   UNL     1       0.713   9.937  20.021  0.00  0.00    +0.000 C 
ATOM      6  C   UNL     1      -0.030  11.045  19.902  0.00  0.00    +0.000 C 
ATOM      7  C   UNL     1       1.178   9.164  18.845  0.00  0.00    +0.000 C 
ATOM      8  O   UNL     1       0.947   9.452  17.682  0.00  0.00    +0.000 OA
ATOM      9  H   UNL     1       2.514   7.673  21.369  0.00  0.00    +0.000 HD
ENDROOT
BRANCH   6  10
ATOM     10  C   UNL     1      -0.478  11.873  21.028  0.00  0.00    +0.000 A 
ATOM     11  C   UNL     1      -1.674  11.460  21.644  0.00  0.00    +0.000 A 
ATOM     12  C   UNL     1      -2.191  12.228  22.664  0.00  0.00    +0.000 A 
ATOM     13  C   UNL     1      -1.565  13.368  23.104  0.00  0.00    +0.000 A 
ATOM     14  C   UNL     1      -0.376  13.799  22.559  0.00  0.00    +0.000 A 
ATOM     15  C   UNL     1       0.179  13.044  21.506  0.00  0.00    +0.000 A 
ATOM     16  O   UNL     1      -2.258  13.990  24.094  0.00  0.00    +0.000 OA
ATOM     17  C   UNL     1      -3.428  13.149  24.178  0.00  0.00    +0.000 C 
ATOM     18  O   UNL     1      -3.353  11.985  23.328  0.00  0.00    +0.000 OA
BRANCH  15  19
ATOM     19  N   UNL     1       1.443  13.534  20.919  0.00  0.00    +0.000 N 
ATOM     20  O   UNL     1       2.515  13.067  21.325  0.00  0.00    +0.000 OA
ATOM     21  O   UNL     1       1.364  14.393  20.028  0.00  0.00    +0.000 OA
ENDBRANCH  15  19
ENDBRANCH   6  10
BRANCH   1  26
ATOM     22  C   UNL     1       4.725   4.019  16.550  0.00  0.00    +0.000 C 
ATOM     23  C   UNL     1       3.956   5.060  17.315  0.00  0.00    +0.000 A 
ATOM     24  C   UNL     1       4.400   6.389  17.289  0.00  0.00    +0.000 A 
ATOM     25  C   UNL     1       3.697   7.386  17.962  0.00  0.00    +0.000 A 
ATOM     26  C   UNL     1       2.561   7.076  18.710  0.00  0.00    +0.000 A 
ATOM     27  C   UNL     1       2.130   5.743  18.762  0.00  0.00    +0.000 A 
ATOM     28  C   UNL     1       2.796   4.735  18.043  0.00  0.00    +0.000 A 
ATOM     29  C   UNL     1       2.239   3.337  18.043  0.00  0.00    +0.000 C 
ENDBRANCH   1  26
TORSDOF 3
ENDMDL
MODEL 6
REMARK VINA RESULT:      -8.2      0.805      1.083
REMARK  Name = 
REMARK  5 active torsions:
REMARK  status: ('A' for Active; 'I' for Inactive)
REMARK    1  A    between atoms: C_1  and  C_2
REMARK    2  A    between atoms: C_5  and  N_6
REMARK    3  A    between atoms: C_11  and  C_12
REMARK    4  A    between atoms: C_17  and  N_18
REMARK    5  A    between atoms: C_27  and  C_28
REMARK                            x       y       z     vdW  Elec       q    Type
REMARK                         _______ _______ _______ _____ _____    ______ ____
ROOT
ATOM      1  N   UNL     1       1.087   9.251  19.850  0.00  0.00    +0.000 N 
ATOM      2  N   UNL     1       1.391   9.231  18.481  0.00  0.00    +0.000 N 
ATOM      3  C   UNL     1       2.245   8.186  18.190  0.00  0.00    +0.000 C 
ATOM      4  O   UNL     1       2.878   8.017  17.166  0.00  0.00    +0.000 OA
ATOM      5  C   UNL     1       2.273   7.369  19.417  0.00  0.00    +0.000 C 
ATOM      6  C   UNL     1       2.847   6.176  19.624  0.00  0.00    +0.000 C 
ATOM      7  C   UNL     1       1.563   8.104  20.491  0.00  0.00    +0.000 C 
ATOM      8  O   UNL     1       1.440   7.717  21.642  0.00  0.00    +0.000 OA
ATOM      9  H   UNL     1       1.478  10.095  17.960  0.00  0.00    +0.000 HD
ENDROOT
BRANCH   6  10
ATOM     10  C   UNL     1       3.600   5.427  18.611  0.00  0.00    +0.000 A 
ATOM     11  C   UNL     1       4.942   5.818  18.445  0.00  0.00    +0.000 A 
ATOM     12  C   UNL     1       5.691   5.204  17.464  0.00  0.00    +0.000 A 
ATOM     13  C   UNL     1       5.172   4.218  16.664  0.00  0.00    +0.000 A 
ATOM     14  C   UNL     1       3.876   3.774  16.807  0.00  0.00    +0.000 A 
ATOM     15  C   UNL     1       3.075   4.385  17.794  0.00  0.00    +0.000 A 
ATOM     16  O   UNL     1       6.068   3.771  15.745  0.00  0.00    +0.000 OA
ATOM     17  C   UNL     1       7.189   4.641  16.012  0.00  0.00    +0.000 C 
ATOM     18  O   UNL     1       6.982   5.499  17.153  0.00  0.00    +0.000 OA
BRANCH  15  19
ATOM     19  N   UNL     1       1.681   3.912  17.918  0.00  0.00    +0.000 N 
ATOM     20  O   UNL     1       0.823   4.359  17.148  0.00  0.00    +0.000 OA
ATOM     21  O   UNL     1       1.441   3.067  18.794  0.00  0.00    +0.000 OA
ENDBRANCH  15  19
ENDBRANCH   6  10
BRANCH   1  26
ATOM     22  C   UNL     1      -1.755  13.570  22.327  0.00  0.00    +0.000 C 
ATOM     23  C   UNL     1      -1.000  12.459  21.652  0.00  0.00    +0.000 A 
ATOM     24  C   UNL     1      -0.791  11.260  22.345  0.00  0.00    +0.000 A 
ATOM     25  C   UNL     1      -0.121  10.197  21.741  0.00  0.00    +0.000 A 
ATOM     26  C   UNL     1       0.391  10.321  20.449  0.00  0.00    +0.000 A 
ATOM     27  C   UNL     1       0.208  11.529  19.762  0.00  0.00    +0.000 A 
ATOM     28  C   UNL     1      -0.513  12.590  20.337  0.00  0.00    +0.000 A 
ATOM     29  C   UNL     1      -0.775  13.830  19.526  0.00  0.00    +0.000 C 
ENDBRANCH   1  26
TORSDOF 3
ENDMDL
MODEL 7
REMARK VINA RESULT:      -8.0      3.047      8.285
REMARK  Name = 
REMARK  5 active torsions:
REMARK  status: ('A' for Active; 'I' for Inactive)
REMARK    1  A    between atoms: C_1  and  C_2
REMARK    2  A    between atoms: C_5  and  N_6
REMARK    3  A    between atoms: C_11  and  C_12
REMARK    4  A    between atoms: C_17  and  N_18
REMARK    5  A    between atoms: C_27  and  C_28
REMARK                            x       y       z     vdW  Elec       q    Type
REMARK                         _______ _______ _______ _____ _____    ______ ____
ROOT
ATOM      1  N   UNL     1       2.431   7.106  19.064  0.00  0.00    +0.000 N 
ATOM      2  N   UNL     1       2.816   7.976  18.033  0.00  0.00    +0.000 N 
ATOM      3  C   UNL     1       2.149   9.180  18.143  0.00  0.00    +0.000 C 
ATOM      4  O   UNL     1       2.072  10.057  17.305  0.00  0.00    +0.000 OA
ATOM      5  C   UNL     1       1.498   9.131  19.465  0.00  0.00    +0.000 C 
ATOM      6  C   UNL     1       0.832  10.096  20.114  0.00  0.00    +0.000 C 
ATOM      7  C   UNL     1       1.648   7.764  20.017  0.00  0.00    +0.000 C 
ATOM      8  O   UNL     1       1.188   7.382  21.081  0.00  0.00    +0.000 OA
ATOM      9  H   UNL     1       3.032   7.618  17.111  0.00  0.00    +0.000 HD
ENDROOT
BRANCH   6  10
ATOM     10  C   UNL     1       0.614  11.452  19.595  0.00  0.00    +0.000 A 
ATOM     11  C   UNL     1       1.565  12.410  19.991  0.00  0.00    +0.000 A 
ATOM     12  C   UNL     1       1.386  13.719  19.597  0.00  0.00    +0.000 A 
ATOM     13  C   UNL     1       0.323  14.105  18.821  0.00  0.00    +0.000 A 
ATOM     14  C   UNL     1      -0.619  13.202  18.379  0.00  0.00    +0.000 A 
ATOM     15  C   UNL     1      -0.475  11.855  18.769  0.00  0.00    +0.000 A 
ATOM     16  O   UNL     1       0.319  15.442  18.575  0.00  0.00    +0.000 OA
ATOM     17  C   UNL     1       1.465  15.863  19.345  0.00  0.00    +0.000 C 
ATOM     18  O   UNL     1       2.191  14.763  19.932  0.00  0.00    +0.000 OA
BRANCH  15  19
ATOM     19  N   UNL     1      -1.506  10.905  18.303  0.00  0.00    +0.000 N 
ATOM     20  O   UNL     1      -1.208  10.070  17.440  0.00  0.00    +0.000 OA
ATOM     21  O   UNL     1      -2.631  10.986  18.818  0.00  0.00    +0.000 OA
ENDBRANCH  15  19
ENDBRANCH   6  10
BRANCH   1  26
ATOM     22  C   UNL     1       4.039   1.603  19.139  0.00  0.00    +0.000 C 
ATOM     23  C   UNL     1       3.584   3.036  19.121  0.00  0.00    +0.000 A 
ATOM     24  C   UNL     1       4.534   4.053  19.277  0.00  0.00    +0.000 A 
ATOM     25  C   UNL     1       4.154   5.394  19.237  0.00  0.00    +0.000 A 
ATOM     26  C   UNL     1       2.814   5.749  19.082  0.00  0.00    +0.000 A 
ATOM     27  C   UNL     1       1.856   4.733  18.955  0.00  0.00    +0.000 A 
ATOM     28  C   UNL     1       2.231   3.378  18.937  0.00  0.00    +0.000 A 
ATOM     29  C   UNL     1       1.183   2.326  18.694  0.00  0.00    +0.000 C 
ENDBRANCH   1  26
TORSDOF 3
ENDMDL
MODEL 8
REMARK VINA RESULT:      -8.0      2.182      3.582
REMARK  Name = 
REMARK  5 active torsions:
REMARK  status: ('A' for Active; 'I' for Inactive)
REMARK    1  A    between atoms: C_1  and  C_2
REMARK    2  A    between atoms: C_5  and  N_6
REMARK    3  A    between atoms: C_11  and  C_12
REMARK    4  A    between atoms: C_17  and  N_18
REMARK    5  A    between atoms: C_27  and  C_28
REMARK                            x       y       z     vdW  Elec       q    Type
REMARK                         _______ _______ _______ _____ _____    ______ ____
ROOT
ATOM      1  N   UNL     1       2.305   7.798  19.136  0.00  0.00    +0.000 N 
ATOM      2  N   UNL     1       2.709   8.355  17.914  0.00  0.00    +0.000 N 
ATOM      3  C   UNL     1       3.660   7.558  17.310  0.00  0.00    +0.000 C 
ATOM      4  O   UNL     1       4.378   7.850  16.374  0.00  0.00    +0.000 OA
ATOM      5  C   UNL     1       3.659   6.309  18.096  0.00  0.00    +0.000 C 
ATOM      6  C   UNL     1       4.306   5.161  17.855  0.00  0.00    +0.000 C 
ATOM      7  C   UNL     1       2.818   6.508  19.300  0.00  0.00    +0.000 C 
ATOM      8  O   UNL     1       2.640   5.678  20.175  0.00  0.00    +0.000 OA
ATOM      9  H   UNL     1       2.769   9.360  17.801  0.00  0.00    +0.000 HD
ENDROOT
BRANCH   6  10
ATOM     10  C   UNL     1       5.187   4.925  16.705  0.00  0.00    +0.000 A 
ATOM     11  C   UNL     1       4.544   4.491  15.532  0.00  0.00    +0.000 A 
ATOM     12  C   UNL     1       5.315   4.184  14.431  0.00  0.00    +0.000 A 
ATOM     13  C   UNL     1       6.682   4.308  14.446  0.00  0.00    +0.000 A 
ATOM     14  C   UNL     1       7.359   4.760  15.557  0.00  0.00    +0.000 A 
ATOM     15  C   UNL     1       6.604   5.074  16.706  0.00  0.00    +0.000 A 
ATOM     16  O   UNL     1       7.249   3.925  13.271  0.00  0.00    +0.000 OA
ATOM     17  C   UNL     1       6.087   3.478  12.540  0.00  0.00    +0.000 C 
ATOM     18  O   UNL     1       4.849   3.715  13.243  0.00  0.00    +0.000 OA
BRANCH  15  19
ATOM     19  N   UNL     1       7.348   5.537  17.895  0.00  0.00    +0.000 N 
ATOM     20  O   UNL     1       7.833   4.698  18.665  0.00  0.00    +0.000 OA
ATOM     21  O   UNL     1       7.462   6.761  18.057  0.00  0.00    +0.000 OA
ENDBRANCH  15  19
ENDBRANCH   6  10
BRANCH   1  26
ATOM     22  C   UNL     1      -1.008  10.612  22.875  0.00  0.00    +0.000 C 
ATOM     23  C   UNL     1      -0.147   9.899  21.871  0.00  0.00    +0.000 A 
ATOM     24  C   UNL     1       0.695   8.868  22.307  0.00  0.00    +0.000 A 
ATOM     25  C   UNL     1       1.486   8.163  21.400  0.00  0.00    +0.000 A 
ATOM     26  C   UNL     1       1.486   8.499  20.046  0.00  0.00    +0.000 A 
ATOM     27  C   UNL     1       0.666   9.549  19.610  0.00  0.00    +0.000 A 
ATOM     28  C   UNL     1      -0.178  10.231  20.503  0.00  0.00    +0.000 A 
ATOM     29  C   UNL     1      -1.117  11.282  19.975  0.00  0.00    +0.000 C 
ENDBRANCH   1  26
TORSDOF 3
ENDMDL
MODEL 9
REMARK VINA RESULT:      -8.0      3.887     10.047
REMARK  Name = 
REMARK  5 active torsions:
REMARK  status: ('A' for Active; 'I' for Inactive)
REMARK    1  A    between atoms: C_1  and  C_2
REMARK    2  A    between atoms: C_5  and  N_6
REMARK    3  A    between atoms: C_11  and  C_12
REMARK    4  A    between atoms: C_17  and  N_18
REMARK    5  A    between atoms: C_27  and  C_28
REMARK                            x       y       z     vdW  Elec       q    Type
REMARK                         _______ _______ _______ _____ _____    ______ ____
ROOT
ATOM      1  N   UNL     1       0.648   9.755  20.131  0.00  0.00    +0.000 N 
ATOM      2  N   UNL     1      -0.267  10.542  19.416  0.00  0.00    +0.000 N 
ATOM      3  C   UNL     1      -1.077  11.248  20.282  0.00  0.00    +0.000 C 
ATOM      4  O   UNL     1      -2.106  11.836  20.012  0.00  0.00    +0.000 OA
ATOM      5  C   UNL     1      -0.458  11.068  21.609  0.00  0.00    +0.000 C 
ATOM      6  C   UNL     1      -0.777  11.648  22.774  0.00  0.00    +0.000 C 
ATOM      7  C   UNL     1       0.619  10.057  21.495  0.00  0.00    +0.000 C 
ATOM      8  O   UNL     1       1.302   9.653  22.422  0.00  0.00    +0.000 OA
ATOM      9  H   UNL     1      -0.655  10.214  18.540  0.00  0.00    +0.000 HD
ENDROOT
BRANCH   6  10
ATOM     10  C   UNL     1      -1.863  12.619  22.952  0.00  0.00    +0.000 A 
ATOM     11  C   UNL     1      -3.087  12.081  23.391  0.00  0.00    +0.000 A 
ATOM     12  C   UNL     1      -4.171  12.923  23.516  0.00  0.00    +0.000 A 
ATOM     13  C   UNL     1      -4.083  14.265  23.243  0.00  0.00    +0.000 A 
ATOM     14  C   UNL     1      -2.901  14.849  22.842  0.00  0.00    +0.000 A 
ATOM     15  C   UNL     1      -1.773  14.017  22.694  0.00  0.00    +0.000 A 
ATOM     16  O   UNL     1      -5.272  14.905  23.400  0.00  0.00    +0.000 OA
ATOM     17  C   UNL     1      -6.135  13.797  23.735  0.00  0.00    +0.000 C 
ATOM     18  O   UNL     1      -5.425  12.550  23.887  0.00  0.00    +0.000 OA
BRANCH  15  19
ATOM     19  N   UNL     1      -0.520  14.656  22.242  0.00  0.00    +0.000 N 
ATOM     20  O   UNL     1       0.280  15.077  23.088  0.00  0.00    +0.000 OA
ATOM     21  O   UNL     1      -0.324  14.730  21.020  0.00  0.00    +0.000 OA
ENDBRANCH  15  19
ENDBRANCH   6  10
BRANCH   1  26
ATOM     22  C   UNL     1       3.968   5.877  17.520  0.00  0.00    +0.000 C 
ATOM     23  C   UNL     1       3.099   6.875  18.234  0.00  0.00    +0.000 A 
ATOM     24  C   UNL     1       2.822   8.101  17.616  0.00  0.00    +0.000 A 
ATOM     25  C   UNL     1       1.997   9.039  18.234  0.00  0.00    +0.000 A 
ATOM     26  C   UNL     1       1.464   8.793  19.500  0.00  0.00    +0.000 A 
ATOM     27  C   UNL     1       1.762   7.579  20.134  0.00  0.00    +0.000 A 
ATOM     28  C   UNL     1       2.547   6.600  19.500  0.00  0.00    +0.000 A 
ATOM     29  C   UNL     1       2.756   5.271  20.173  0.00  0.00    +0.000 C 
ENDBRANCH   1  26
TORSDOF 3
ENDMDL
