MODEL 1
REMARK VINA RESULT:      -3.6      0.000      0.000
REMARK  Name = 
REMARK  2 active torsions:
REMARK  status: ('A' for Active; 'I' for Inactive)
REMARK    1  A    between atoms: C_2  and  C_3
REMARK    2  A    between atoms: C_4  and  C_5
REMARK                            x       y       z     vdW  Elec       q    Type
REMARK                         _______ _______ _______ _____ _____    ______ ____
ROOT
ATOM      1  C   UNL     1       4.234   3.594  11.513  0.00  0.00    +0.000 C 
ATOM      2  C   UNL     1       5.337   2.947  11.926  0.00  0.00    +0.000 C 
ENDROOT
BRANCH   1   4
ATOM      3 CL   UNL     1       2.747   4.440   9.425  0.00  0.00    +0.000 Cl
ATOM      4  C   UNL     1       3.306   3.100  10.446  0.00  0.00    +0.000 C 
ENDBRANCH   1   4
BRANCH   2   5
ATOM      5  C   UNL     1       5.837   1.639  11.388  0.00  0.00    +0.000 C 
ATOM      6 CL   UNL     1       7.548   1.784  10.946  0.00  0.00    +0.000 Cl
ENDBRANCH   2   5
TORSDOF 2
ENDMDL
MODEL 2
REMARK VINA RESULT:      -3.6      0.062      3.818
REMARK  Name = 
REMARK  2 active torsions:
REMARK  status: ('A' for Active; 'I' for Inactive)
REMARK    1  A    between atoms: C_2  and  C_3
REMARK    2  A    between atoms: C_4  and  C_5
REMARK                            x       y       z     vdW  Elec       q    Type
REMARK                         _______ _______ _______ _____ _____    ______ ____
ROOT
ATOM      1  C   UNL     1       5.275   2.974  11.946  0.00  0.00    +0.000 C 
ATOM      2  C   UNL     1       4.171   3.594  11.498  0.00  0.00    +0.000 C 
ENDROOT
BRANCH   1   4
ATOM      3 CL   UNL     1       7.526   1.842  10.976  0.00  0.00    +0.000 Cl
ATOM      4  C   UNL     1       5.810   1.685  11.400  0.00  0.00    +0.000 C 
ENDBRANCH   1   4
BRANCH   2   5
ATOM      5  C   UNL     1       3.279   3.105  10.396  0.00  0.00    +0.000 C 
ATOM      6 CL   UNL     1       2.707   4.477   9.430  0.00  0.00    +0.000 Cl
ENDBRANCH   2   5
TORSDOF 2
ENDMDL
MODEL 3
REMARK VINA RESULT:      -3.4      9.277      9.685
REMARK  Name = 
REMARK  2 active torsions:
REMARK  status: ('A' for Active; 'I' for Inactive)
REMARK    1  A    between atoms: C_2  and  C_3
REMARK    2  A    between atoms: C_4  and  C_5
REMARK                            x       y       z     vdW  Elec       q    Type
REMARK                         _______ _______ _______ _____ _____    ______ ____
ROOT
ATOM      1  C   UNL     1       1.004   2.646  19.504  0.00  0.00    +0.000 C 
ATOM      2  C   UNL     1       1.110   3.194  20.726  0.00  0.00    +0.000 C 
ENDROOT
BRANCH   1   4
ATOM      3 CL   UNL     1       1.528   4.407  17.526  0.00  0.00    +0.000 Cl
ATOM      4  C   UNL     1       1.948   2.903  18.369  0.00  0.00    +0.000 C 
ENDBRANCH   1   4
BRANCH   2   5
ATOM      5  C   UNL     1       2.171   4.160  21.162  0.00  0.00    +0.000 C 
ATOM      6 CL   UNL     1       1.718   5.807  20.689  0.00  0.00    +0.000 Cl
ENDBRANCH   2   5
TORSDOF 2
ENDMDL
MODEL 4
REMARK VINA RESULT:      -3.4      9.321      9.790
REMARK  Name = 
REMARK  2 active torsions:
REMARK  status: ('A' for Active; 'I' for Inactive)
REMARK    1  A    between atoms: C_2  and  C_3
REMARK    2  A    between atoms: C_4  and  C_5
REMARK                            x       y       z     vdW  Elec       q    Type
REMARK                         _______ _______ _______ _____ _____    ______ ____
ROOT
ATOM      1  C   UNL     1       1.076   3.123  20.788  0.00  0.00    +0.000 C 
ATOM      2  C   UNL     1       0.944   2.588  19.563  0.00  0.00    +0.000 C 
ENDROOT
BRANCH   1   4
ATOM      3 CL   UNL     1       1.832   5.714  20.704  0.00  0.00    +0.000 Cl
ATOM      4  C   UNL     1       2.183   4.047  21.200  0.00  0.00    +0.000 C 
ENDBRANCH   1   4
BRANCH   2   5
ATOM      5  C   UNL     1       1.877   2.804  18.408  0.00  0.00    +0.000 C 
ATOM      6 CL   UNL     1       1.453   4.304  17.563  0.00  0.00    +0.000 Cl
ENDBRANCH   2   5
TORSDOF 2
ENDMDL
MODEL 5
REMARK VINA RESULT:      -3.3      9.049      9.437
REMARK  Name = 
REMARK  2 active torsions:
REMARK  status: ('A' for Active; 'I' for Inactive)
REMARK    1  A    between atoms: C_2  and  C_3
REMARK    2  A    between atoms: C_4  and  C_5
REMARK                            x       y       z     vdW  Elec       q    Type
REMARK                         _______ _______ _______ _____ _____    ______ ____
ROOT
ATOM      1  C   UNL     1       0.740   3.075  19.789  0.00  0.00    +0.000 C 
ATOM      2  C   UNL     1       1.097   2.650  18.566  0.00  0.00    +0.000 C 
ENDROOT
BRANCH   1   4
ATOM      3 CL   UNL     1       2.582   2.678  21.723  0.00  0.00    +0.000 Cl
ATOM      4  C   UNL     1       1.641   3.811  20.732  0.00  0.00    +0.000 C 
ENDBRANCH   1   4
BRANCH   2   5
ATOM      5  C   UNL     1       2.449   2.821  17.940  0.00  0.00    +0.000 C 
ATOM      6 CL   UNL     1       3.500   1.466  18.395  0.00  0.00    +0.000 Cl
ENDBRANCH   2   5
TORSDOF 2
ENDMDL
MODEL 6
REMARK VINA RESULT:      -3.3      8.665      9.062
REMARK  Name = 
REMARK  2 active torsions:
REMARK  status: ('A' for Active; 'I' for Inactive)
REMARK    1  A    between atoms: C_2  and  C_3
REMARK    2  A    between atoms: C_4  and  C_5
REMARK                            x       y       z     vdW  Elec       q    Type
REMARK                         _______ _______ _______ _____ _____    ______ ____
ROOT
ATOM      1  C   UNL     1       2.023   2.221  18.130  0.00  0.00    +0.000 C 
ATOM      2  C   UNL     1       0.960   2.569  18.873  0.00  0.00    +0.000 C 
ENDROOT
BRANCH   1   4
ATOM      3 CL   UNL     1       3.814   3.946  17.079  0.00  0.00    +0.000 Cl
ATOM      4  C   UNL     1       3.411   2.751  18.328  0.00  0.00    +0.000 C 
ENDBRANCH   1   4
BRANCH   2   5
ATOM      5  C   UNL     1       0.967   3.549  20.008  0.00  0.00    +0.000 C 
ATOM      6 CL   UNL     1       1.379   2.719  21.520  0.00  0.00    +0.000 Cl
ENDBRANCH   2   5
TORSDOF 2
ENDMDL
MODEL 7
REMARK VINA RESULT:      -3.3      9.208      9.616
REMARK  Name = 
REMARK  2 active torsions:
REMARK  status: ('A' for Active; 'I' for Inactive)
REMARK    1  A    between atoms: C_2  and  C_3
REMARK    2  A    between atoms: C_4  and  C_5
REMARK                            x       y       z     vdW  Elec       q    Type
REMARK                         _______ _______ _______ _____ _____    ______ ____
ROOT
ATOM      1  C   UNL     1       1.840   5.047  20.637  0.00  0.00    +0.000 C 
ATOM      2  C   UNL     1       1.295   3.836  20.841  0.00  0.00    +0.000 C 
ENDROOT
BRANCH   1   4
ATOM      3 CL   UNL     1       2.312   5.476  18.014  0.00  0.00    +0.000 Cl
ATOM      4  C   UNL     1       2.944   5.332  19.666  0.00  0.00    +0.000 C 
ENDBRANCH   1   4
BRANCH   2   5
ATOM      5  C   UNL     1       1.701   2.566  20.153  0.00  0.00    +0.000 C 
ATOM      6 CL   UNL     1       0.711   2.325  18.702  0.00  0.00    +0.000 Cl
ENDBRANCH   2   5
TORSDOF 2
ENDMDL
MODEL 8
REMARK VINA RESULT:      -3.3      3.182      3.628
REMARK  Name = 
REMARK  2 active torsions:
REMARK  status: ('A' for Active; 'I' for Inactive)
REMARK    1  A    between atoms: C_2  and  C_3
REMARK    2  A    between atoms: C_4  and  C_5
REMARK                            x       y       z     vdW  Elec       q    Type
REMARK                         _______ _______ _______ _____ _____    ______ ____
ROOT
ATOM      1  C   UNL     1       6.544   3.636  12.211  0.00  0.00    +0.000 C 
ATOM      2  C   UNL     1       6.702   4.251  13.395  0.00  0.00    +0.000 C 
ENDROOT
BRANCH   1   4
ATOM      3 CL   UNL     1       4.053   3.380  11.200  0.00  0.00    +0.000 Cl
ATOM      4  C   UNL     1       5.487   2.616  11.915  0.00  0.00    +0.000 C 
ENDBRANCH   1   4
BRANCH   2   5
ATOM      5  C   UNL     1       5.870   4.018  14.621  0.00  0.00    +0.000 C 
ATOM      6 CL   UNL     1       5.387   5.571  15.326  0.00  0.00    +0.000 Cl
ENDBRANCH   2   5
TORSDOF 2
ENDMDL
MODEL 9
REMARK VINA RESULT:      -3.2      8.401      9.105
REMARK  Name = 
REMARK  2 active torsions:
REMARK  status: ('A' for Active; 'I' for Inactive)
REMARK    1  A    between atoms: C_2  and  C_3
REMARK    2  A    between atoms: C_4  and  C_5
REMARK                            x       y       z     vdW  Elec       q    Type
REMARK                         _______ _______ _______ _____ _____    ______ ____
ROOT
ATOM      1  C   UNL     1       2.687   2.890  17.608  0.00  0.00    +0.000 C 
ATOM      2  C   UNL     1       1.522   3.363  18.078  0.00  0.00    +0.000 C 
ENDROOT
BRANCH   1   4
ATOM      3 CL   UNL     1       4.297   2.252  19.679  0.00  0.00    +0.000 Cl
ATOM      4  C   UNL     1       3.447   1.745  18.207  0.00  0.00    +0.000 C 
ENDBRANCH   1   4
BRANCH   2   5
ATOM      5  C   UNL     1       0.790   2.847  19.282  0.00  0.00    +0.000 C 
ATOM      6 CL   UNL     1       1.059   3.929  20.661  0.00  0.00    +0.000 Cl
ENDBRANCH   2   5
TORSDOF 2
ENDMDL
