MODEL 1
REMARK VINA RESULT:      -8.1      0.000      0.000
REMARK  Name = 
REMARK  6 active torsions:
REMARK  status: ('A' for Active; 'I' for Inactive)
REMARK    1  A    between atoms: C_1  and  C_2
REMARK    2  A    between atoms: C_5  and  C_6
REMARK    3  A    between atoms: N_7  and  C_8
REMARK    4  A    between atoms: C_8  and  C_9
REMARK    5  A    between atoms: C_9  and  C_11
REMARK    6  A    between atoms: C_14  and  C_15
REMARK                            x       y       z     vdW  Elec       q    Type
REMARK                         _______ _______ _______ _____ _____    ______ ____
ROOT
ATOM      1  C   UNL     1       2.436   5.045  18.840  0.00  0.00    +0.000 A 
ATOM      2  C   UNL     1       1.923   5.023  20.138  0.00  0.00    +0.000 A 
ATOM      3  C   UNL     1       1.504   6.214  20.745  0.00  0.00    +0.000 A 
ATOM      4  C   UNL     1       1.605   7.455  20.093  0.00  0.00    +0.000 A 
ATOM      5  C   UNL     1       2.175   7.459  18.810  0.00  0.00    +0.000 A 
ATOM      6  C   UNL     1       2.574   6.273  18.185  0.00  0.00    +0.000 A 
ENDROOT
BRANCH   4   7
ATOM      7  C   UNL     1       1.096   8.694  20.723  0.00  0.00    +0.000 A 
ATOM      8  C   UNL     1       0.738   8.735  22.080  0.00  0.00    +0.000 A 
ATOM      9  C   UNL     1       0.195   9.887  22.660  0.00  0.00    +0.000 A 
ATOM     10  C   UNL     1       0.025  11.037  21.891  0.00  0.00    +0.000 A 
ATOM     11  C   UNL     1       0.395  11.031  20.553  0.00  0.00    +0.000 A 
ATOM     12  C   UNL     1       0.919   9.873  19.973  0.00  0.00    +0.000 A 
ENDBRANCH   4   7
BRANCH   1  13
ATOM     13  C   UNL     1       2.863   3.817  18.112  0.00  0.00    +0.000 C 
ATOM     14  O   UNL     1       2.045   3.199  17.428  0.00  0.00    +0.000 OA
BRANCH  13  15
ATOM     15  C   UNL     1       4.299   3.384  18.132  0.00  0.00    +0.000 C 
BRANCH  15  22
ATOM     16  C   UNL     1       6.258   3.885  13.593  0.00  0.00    +0.000 C 
ATOM     17  C   UNL     1       6.203   4.335  15.024  0.00  0.00    +0.000 A 
ATOM     18  C   UNL     1       7.112   5.256  15.527  0.00  0.00    +0.000 A 
ATOM     19  C   UNL     1       7.070   5.584  16.874  0.00  0.00    +0.000 A 
ATOM     20  C   UNL     1       6.132   4.982  17.726  0.00  0.00    +0.000 A 
ATOM     21  C   UNL     1       6.167   5.295  19.197  0.00  0.00    +0.000 C 
ATOM     22  N   UNL     1       5.233   4.087  17.213  0.00  0.00    +0.000 N 
ATOM     23  C   UNL     1       5.255   3.787  15.886  0.00  0.00    +0.000 A 
ENDBRANCH  15  22
ENDBRANCH  13  15
ENDBRANCH   1  13
TORSDOF 4
ENDMDL
MODEL 2
REMARK VINA RESULT:      -7.9      0.074      1.005
REMARK  Name = 
REMARK  6 active torsions:
REMARK  status: ('A' for Active; 'I' for Inactive)
REMARK    1  A    between atoms: C_1  and  C_2
REMARK    2  A    between atoms: C_5  and  C_6
REMARK    3  A    between atoms: N_7  and  C_8
REMARK    4  A    between atoms: C_8  and  C_9
REMARK    5  A    between atoms: C_9  and  C_11
REMARK    6  A    between atoms: C_14  and  C_15
REMARK                            x       y       z     vdW  Elec       q    Type
REMARK                         _______ _______ _______ _____ _____    ______ ____
ROOT
ATOM      1  C   UNL     1       2.440   5.060  18.823  0.00  0.00    +0.000 A 
ATOM      2  C   UNL     1       1.864   5.011  20.093  0.00  0.00    +0.000 A 
ATOM      3  C   UNL     1       1.424   6.189  20.708  0.00  0.00    +0.000 A 
ATOM      4  C   UNL     1       1.567   7.445  20.092  0.00  0.00    +0.000 A 
ATOM      5  C   UNL     1       2.199   7.476  18.839  0.00  0.00    +0.000 A 
ATOM      6  C   UNL     1       2.620   6.302  18.206  0.00  0.00    +0.000 A 
ENDROOT
BRANCH   4   7
ATOM      7  C   UNL     1       1.036   8.673  20.727  0.00  0.00    +0.000 A 
ATOM      8  C   UNL     1       0.934   9.882  20.019  0.00  0.00    +0.000 A 
ATOM      9  C   UNL     1       0.494  11.058  20.637  0.00  0.00    +0.000 A 
ATOM     10  C   UNL     1       0.119  11.038  21.979  0.00  0.00    +0.000 A 
ATOM     11  C   UNL     1       0.187   9.850  22.696  0.00  0.00    +0.000 A 
ATOM     12  C   UNL     1       0.645   8.683  22.080  0.00  0.00    +0.000 A 
ENDBRANCH   4   7
BRANCH   1  13
ATOM     13  C   UNL     1       2.894   3.845  18.087  0.00  0.00    +0.000 C 
ATOM     14  O   UNL     1       2.095   3.227  17.382  0.00  0.00    +0.000 OA
BRANCH  13  15
ATOM     15  C   UNL     1       4.334   3.430  18.124  0.00  0.00    +0.000 C 
BRANCH  15  22
ATOM     16  C   UNL     1       6.238   3.845  13.553  0.00  0.00    +0.000 C 
ATOM     17  C   UNL     1       6.206   4.316  14.977  0.00  0.00    +0.000 A 
ATOM     18  C   UNL     1       7.129   5.237  15.455  0.00  0.00    +0.000 A 
ATOM     19  C   UNL     1       7.108   5.585  16.798  0.00  0.00    +0.000 A 
ATOM     20  C   UNL     1       6.177   5.005  17.671  0.00  0.00    +0.000 A 
ATOM     21  C   UNL     1       6.234   5.339  19.136  0.00  0.00    +0.000 C 
ATOM     22  N   UNL     1       5.262   4.111  17.182  0.00  0.00    +0.000 N 
ATOM     23  C   UNL     1       5.265   3.790  15.860  0.00  0.00    +0.000 A 
ENDBRANCH  15  22
ENDBRANCH  13  15
ENDBRANCH   1  13
TORSDOF 4
ENDMDL
MODEL 3
REMARK VINA RESULT:      -7.7      3.883      8.568
REMARK  Name = 
REMARK  6 active torsions:
REMARK  status: ('A' for Active; 'I' for Inactive)
REMARK    1  A    between atoms: C_1  and  C_2
REMARK    2  A    between atoms: C_5  and  C_6
REMARK    3  A    between atoms: N_7  and  C_8
REMARK    4  A    between atoms: C_8  and  C_9
REMARK    5  A    between atoms: C_9  and  C_11
REMARK    6  A    between atoms: C_14  and  C_15
REMARK                            x       y       z     vdW  Elec       q    Type
REMARK                         _______ _______ _______ _____ _____    ______ ____
ROOT
ATOM      1  C   UNL     1       1.104   9.296  19.480  0.00  0.00    +0.000 A 
ATOM      2  C   UNL     1       1.592   9.466  18.183  0.00  0.00    +0.000 A 
ATOM      3  C   UNL     1       2.405   8.482  17.607  0.00  0.00    +0.000 A 
ATOM      4  C   UNL     1       2.774   7.320  18.309  0.00  0.00    +0.000 A 
ATOM      5  C   UNL     1       2.316   7.198  19.630  0.00  0.00    +0.000 A 
ATOM      6  C   UNL     1       1.484   8.163  20.206  0.00  0.00    +0.000 A 
ENDROOT
BRANCH   4   7
ATOM      7  C   UNL     1       3.579   6.259  17.662  0.00  0.00    +0.000 A 
ATOM      8  C   UNL     1       4.705   6.564  16.880  0.00  0.00    +0.000 A 
ATOM      9  C   UNL     1       5.427   5.566  16.215  0.00  0.00    +0.000 A 
ATOM     10  C   UNL     1       5.047   4.232  16.344  0.00  0.00    +0.000 A 
ATOM     11  C   UNL     1       3.951   3.901  17.132  0.00  0.00    +0.000 A 
ATOM     12  C   UNL     1       3.222   4.901  17.778  0.00  0.00    +0.000 A 
ENDBRANCH   4   7
BRANCH   1  13
ATOM     13  C   UNL     1       0.200  10.278  20.144  0.00  0.00    +0.000 C 
ATOM     14  O   UNL     1      -0.035  10.170  21.349  0.00  0.00    +0.000 OA
BRANCH  13  15
ATOM     15  C   UNL     1      -0.346  11.446  19.378  0.00  0.00    +0.000 C 
BRANCH  15  22
ATOM     16  C   UNL     1      -2.956   9.777  15.493  0.00  0.00    +0.000 C 
ATOM     17  C   UNL     1      -2.937  10.473  16.822  0.00  0.00    +0.000 A 
ATOM     18  C   UNL     1      -4.073  11.084  17.335  0.00  0.00    +0.000 A 
ATOM     19  C   UNL     1      -3.989  11.780  18.531  0.00  0.00    +0.000 A 
ATOM     20  C   UNL     1      -2.767  11.882  19.212  0.00  0.00    +0.000 A 
ATOM     21  C   UNL     1      -2.688  12.715  20.463  0.00  0.00    +0.000 C 
ATOM     22  N   UNL     1      -1.658  11.262  18.703  0.00  0.00    +0.000 N 
ATOM     23  C   UNL     1      -1.748  10.555  17.544  0.00  0.00    +0.000 A 
ENDBRANCH  15  22
ENDBRANCH  13  15
ENDBRANCH   1  13
TORSDOF 4
ENDMDL
MODEL 4
REMARK VINA RESULT:      -7.7      0.357      1.063
REMARK  Name = 
REMARK  6 active torsions:
REMARK  status: ('A' for Active; 'I' for Inactive)
REMARK    1  A    between atoms: C_1  and  C_2
REMARK    2  A    between atoms: C_5  and  C_6
REMARK    3  A    between atoms: N_7  and  C_8
REMARK    4  A    between atoms: C_8  and  C_9
REMARK    5  A    between atoms: C_9  and  C_11
REMARK    6  A    between atoms: C_14  and  C_15
REMARK                            x       y       z     vdW  Elec       q    Type
REMARK                         _______ _______ _______ _____ _____    ______ ____
ROOT
ATOM      1  C   UNL     1       2.685   5.020  19.079  0.00  0.00    +0.000 A 
ATOM      2  C   UNL     1       2.796   6.219  18.372  0.00  0.00    +0.000 A 
ATOM      3  C   UNL     1       2.262   7.398  18.906  0.00  0.00    +0.000 A 
ATOM      4  C   UNL     1       1.583   7.414  20.138  0.00  0.00    +0.000 A 
ATOM      5  C   UNL     1       1.436   6.187  20.803  0.00  0.00    +0.000 A 
ATOM      6  C   UNL     1       1.987   5.008  20.291  0.00  0.00    +0.000 A 
ENDROOT
BRANCH   4   7
ATOM      7  C   UNL     1       1.083   8.681  20.719  0.00  0.00    +0.000 A 
ATOM      8  C   UNL     1       0.713   8.774  22.070  0.00  0.00    +0.000 A 
ATOM      9  C   UNL     1       0.179   9.953  22.603  0.00  0.00    +0.000 A 
ATOM     10  C   UNL     1       0.030  11.076  21.792  0.00  0.00    +0.000 A 
ATOM     11  C   UNL     1       0.412  11.018  20.458  0.00  0.00    +0.000 A 
ATOM     12  C   UNL     1       0.927   9.834  19.925  0.00  0.00    +0.000 A 
ENDBRANCH   4   7
BRANCH   1  13
ATOM     13  C   UNL     1       3.264   3.734  18.597  0.00  0.00    +0.000 C 
ATOM     14  O   UNL     1       2.519   2.860  18.151  0.00  0.00    +0.000 OA
BRANCH  13  15
ATOM     15  C   UNL     1       4.751   3.537  18.564  0.00  0.00    +0.000 C 
BRANCH  15  22
ATOM     16  C   UNL     1       5.966   3.862  13.757  0.00  0.00    +0.000 C 
ATOM     17  C   UNL     1       6.114   4.384  15.156  0.00  0.00    +0.000 A 
ATOM     18  C   UNL     1       7.051   5.360  15.468  0.00  0.00    +0.000 A 
ATOM     19  C   UNL     1       7.204   5.756  16.788  0.00  0.00    +0.000 A 
ATOM     20  C   UNL     1       6.434   5.170  17.803  0.00  0.00    +0.000 A 
ATOM     21  C   UNL     1       6.682   5.561  19.234  0.00  0.00    +0.000 C 
ATOM     22  N   UNL     1       5.503   4.221  17.479  0.00  0.00    +0.000 N 
ATOM     23  C   UNL     1       5.333   3.852  16.180  0.00  0.00    +0.000 A 
ENDBRANCH  15  22
ENDBRANCH  13  15
ENDBRANCH   1  13
TORSDOF 4
ENDMDL
MODEL 5
REMARK VINA RESULT:      -7.6      0.503      1.500
REMARK  Name = 
REMARK  6 active torsions:
REMARK  status: ('A' for Active; 'I' for Inactive)
REMARK    1  A    between atoms: C_1  and  C_2
REMARK    2  A    between atoms: C_5  and  C_6
REMARK    3  A    between atoms: N_7  and  C_8
REMARK    4  A    between atoms: C_8  and  C_9
REMARK    5  A    between atoms: C_9  and  C_11
REMARK    6  A    between atoms: C_14  and  C_15
REMARK                            x       y       z     vdW  Elec       q    Type
REMARK                         _______ _______ _______ _____ _____    ______ ____
ROOT
ATOM      1  C   UNL     1       2.707   5.112  19.220  0.00  0.00    +0.000 A 
ATOM      2  C   UNL     1       2.789   6.276  18.455  0.00  0.00    +0.000 A 
ATOM      3  C   UNL     1       2.216   7.464  18.925  0.00  0.00    +0.000 A 
ATOM      4  C   UNL     1       1.528   7.522  20.150  0.00  0.00    +0.000 A 
ATOM      5  C   UNL     1       1.411   6.326  20.876  0.00  0.00    +0.000 A 
ATOM      6  C   UNL     1       2.000   5.140  20.427  0.00  0.00    +0.000 A 
ENDROOT
BRANCH   4   7
ATOM      7  C   UNL     1       0.986   8.801  20.663  0.00  0.00    +0.000 A 
ATOM      8  C   UNL     1       0.997   9.970  19.884  0.00  0.00    +0.000 A 
ATOM      9  C   UNL     1       0.546  11.193  20.391  0.00  0.00    +0.000 A 
ATOM     10  C   UNL     1       0.045  11.263  21.690  0.00  0.00    +0.000 A 
ATOM     11  C   UNL     1      -0.000  10.117  22.473  0.00  0.00    +0.000 A 
ATOM     12  C   UNL     1       0.469   8.901  21.969  0.00  0.00    +0.000 A 
ENDBRANCH   4   7
BRANCH   1  13
ATOM     13  C   UNL     1       3.327   3.820  18.808  0.00  0.00    +0.000 C 
ATOM     14  O   UNL     1       2.611   2.898  18.416  0.00  0.00    +0.000 OA
BRANCH  13  15
ATOM     15  C   UNL     1       4.819   3.672  18.777  0.00  0.00    +0.000 C 
BRANCH  15  22
ATOM     16  C   UNL     1       5.743   3.890  13.900  0.00  0.00    +0.000 C 
ATOM     17  C   UNL     1       6.012   4.411  15.281  0.00  0.00    +0.000 A 
ATOM     18  C   UNL     1       7.026   5.328  15.523  0.00  0.00    +0.000 A 
ATOM     19  C   UNL     1       7.287   5.723  16.827  0.00  0.00    +0.000 A 
ATOM     20  C   UNL     1       6.548   5.192  17.895  0.00  0.00    +0.000 A 
ATOM     21  C   UNL     1       6.911   5.575  19.303  0.00  0.00    +0.000 C 
ATOM     22  N   UNL     1       5.541   4.301  17.639  0.00  0.00    +0.000 N 
ATOM     23  C   UNL     1       5.266   3.935  16.358  0.00  0.00    +0.000 A 
ENDBRANCH  15  22
ENDBRANCH  13  15
ENDBRANCH   1  13
TORSDOF 4
ENDMDL
MODEL 6
REMARK VINA RESULT:      -7.6      1.941      4.099
REMARK  Name = 
REMARK  6 active torsions:
REMARK  status: ('A' for Active; 'I' for Inactive)
REMARK    1  A    between atoms: C_1  and  C_2
REMARK    2  A    between atoms: C_5  and  C_6
REMARK    3  A    between atoms: N_7  and  C_8
REMARK    4  A    between atoms: C_8  and  C_9
REMARK    5  A    between atoms: C_9  and  C_11
REMARK    6  A    between atoms: C_14  and  C_15
REMARK                            x       y       z     vdW  Elec       q    Type
REMARK                         _______ _______ _______ _____ _____    ______ ____
ROOT
ATOM      1  C   UNL     1       2.554   7.727  18.671  0.00  0.00    +0.000 A 
ATOM      2  C   UNL     1       1.935   8.833  18.086  0.00  0.00    +0.000 A 
ATOM      3  C   UNL     1       1.049   9.617  18.836  0.00  0.00    +0.000 A 
ATOM      4  C   UNL     1       0.735   9.309  20.172  0.00  0.00    +0.000 A 
ATOM      5  C   UNL     1       1.326   8.160  20.720  0.00  0.00    +0.000 A 
ATOM      6  C   UNL     1       2.231   7.386  19.988  0.00  0.00    +0.000 A 
ENDROOT
BRANCH   4   7
ATOM      7  C   UNL     1      -0.152  10.186  20.970  0.00  0.00    +0.000 A 
ATOM      8  C   UNL     1      -0.811  11.285  20.395  0.00  0.00    +0.000 A 
ATOM      9  C   UNL     1      -1.597  12.152  21.162  0.00  0.00    +0.000 A 
ATOM     10  C   UNL     1      -1.761  11.915  22.526  0.00  0.00    +0.000 A 
ATOM     11  C   UNL     1      -1.141  10.821  23.115  0.00  0.00    +0.000 A 
ATOM     12  C   UNL     1      -0.342   9.969  22.349  0.00  0.00    +0.000 A 
ENDBRANCH   4   7
BRANCH   1  13
ATOM     13  C   UNL     1       3.539   6.871  17.952  0.00  0.00    +0.000 C 
ATOM     14  O   UNL     1       3.839   7.134  16.786  0.00  0.00    +0.000 OA
BRANCH  13  15
ATOM     15  C   UNL     1       4.236   5.752  18.668  0.00  0.00    +0.000 C 
BRANCH  15  22
ATOM     16  C   UNL     1       1.352   2.663  21.283  0.00  0.00    +0.000 C 
ATOM     17  C   UNL     1       2.128   2.941  20.029  0.00  0.00    +0.000 A 
ATOM     18  C   UNL     1       2.317   1.962  19.063  0.00  0.00    +0.000 A 
ATOM     19  C   UNL     1       3.105   2.243  17.957  0.00  0.00    +0.000 A 
ATOM     20  C   UNL     1       3.720   3.496  17.818  0.00  0.00    +0.000 A 
ATOM     21  C   UNL     1       4.636   3.740  16.650  0.00  0.00    +0.000 C 
ATOM     22  N   UNL     1       3.512   4.456  18.770  0.00  0.00    +0.000 N 
ATOM     23  C   UNL     1       2.716   4.191  19.841  0.00  0.00    +0.000 A 
ENDBRANCH  15  22
ENDBRANCH  13  15
ENDBRANCH   1  13
TORSDOF 4
ENDMDL
MODEL 7
REMARK VINA RESULT:      -7.5      3.928      6.763
REMARK  Name = 
REMARK  6 active torsions:
REMARK  status: ('A' for Active; 'I' for Inactive)
REMARK    1  A    between atoms: C_1  and  C_2
REMARK    2  A    between atoms: C_5  and  C_6
REMARK    3  A    between atoms: N_7  and  C_8
REMARK    4  A    between atoms: C_8  and  C_9
REMARK    5  A    between atoms: C_9  and  C_11
REMARK    6  A    between atoms: C_14  and  C_15
REMARK                            x       y       z     vdW  Elec       q    Type
REMARK                         _______ _______ _______ _____ _____    ______ ____
ROOT
ATOM      1  C   UNL     1       6.880   6.353  17.850  0.00  0.00    +0.000 A 
ATOM      2  C   UNL     1       7.862   6.343  18.842  0.00  0.00    +0.000 A 
ATOM      3  C   UNL     1       8.577   7.512  19.130  0.00  0.00    +0.000 A 
ATOM      4  C   UNL     1       8.357   8.709  18.426  0.00  0.00    +0.000 A 
ATOM      5  C   UNL     1       7.404   8.680  17.395  0.00  0.00    +0.000 A 
ATOM      6  C   UNL     1       6.667   7.524  17.117  0.00  0.00    +0.000 A 
ENDROOT
BRANCH   4   7
ATOM      7  C   UNL     1       9.075   9.952  18.787  0.00  0.00    +0.000 A 
ATOM      8  C   UNL     1       9.312  10.302  20.127  0.00  0.00    +0.000 A 
ATOM      9  C   UNL     1       9.933  11.508  20.470  0.00  0.00    +0.000 A 
ATOM     10  C   UNL     1      10.355  12.381  19.470  0.00  0.00    +0.000 A 
ATOM     11  C   UNL     1      10.156  12.048  18.136  0.00  0.00    +0.000 A 
ATOM     12  C   UNL     1       9.519  10.851  17.798  0.00  0.00    +0.000 A 
ENDBRANCH   4   7
BRANCH   1  13
ATOM     13  C   UNL     1       6.048   5.162  17.516  0.00  0.00    +0.000 C 
ATOM     14  O   UNL     1       6.566   4.045  17.492  0.00  0.00    +0.000 OA
BRANCH  13  15
ATOM     15  C   UNL     1       4.570   5.305  17.304  0.00  0.00    +0.000 C 
BRANCH  15  22
ATOM     16  C   UNL     1       2.489   2.930  21.141  0.00  0.00    +0.000 C 
ATOM     17  C   UNL     1       2.682   4.205  20.373  0.00  0.00    +0.000 A 
ATOM     18  C   UNL     1       1.951   5.346  20.672  0.00  0.00    +0.000 A 
ATOM     19  C   UNL     1       2.109   6.478  19.886  0.00  0.00    +0.000 A 
ATOM     20  C   UNL     1       2.985   6.470  18.790  0.00  0.00    +0.000 A 
ATOM     21  C   UNL     1       3.071   7.685  17.907  0.00  0.00    +0.000 C 
ATOM     22  N   UNL     1       3.710   5.342  18.517  0.00  0.00    +0.000 N 
ATOM     23  C   UNL     1       3.577   4.241  19.305  0.00  0.00    +0.000 A 
ENDBRANCH  15  22
ENDBRANCH  13  15
ENDBRANCH   1  13
TORSDOF 4
ENDMDL
MODEL 8
REMARK VINA RESULT:      -7.5      3.570      6.659
REMARK  Name = 
REMARK  6 active torsions:
REMARK  status: ('A' for Active; 'I' for Inactive)
REMARK    1  A    between atoms: C_1  and  C_2
REMARK    2  A    between atoms: C_5  and  C_6
REMARK    3  A    between atoms: N_7  and  C_8
REMARK    4  A    between atoms: C_8  and  C_9
REMARK    5  A    between atoms: C_9  and  C_11
REMARK    6  A    between atoms: C_14  and  C_15
REMARK                            x       y       z     vdW  Elec       q    Type
REMARK                         _______ _______ _______ _____ _____    ______ ____
ROOT
ATOM      1  C   UNL     1       6.536   5.886  17.776  0.00  0.00    +0.000 A 
ATOM      2  C   UNL     1       7.676   5.988  18.575  0.00  0.00    +0.000 A 
ATOM      3  C   UNL     1       8.312   7.225  18.733  0.00  0.00    +0.000 A 
ATOM      4  C   UNL     1       7.850   8.385  18.084  0.00  0.00    +0.000 A 
ATOM      5  C   UNL     1       6.735   8.246  17.243  0.00  0.00    +0.000 A 
ATOM      6  C   UNL     1       6.078   7.020  17.098  0.00  0.00    +0.000 A 
ENDROOT
BRANCH   4   7
ATOM      7  C   UNL     1       8.494   9.698  18.315  0.00  0.00    +0.000 A 
ATOM      8  C   UNL     1       8.174  10.821  17.536  0.00  0.00    +0.000 A 
ATOM      9  C   UNL     1       8.829  12.045  17.710  0.00  0.00    +0.000 A 
ATOM     10  C   UNL     1       9.807  12.174  18.694  0.00  0.00    +0.000 A 
ATOM     11  C   UNL     1      10.125  11.085  19.496  0.00  0.00    +0.000 A 
ATOM     12  C   UNL     1       9.482   9.860  19.306  0.00  0.00    +0.000 A 
ENDBRANCH   4   7
BRANCH   1  13
ATOM     13  C   UNL     1       5.780   4.614  17.594  0.00  0.00    +0.000 C 
ATOM     14  O   UNL     1       5.649   4.141  16.464  0.00  0.00    +0.000 OA
BRANCH  13  15
ATOM     15  C   UNL     1       5.263   3.862  18.784  0.00  0.00    +0.000 C 
BRANCH  15  22
ATOM     16  C   UNL     1       1.679   6.705  20.723  0.00  0.00    +0.000 C 
ATOM     17  C   UNL     1       2.085   5.408  20.086  0.00  0.00    +0.000 A 
ATOM     18  C   UNL     1       1.198   4.345  19.984  0.00  0.00    +0.000 A 
ATOM     19  C   UNL     1       1.640   3.141  19.457  0.00  0.00    +0.000 A 
ATOM     20  C   UNL     1       2.972   2.989  19.045  0.00  0.00    +0.000 A 
ATOM     21  C   UNL     1       3.443   1.646  18.556  0.00  0.00    +0.000 C 
ATOM     22  N   UNL     1       3.831   4.050  19.137  0.00  0.00    +0.000 N 
ATOM     23  C   UNL     1       3.390   5.240  19.628  0.00  0.00    +0.000 A 
ENDBRANCH  15  22
ENDBRANCH  13  15
ENDBRANCH   1  13
TORSDOF 4
ENDMDL
MODEL 9
REMARK VINA RESULT:      -7.5      1.959      4.043
REMARK  Name = 
REMARK  6 active torsions:
REMARK  status: ('A' for Active; 'I' for Inactive)
REMARK    1  A    between atoms: C_1  and  C_2
REMARK    2  A    between atoms: C_5  and  C_6
REMARK    3  A    between atoms: N_7  and  C_8
REMARK    4  A    between atoms: C_8  and  C_9
REMARK    5  A    between atoms: C_9  and  C_11
REMARK    6  A    between atoms: C_14  and  C_15
REMARK                            x       y       z     vdW  Elec       q    Type
REMARK                         _______ _______ _______ _____ _____    ______ ____
ROOT
ATOM      1  C   UNL     1       2.538   7.811  18.631  0.00  0.00    +0.000 A 
ATOM      2  C   UNL     1       1.941   8.915  18.020  0.00  0.00    +0.000 A 
ATOM      3  C   UNL     1       1.062   9.727  18.747  0.00  0.00    +0.000 A 
ATOM      4  C   UNL     1       0.734   9.452  20.086  0.00  0.00    +0.000 A 
ATOM      5  C   UNL     1       1.304   8.305  20.662  0.00  0.00    +0.000 A 
ATOM      6  C   UNL     1       2.202   7.502  19.953  0.00  0.00    +0.000 A 
ENDROOT
BRANCH   4   7
ATOM      7  C   UNL     1      -0.145  10.358  20.860  0.00  0.00    +0.000 A 
ATOM      8  C   UNL     1      -0.234  10.278  22.259  0.00  0.00    +0.000 A 
ATOM      9  C   UNL     1      -1.113  11.090  22.985  0.00  0.00    +0.000 A 
ATOM     10  C   UNL     1      -1.905  12.023  22.319  0.00  0.00    +0.000 A 
ATOM     11  C   UNL     1      -1.818  12.140  20.938  0.00  0.00    +0.000 A 
ATOM     12  C   UNL     1      -0.953  11.315  20.215  0.00  0.00    +0.000 A 
ENDBRANCH   4   7
BRANCH   1  13
ATOM     13  C   UNL     1       3.516   6.926  17.936  0.00  0.00    +0.000 C 
ATOM     14  O   UNL     1       3.840   7.170  16.773  0.00  0.00    +0.000 OA
BRANCH  13  15
ATOM     15  C   UNL     1       4.176   5.799  18.675  0.00  0.00    +0.000 C 
BRANCH  15  22
ATOM     16  C   UNL     1       1.263   2.744  21.296  0.00  0.00    +0.000 C 
ATOM     17  C   UNL     1       2.026   3.020  20.034  0.00  0.00    +0.000 A 
ATOM     18  C   UNL     1       2.178   2.048  19.054  0.00  0.00    +0.000 A 
ATOM     19  C   UNL     1       2.956   2.325  17.940  0.00  0.00    +0.000 A 
ATOM     20  C   UNL     1       3.597   3.565  17.806  0.00  0.00    +0.000 A 
ATOM     21  C   UNL     1       4.502   3.804  16.628  0.00  0.00    +0.000 C 
ATOM     22  N   UNL     1       3.425   4.519  18.773  0.00  0.00    +0.000 N 
ATOM     23  C   UNL     1       2.639   4.258  19.853  0.00  0.00    +0.000 A 
ENDBRANCH  15  22
ENDBRANCH  13  15
ENDBRANCH   1  13
TORSDOF 4
ENDMDL
