MODEL 1
REMARK VINA RESULT:      -8.3      0.000      0.000
REMARK  Name = 
REMARK  13 active torsions:
REMARK  status: ('A' for Active; 'I' for Inactive)
REMARK    1  A    between atoms: C_1  and  C_2
REMARK    2  A    between atoms: C_2  and  O_3
REMARK    3  A    between atoms: O_3  and  C_4
REMARK    4  A    between atoms: C_6  and  C_7
REMARK    5  A    between atoms: C_7  and  C_8
REMARK    6  A    between atoms: C_7  and  C_15
REMARK    7  A    between atoms: C_9  and  C_10
REMARK    8  A    between atoms: C_13  and  O_14
REMARK    9  A    between atoms: C_16  and  C_17
REMARK   10  A    between atoms: C_20  and  O_21
REMARK   11  A    between atoms: C_24  and  O_25
REMARK   12  A    between atoms: O_25  and  S_26
REMARK   13  A    between atoms: S_26  and  C_29
REMARK                            x       y       z     vdW  Elec       q    Type
REMARK                         _______ _______ _______ _____ _____    ______ ____
ROOT
ATOM      1  C   UNL     1       1.888   7.793  20.029  0.00  0.00    +0.000 A 
ATOM      2  C   UNL     1       2.665   6.617  19.880  0.00  0.00    +0.000 A 
ATOM      3  C   UNL     1       3.446   6.369  18.731  0.00  0.00    +0.000 A 
ATOM      4  C   UNL     1       3.313   7.279  17.679  0.00  0.00    +0.000 A 
ATOM      5  C   UNL     1       2.577   8.455  17.825  0.00  0.00    +0.000 A 
ATOM      6  C   UNL     1       1.923   8.770  19.021  0.00  0.00    +0.000 A 
ENDROOT
BRANCH   1   7
ATOM      7  O   UNL     1       1.245   7.866  21.236  0.00  0.00    +0.000 OA
BRANCH   7   9
ATOM      8  C   UNL     1       0.467   9.353  22.958  0.00  0.00    +0.000 C 
ATOM      9  C   UNL     1       1.668   8.888  22.139  0.00  0.00    +0.000 C 
ENDBRANCH   7   9
ENDBRANCH   1   7
BRANCH   3  10
ATOM     10  C   UNL     1       4.447   5.210  18.697  0.00  0.00    +0.000 C 
BRANCH  10  11
ATOM     11  C   UNL     1       3.664   3.921  18.725  0.00  0.00    +0.000 A 
ATOM     12  C   UNL     1       2.383   3.590  18.167  0.00  0.00    +0.000 A 
ATOM     13  C   UNL     1       1.418   4.426  17.409  0.00  0.00    +0.000 C 
ATOM     14  N   UNL     1       2.077   2.298  18.370  0.00  0.00    +0.000 NA
ATOM     15  N   UNL     1       3.125   1.806  19.018  0.00  0.00    +0.000 N 
ATOM     16  C   UNL     1       4.110   2.721  19.257  0.00  0.00    +0.000 A 
ATOM     17  H   UNL     1       3.110   0.819  19.253  0.00  0.00    +0.000 HD
BRANCH  16  18
ATOM     18  O   UNL     1       5.259   2.419  19.855  0.00  0.00    +0.000 OA
ATOM     19  H   UNL     1       5.228   2.684  20.791  0.00  0.00    +0.000 HD
ENDBRANCH  16  18
ENDBRANCH  10  11
BRANCH  10  20
ATOM     20  C   UNL     1       5.416   5.352  17.529  0.00  0.00    +0.000 A 
ATOM     21  C   UNL     1       6.748   5.904  17.602  0.00  0.00    +0.000 A 
ATOM     22  C   UNL     1       7.517   6.412  18.768  0.00  0.00    +0.000 C 
ATOM     23  N   UNL     1       7.362   5.909  16.411  0.00  0.00    +0.000 NA
ATOM     24  N   UNL     1       6.466   5.373  15.583  0.00  0.00    +0.000 N 
ATOM     25  C   UNL     1       5.302   4.997  16.190  0.00  0.00    +0.000 A 
ATOM     26  H   UNL     1       6.723   5.277  14.609  0.00  0.00    +0.000 HD
BRANCH  25  27
ATOM     27  O   UNL     1       4.330   4.396  15.516  0.00  0.00    +0.000 OA
ATOM     28  H   UNL     1       3.607   4.112  16.099  0.00  0.00    +0.000 HD
ENDBRANCH  25  27
ENDBRANCH  10  20
ENDBRANCH   3  10
BRANCH   6  29
ATOM     29  O   UNL     1       1.386  10.033  19.212  0.00  0.00    +0.000 OA
BRANCH  29  30
ATOM     30  S   UNL     1      -0.219  10.274  18.935  0.00  0.00    +0.000 S 
ATOM     31  O   UNL     1      -0.499   9.993  17.537  0.00  0.00    +0.000 OA
ATOM     32  O   UNL     1      -0.989   9.641  19.993  0.00  0.00    +0.000 OA
BRANCH  30  33
ATOM     33  C   UNL     1      -0.531  12.013  19.140  0.00  0.00    +0.000 A 
ATOM     34  C   UNL     1       0.378  12.917  18.571  0.00  0.00    +0.000 A 
ATOM     35  C   UNL     1       0.266  14.275  18.852  0.00  0.00    +0.000 A 
ATOM     36  C   UNL     1      -0.759  14.724  19.684  0.00  0.00    +0.000 A 
ATOM     37  C   UNL     1      -1.705  13.825  20.189  0.00  0.00    +0.000 A 
ATOM     38  C   UNL     1      -1.604  12.462  19.909  0.00  0.00    +0.000 A 
ENDBRANCH  30  33
ENDBRANCH  29  30
ENDBRANCH   6  29
TORSDOF 10
ENDMDL
MODEL 2
REMARK VINA RESULT:      -8.3      1.625      4.180
REMARK  Name = 
REMARK  13 active torsions:
REMARK  status: ('A' for Active; 'I' for Inactive)
REMARK    1  A    between atoms: C_1  and  C_2
REMARK    2  A    between atoms: C_2  and  O_3
REMARK    3  A    between atoms: O_3  and  C_4
REMARK    4  A    between atoms: C_6  and  C_7
REMARK    5  A    between atoms: C_7  and  C_8
REMARK    6  A    between atoms: C_7  and  C_15
REMARK    7  A    between atoms: C_9  and  C_10
REMARK    8  A    between atoms: C_13  and  O_14
REMARK    9  A    between atoms: C_16  and  C_17
REMARK   10  A    between atoms: C_20  and  O_21
REMARK   11  A    between atoms: C_24  and  O_25
REMARK   12  A    between atoms: O_25  and  S_26
REMARK   13  A    between atoms: S_26  and  C_29
REMARK                            x       y       z     vdW  Elec       q    Type
REMARK                         _______ _______ _______ _____ _____    ______ ____
ROOT
ATOM      1  C   UNL     1       2.168   8.681  18.242  0.00  0.00    +0.000 A 
ATOM      2  C   UNL     1       2.919   7.624  17.670  0.00  0.00    +0.000 A 
ATOM      3  C   UNL     1       3.117   6.393  18.331  0.00  0.00    +0.000 A 
ATOM      4  C   UNL     1       2.647   6.310  19.645  0.00  0.00    +0.000 A 
ATOM      5  C   UNL     1       1.880   7.331  20.207  0.00  0.00    +0.000 A 
ATOM      6  C   UNL     1       1.560   8.490  19.493  0.00  0.00    +0.000 A 
ENDROOT
BRANCH   1   7
ATOM      7  O   UNL     1       2.053   9.769  17.418  0.00  0.00    +0.000 OA
BRANCH   7   9
ATOM      8  C   UNL     1       1.703  11.985  18.281  0.00  0.00    +0.000 C 
ATOM      9  C   UNL     1       2.733  10.961  17.813  0.00  0.00    +0.000 C 
ENDBRANCH   7   9
ENDBRANCH   1   7
BRANCH   3  10
ATOM     10  C   UNL     1       3.732   5.197  17.600  0.00  0.00    +0.000 C 
BRANCH  10  11
ATOM     11  C   UNL     1       5.199   5.484  17.396  0.00  0.00    +0.000 A 
ATOM     12  C   UNL     1       5.962   5.650  16.191  0.00  0.00    +0.000 A 
ATOM     13  C   UNL     1       5.547   5.564  14.768  0.00  0.00    +0.000 C 
ATOM     14  N   UNL     1       7.242   5.961  16.459  0.00  0.00    +0.000 NA
ATOM     15  N   UNL     1       7.302   6.011  17.783  0.00  0.00    +0.000 N 
ATOM     16  C   UNL     1       6.116   5.742  18.404  0.00  0.00    +0.000 A 
ATOM     17  H   UNL     1       8.192   6.258  18.203  0.00  0.00    +0.000 HD
BRANCH  16  18
ATOM     18  O   UNL     1       5.955   5.783  19.723  0.00  0.00    +0.000 OA
ATOM     19  H   UNL     1       5.399   5.040  20.015  0.00  0.00    +0.000 HD
ENDBRANCH  16  18
ENDBRANCH  10  11
BRANCH  10  20
ATOM     20  C   UNL     1       3.423   3.890  18.321  0.00  0.00    +0.000 A 
ATOM     21  C   UNL     1       2.126   3.263  18.411  0.00  0.00    +0.000 A 
ATOM     22  C   UNL     1       0.821   3.664  17.825  0.00  0.00    +0.000 C 
ATOM     23  N   UNL     1       2.159   2.126  19.119  0.00  0.00    +0.000 NA
ATOM     24  N   UNL     1       3.437   2.005  19.477  0.00  0.00    +0.000 N 
ATOM     25  C   UNL     1       4.243   3.005  19.012  0.00  0.00    +0.000 A 
ATOM     26  H   UNL     1       3.697   1.199  20.031  0.00  0.00    +0.000 HD
BRANCH  25  27
ATOM     27  O   UNL     1       5.551   3.002  19.233  0.00  0.00    +0.000 OA
ATOM     28  H   UNL     1       5.846   3.818  19.670  0.00  0.00    +0.000 HD
ENDBRANCH  25  27
ENDBRANCH  10  20
ENDBRANCH   3  10
BRANCH   6  29
ATOM     29  O   UNL     1       0.624   9.382  19.990  0.00  0.00    +0.000 OA
BRANCH  29  30
ATOM     30  S   UNL     1       0.261   9.355  21.596  0.00  0.00    +0.000 S 
ATOM     31  O   UNL     1      -0.595   8.211  21.862  0.00  0.00    +0.000 OA
ATOM     32  O   UNL     1       1.474   9.575  22.366  0.00  0.00    +0.000 OA
BRANCH  30  33
ATOM     33  C   UNL     1      -0.742  10.784  21.932  0.00  0.00    +0.000 A 
ATOM     34  C   UNL     1      -1.344  10.886  23.194  0.00  0.00    +0.000 A 
ATOM     35  C   UNL     1      -2.270  11.896  23.436  0.00  0.00    +0.000 A 
ATOM     36  C   UNL     1      -2.577  12.806  22.426  0.00  0.00    +0.000 A 
ATOM     37  C   UNL     1      -1.919  12.742  21.192  0.00  0.00    +0.000 A 
ATOM     38  C   UNL     1      -0.985  11.736  20.941  0.00  0.00    +0.000 A 
ENDBRANCH  30  33
ENDBRANCH  29  30
ENDBRANCH   6  29
TORSDOF 10
ENDMDL
MODEL 3
REMARK VINA RESULT:      -8.2      1.079      1.518
REMARK  Name = 
REMARK  13 active torsions:
REMARK  status: ('A' for Active; 'I' for Inactive)
REMARK    1  A    between atoms: C_1  and  C_2
REMARK    2  A    between atoms: C_2  and  O_3
REMARK    3  A    between atoms: O_3  and  C_4
REMARK    4  A    between atoms: C_6  and  C_7
REMARK    5  A    between atoms: C_7  and  C_8
REMARK    6  A    between atoms: C_7  and  C_15
REMARK    7  A    between atoms: C_9  and  C_10
REMARK    8  A    between atoms: C_13  and  O_14
REMARK    9  A    between atoms: C_16  and  C_17
REMARK   10  A    between atoms: C_20  and  O_21
REMARK   11  A    between atoms: C_24  and  O_25
REMARK   12  A    between atoms: O_25  and  S_26
REMARK   13  A    between atoms: S_26  and  C_29
REMARK                            x       y       z     vdW  Elec       q    Type
REMARK                         _______ _______ _______ _____ _____    ______ ____
ROOT
ATOM      1  C   UNL     1       1.851   7.596  20.170  0.00  0.00    +0.000 A 
ATOM      2  C   UNL     1       2.533   6.353  20.169  0.00  0.00    +0.000 A 
ATOM      3  C   UNL     1       3.378   5.956  19.111  0.00  0.00    +0.000 A 
ATOM      4  C   UNL     1       3.407   6.791  17.991  0.00  0.00    +0.000 A 
ATOM      5  C   UNL     1       2.766   8.030  17.992  0.00  0.00    +0.000 A 
ATOM      6  C   UNL     1       2.049   8.487  19.103  0.00  0.00    +0.000 A 
ENDROOT
BRANCH   1   7
ATOM      7  O   UNL     1       1.124   7.812  21.310  0.00  0.00    +0.000 OA
BRANCH   7   9
ATOM      8  C   UNL     1       0.352   9.351  22.988  0.00  0.00    +0.000 C 
ATOM      9  C   UNL     1       1.543   8.881  22.158  0.00  0.00    +0.000 C 
ENDBRANCH   7   9
ENDBRANCH   1   7
BRANCH   3  10
ATOM     10  C   UNL     1       4.275   4.722  19.242  0.00  0.00    +0.000 C 
BRANCH  10  11
ATOM     11  C   UNL     1       3.459   3.514  18.853  0.00  0.00    +0.000 A 
ATOM     12  C   UNL     1       2.227   3.410  18.122  0.00  0.00    +0.000 A 
ATOM     13  C   UNL     1       1.360   4.466  17.543  0.00  0.00    +0.000 C 
ATOM     14  N   UNL     1       1.871   2.128  17.939  0.00  0.00    +0.000 NA
ATOM     15  N   UNL     1       2.840   1.427  18.513  0.00  0.00    +0.000 N 
ATOM     16  C   UNL     1       3.822   2.194  19.073  0.00  0.00    +0.000 A 
ATOM     17  H   UNL     1       2.777   0.416  18.468  0.00  0.00    +0.000 HD
BRANCH  16  18
ATOM     18  O   UNL     1       4.901   1.684  19.659  0.00  0.00    +0.000 OA
ATOM     19  H   UNL     1       5.609   2.352  19.694  0.00  0.00    +0.000 HD
ENDBRANCH  16  18
ENDBRANCH  10  11
BRANCH  10  20
ATOM     20  C   UNL     1       5.576   4.900  18.468  0.00  0.00    +0.000 A 
ATOM     21  C   UNL     1       5.743   4.713  17.047  0.00  0.00    +0.000 A 
ATOM     22  C   UNL     1       4.749   4.364  15.998  0.00  0.00    +0.000 C 
ATOM     23  N   UNL     1       7.004   4.931  16.650  0.00  0.00    +0.000 NA
ATOM     24  N   UNL     1       7.644   5.255  17.773  0.00  0.00    +0.000 N 
ATOM     25  C   UNL     1       6.847   5.282  18.881  0.00  0.00    +0.000 A 
ATOM     26  H   UNL     1       8.632   5.466  17.708  0.00  0.00    +0.000 HD
BRANCH  25  27
ATOM     27  O   UNL     1       7.319   5.642  20.068  0.00  0.00    +0.000 OA
ATOM     28  H   UNL     1       7.018   6.528  20.324  0.00  0.00    +0.000 HD
ENDBRANCH  25  27
ENDBRANCH  10  20
ENDBRANCH   3  10
BRANCH   6  29
ATOM     29  O   UNL     1       1.610   9.799  19.160  0.00  0.00    +0.000 OA
BRANCH  29  30
ATOM     30  S   UNL     1       0.039  10.138  18.800  0.00  0.00    +0.000 S 
ATOM     31  O   UNL     1      -0.207   9.789  17.411  0.00  0.00    +0.000 OA
ATOM     32  O   UNL     1      -0.816   9.630  19.860  0.00  0.00    +0.000 OA
BRANCH  30  33
ATOM     33  C   UNL     1      -0.150  11.904  18.885  0.00  0.00    +0.000 A 
ATOM     34  C   UNL     1       0.949  12.702  18.535  0.00  0.00    +0.000 A 
ATOM     35  C   UNL     1       0.899  14.076  18.751  0.00  0.00    +0.000 A 
ATOM     36  C   UNL     1      -0.249  14.646  19.298  0.00  0.00    +0.000 A 
ATOM     37  C   UNL     1      -1.368  13.853  19.577  0.00  0.00    +0.000 A 
ATOM     38  C   UNL     1      -1.330  12.476  19.360  0.00  0.00    +0.000 A 
ENDBRANCH  30  33
ENDBRANCH  29  30
ENDBRANCH   6  29
TORSDOF 10
ENDMDL
MODEL 4
REMARK VINA RESULT:      -8.0      1.097      1.359
REMARK  Name = 
REMARK  13 active torsions:
REMARK  status: ('A' for Active; 'I' for Inactive)
REMARK    1  A    between atoms: C_1  and  C_2
REMARK    2  A    between atoms: C_2  and  O_3
REMARK    3  A    between atoms: O_3  and  C_4
REMARK    4  A    between atoms: C_6  and  C_7
REMARK    5  A    between atoms: C_7  and  C_8
REMARK    6  A    between atoms: C_7  and  C_15
REMARK    7  A    between atoms: C_9  and  C_10
REMARK    8  A    between atoms: C_13  and  O_14
REMARK    9  A    between atoms: C_16  and  C_17
REMARK   10  A    between atoms: C_20  and  O_21
REMARK   11  A    between atoms: C_24  and  O_25
REMARK   12  A    between atoms: O_25  and  S_26
REMARK   13  A    between atoms: S_26  and  C_29
REMARK                            x       y       z     vdW  Elec       q    Type
REMARK                         _______ _______ _______ _____ _____    ______ ____
ROOT
ATOM      1  C   UNL     1       1.803   7.423  20.321  0.00  0.00    +0.000 A 
ATOM      2  C   UNL     1       2.545   6.229  20.133  0.00  0.00    +0.000 A 
ATOM      3  C   UNL     1       3.388   6.032  19.019  0.00  0.00    +0.000 A 
ATOM      4  C   UNL     1       3.356   7.020  18.031  0.00  0.00    +0.000 A 
ATOM      5  C   UNL     1       2.656   8.212  18.219  0.00  0.00    +0.000 A 
ATOM      6  C   UNL     1       1.939   8.467  19.392  0.00  0.00    +0.000 A 
ENDROOT
BRANCH   1   7
ATOM      7  O   UNL     1       1.087   7.435  21.489  0.00  0.00    +0.000 OA
BRANCH   7   9
ATOM      8  C   UNL     1      -0.218   9.083  22.656  0.00  0.00    +0.000 C 
ATOM      9  C   UNL     1      -0.168   8.116  21.477  0.00  0.00    +0.000 C 
ENDBRANCH   7   9
ENDBRANCH   1   7
BRANCH   3  10
ATOM     10  C   UNL     1       4.346   4.839  18.960  0.00  0.00    +0.000 C 
BRANCH  10  11
ATOM     11  C   UNL     1       3.517   3.588  18.805  0.00  0.00    +0.000 A 
ATOM     12  C   UNL     1       2.257   3.373  18.150  0.00  0.00    +0.000 A 
ATOM     13  C   UNL     1       1.364   4.326  17.445  0.00  0.00    +0.000 C 
ATOM     14  N   UNL     1       1.896   2.080  18.191  0.00  0.00    +0.000 NA
ATOM     15  N   UNL     1       2.889   1.477  18.831  0.00  0.00    +0.000 N 
ATOM     16  C   UNL     1       3.891   2.319  19.220  0.00  0.00    +0.000 A 
ATOM     17  H   UNL     1       2.826   0.471  18.953  0.00  0.00    +0.000 HD
BRANCH  16  18
ATOM     18  O   UNL     1       4.995   1.906  19.836  0.00  0.00    +0.000 OA
ATOM     19  H   UNL     1       5.275   1.045  19.477  0.00  0.00    +0.000 HD
ENDBRANCH  16  18
ENDBRANCH  10  11
BRANCH  10  20
ATOM     20  C   UNL     1       5.416   5.042  17.894  0.00  0.00    +0.000 A 
ATOM     21  C   UNL     1       6.765   5.496  18.130  0.00  0.00    +0.000 A 
ATOM     22  C   UNL     1       7.461   5.825  19.402  0.00  0.00    +0.000 C 
ATOM     23  N   UNL     1       7.476   5.588  16.998  0.00  0.00    +0.000 NA
ATOM     24  N   UNL     1       6.624   5.203  16.049  0.00  0.00    +0.000 N 
ATOM     25  C   UNL     1       5.395   4.840  16.519  0.00  0.00    +0.000 A 
ATOM     26  H   UNL     1       6.956   5.195  15.093  0.00  0.00    +0.000 HD
BRANCH  25  27
ATOM     27  O   UNL     1       4.450   4.378  15.708  0.00  0.00    +0.000 OA
ATOM     28  H   UNL     1       3.628   4.181  16.186  0.00  0.00    +0.000 HD
ENDBRANCH  25  27
ENDBRANCH  10  20
ENDBRANCH   3  10
BRANCH   6  29
ATOM     29  O   UNL     1       1.437   9.734  19.644  0.00  0.00    +0.000 OA
BRANCH  29  30
ATOM     30  S   UNL     1       0.567  10.501  18.475  0.00  0.00    +0.000 S 
ATOM     31  O   UNL     1       1.366  11.589  17.937  0.00  0.00    +0.000 OA
ATOM     32  O   UNL     1      -0.035   9.511  17.598  0.00  0.00    +0.000 OA
BRANCH  30  33
ATOM     33  C   UNL     1      -0.815  11.281  19.278  0.00  0.00    +0.000 A 
ATOM     34  C   UNL     1      -2.060  11.241  18.634  0.00  0.00    +0.000 A 
ATOM     35  C   UNL     1      -3.122  11.982  19.142  0.00  0.00    +0.000 A 
ATOM     36  C   UNL     1      -2.941  12.745  20.294  0.00  0.00    +0.000 A 
ATOM     37  C   UNL     1      -1.717  12.723  20.972  0.00  0.00    +0.000 A 
ATOM     38  C   UNL     1      -0.647  11.979  20.474  0.00  0.00    +0.000 A 
ENDBRANCH  30  33
ENDBRANCH  29  30
ENDBRANCH   6  29
TORSDOF 10
ENDMDL
MODEL 5
REMARK VINA RESULT:      -8.0      0.753      1.194
REMARK  Name = 
REMARK  13 active torsions:
REMARK  status: ('A' for Active; 'I' for Inactive)
REMARK    1  A    between atoms: C_1  and  C_2
REMARK    2  A    between atoms: C_2  and  O_3
REMARK    3  A    between atoms: O_3  and  C_4
REMARK    4  A    between atoms: C_6  and  C_7
REMARK    5  A    between atoms: C_7  and  C_8
REMARK    6  A    between atoms: C_7  and  C_15
REMARK    7  A    between atoms: C_9  and  C_10
REMARK    8  A    between atoms: C_13  and  O_14
REMARK    9  A    between atoms: C_16  and  C_17
REMARK   10  A    between atoms: C_20  and  O_21
REMARK   11  A    between atoms: C_24  and  O_25
REMARK   12  A    between atoms: O_25  and  S_26
REMARK   13  A    between atoms: S_26  and  C_29
REMARK                            x       y       z     vdW  Elec       q    Type
REMARK                         _______ _______ _______ _____ _____    ______ ____
ROOT
ATOM      1  C   UNL     1       1.898   7.340  20.213  0.00  0.00    +0.000 A 
ATOM      2  C   UNL     1       2.626   6.135  20.054  0.00  0.00    +0.000 A 
ATOM      3  C   UNL     1       3.485   5.910  18.957  0.00  0.00    +0.000 A 
ATOM      4  C   UNL     1       3.483   6.884  17.955  0.00  0.00    +0.000 A 
ATOM      5  C   UNL     1       2.795   8.088  18.114  0.00  0.00    +0.000 A 
ATOM      6  C   UNL     1       2.063   8.370  19.272  0.00  0.00    +0.000 A 
ENDROOT
BRANCH   1   7
ATOM      7  O   UNL     1       1.163   7.379  21.368  0.00  0.00    +0.000 OA
BRANCH   7   9
ATOM      8  C   UNL     1      -0.358   8.974  22.329  0.00  0.00    +0.000 C 
ATOM      9  C   UNL     1       1.104   8.626  22.062  0.00  0.00    +0.000 C 
ENDBRANCH   7   9
ENDBRANCH   1   7
BRANCH   3  10
ATOM     10  C   UNL     1       4.428   4.704  18.931  0.00  0.00    +0.000 C 
BRANCH  10  11
ATOM     11  C   UNL     1       3.585   3.461  18.783  0.00  0.00    +0.000 A 
ATOM     12  C   UNL     1       2.319   3.259  18.136  0.00  0.00    +0.000 A 
ATOM     13  C   UNL     1       1.432   4.220  17.433  0.00  0.00    +0.000 C 
ATOM     14  N   UNL     1       1.944   1.970  18.182  0.00  0.00    +0.000 NA
ATOM     15  N   UNL     1       2.934   1.357  18.818  0.00  0.00    +0.000 N 
ATOM     16  C   UNL     1       3.948   2.190  19.199  0.00  0.00    +0.000 A 
ATOM     17  H   UNL     1       2.861   0.353  18.942  0.00  0.00    +0.000 HD
BRANCH  16  18
ATOM     18  O   UNL     1       5.050   1.766  19.810  0.00  0.00    +0.000 OA
ATOM     19  H   UNL     1       5.711   2.480  19.840  0.00  0.00    +0.000 HD
ENDBRANCH  16  18
ENDBRANCH  10  11
BRANCH  10  20
ATOM     20  C   UNL     1       5.516   4.876  17.877  0.00  0.00    +0.000 A 
ATOM     21  C   UNL     1       6.855   5.357  18.120  0.00  0.00    +0.000 A 
ATOM     22  C   UNL     1       7.522   5.748  19.389  0.00  0.00    +0.000 C 
ATOM     23  N   UNL     1       7.586   5.411  16.998  0.00  0.00    +0.000 NA
ATOM     24  N   UNL     1       6.757   4.975  16.050  0.00  0.00    +0.000 N 
ATOM     25  C   UNL     1       5.524   4.616  16.512  0.00  0.00    +0.000 A 
ATOM     26  H   UNL     1       7.108   4.932  15.102  0.00  0.00    +0.000 HD
BRANCH  25  27
ATOM     27  O   UNL     1       4.601   4.109  15.704  0.00  0.00    +0.000 OA
ATOM     28  H   UNL     1       4.518   3.147  15.809  0.00  0.00    +0.000 HD
ENDBRANCH  25  27
ENDBRANCH  10  20
ENDBRANCH   3  10
BRANCH   6  29
ATOM     29  O   UNL     1       1.574   9.646  19.497  0.00  0.00    +0.000 OA
BRANCH  29  30
ATOM     30  S   UNL     1       0.934  10.495  18.240  0.00  0.00    +0.000 S 
ATOM     31  O   UNL     1       2.018  10.963  17.392  0.00  0.00    +0.000 OA
ATOM     32  O   UNL     1      -0.185   9.755  17.681  0.00  0.00    +0.000 OA
BRANCH  30  33
ATOM     33  C   UNL     1       0.198  11.964  18.920  0.00  0.00    +0.000 A 
ATOM     34  C   UNL     1      -0.853  11.811  19.837  0.00  0.00    +0.000 A 
ATOM     35  C   UNL     1      -1.566  12.929  20.259  0.00  0.00    +0.000 A 
ATOM     36  C   UNL     1      -1.218  14.191  19.779  0.00  0.00    +0.000 A 
ATOM     37  C   UNL     1      -0.123  14.344  18.921  0.00  0.00    +0.000 A 
ATOM     38  C   UNL     1       0.602  13.230  18.495  0.00  0.00    +0.000 A 
ENDBRANCH  30  33
ENDBRANCH  29  30
ENDBRANCH   6  29
TORSDOF 10
ENDMDL
MODEL 6
REMARK VINA RESULT:      -7.9      1.779      3.980
REMARK  Name = 
REMARK  13 active torsions:
REMARK  status: ('A' for Active; 'I' for Inactive)
REMARK    1  A    between atoms: C_1  and  C_2
REMARK    2  A    between atoms: C_2  and  O_3
REMARK    3  A    between atoms: O_3  and  C_4
REMARK    4  A    between atoms: C_6  and  C_7
REMARK    5  A    between atoms: C_7  and  C_8
REMARK    6  A    between atoms: C_7  and  C_15
REMARK    7  A    between atoms: C_9  and  C_10
REMARK    8  A    between atoms: C_13  and  O_14
REMARK    9  A    between atoms: C_16  and  C_17
REMARK   10  A    between atoms: C_20  and  O_21
REMARK   11  A    between atoms: C_24  and  O_25
REMARK   12  A    between atoms: O_25  and  S_26
REMARK   13  A    between atoms: S_26  and  C_29
REMARK                            x       y       z     vdW  Elec       q    Type
REMARK                         _______ _______ _______ _____ _____    ______ ____
ROOT
ATOM      1  C   UNL     1       2.233   7.063  19.345  0.00  0.00    +0.000 A 
ATOM      2  C   UNL     1       2.772   5.899  18.742  0.00  0.00    +0.000 A 
ATOM      3  C   UNL     1       3.509   5.943  17.540  0.00  0.00    +0.000 A 
ATOM      4  C   UNL     1       3.572   7.180  16.893  0.00  0.00    +0.000 A 
ATOM      5  C   UNL     1       3.073   8.338  17.491  0.00  0.00    +0.000 A 
ATOM      6  C   UNL     1       2.472   8.314  18.754  0.00  0.00    +0.000 A 
ENDROOT
BRANCH   1   7
ATOM      7  O   UNL     1       1.595   6.812  20.531  0.00  0.00    +0.000 OA
BRANCH   7   9
ATOM      8  C   UNL     1       2.244   4.625  21.292  0.00  0.00    +0.000 C 
ATOM      9  C   UNL     1       1.110   5.486  20.742  0.00  0.00    +0.000 C 
ENDBRANCH   7   9
ENDBRANCH   1   7
BRANCH   3  10
ATOM     10  C   UNL     1       4.269   4.712  17.038  0.00  0.00    +0.000 C 
BRANCH  10  11
ATOM     11  C   UNL     1       5.562   5.186  16.422  0.00  0.00    +0.000 A 
ATOM     12  C   UNL     1       6.125   4.945  15.123  0.00  0.00    +0.000 A 
ATOM     13  C   UNL     1       5.618   4.131  13.990  0.00  0.00    +0.000 C 
ATOM     14  N   UNL     1       7.278   5.614  14.955  0.00  0.00    +0.000 NA
ATOM     15  N   UNL     1       7.448   6.276  16.093  0.00  0.00    +0.000 N 
ATOM     16  C   UNL     1       6.456   6.068  17.009  0.00  0.00    +0.000 A 
ATOM     17  H   UNL     1       8.264   6.874  16.169  0.00  0.00    +0.000 HD
BRANCH  16  18
ATOM     18  O   UNL     1       6.419   6.672  18.193  0.00  0.00    +0.000 OA
ATOM     19  H   UNL     1       5.998   7.545  18.110  0.00  0.00    +0.000 HD
ENDBRANCH  16  18
ENDBRANCH  10  11
BRANCH  10  20
ATOM     20  C   UNL     1       4.422   3.670  18.140  0.00  0.00    +0.000 A 
ATOM     21  C   UNL     1       3.619   2.480  18.291  0.00  0.00    +0.000 A 
ATOM     22  C   UNL     1       2.521   1.945  17.443  0.00  0.00    +0.000 C 
ATOM     23  N   UNL     1       3.979   1.756  19.360  0.00  0.00    +0.000 NA
ATOM     24  N   UNL     1       4.988   2.445  19.892  0.00  0.00    +0.000 N 
ATOM     25  C   UNL     1       5.317   3.575  19.199  0.00  0.00    +0.000 A 
ATOM     26  H   UNL     1       5.423   2.074  20.726  0.00  0.00    +0.000 HD
BRANCH  25  27
ATOM     27  O   UNL     1       6.336   4.342  19.565  0.00  0.00    +0.000 OA
ATOM     28  H   UNL     1       7.187   3.980  19.268  0.00  0.00    +0.000 HD
ENDBRANCH  25  27
ENDBRANCH  10  20
ENDBRANCH   3  10
BRANCH   6  29
ATOM     29  O   UNL     1       2.185   9.498  19.414  0.00  0.00    +0.000 OA
BRANCH  29  30
ATOM     30  S   UNL     1       0.784  10.292  19.068  0.00  0.00    +0.000 S 
ATOM     31  O   UNL     1       1.107  11.646  18.649  0.00  0.00    +0.000 OA
ATOM     32  O   UNL     1      -0.062   9.439  18.252  0.00  0.00    +0.000 OA
BRANCH  30  33
ATOM     33  C   UNL     1      -0.108  10.470  20.596  0.00  0.00    +0.000 A 
ATOM     34  C   UNL     1      -0.883  11.625  20.776  0.00  0.00    +0.000 A 
ATOM     35  C   UNL     1      -1.455  11.883  22.018  0.00  0.00    +0.000 A 
ATOM     36  C   UNL     1      -1.266  10.982  23.065  0.00  0.00    +0.000 A 
ATOM     37  C   UNL     1      -0.552   9.797  22.858  0.00  0.00    +0.000 A 
ATOM     38  C   UNL     1       0.022   9.526  21.615  0.00  0.00    +0.000 A 
ENDBRANCH  30  33
ENDBRANCH  29  30
ENDBRANCH   6  29
TORSDOF 10
ENDMDL
MODEL 7
REMARK VINA RESULT:      -7.9      1.469      1.954
REMARK  Name = 
REMARK  13 active torsions:
REMARK  status: ('A' for Active; 'I' for Inactive)
REMARK    1  A    between atoms: C_1  and  C_2
REMARK    2  A    between atoms: C_2  and  O_3
REMARK    3  A    between atoms: O_3  and  C_4
REMARK    4  A    between atoms: C_6  and  C_7
REMARK    5  A    between atoms: C_7  and  C_8
REMARK    6  A    between atoms: C_7  and  C_15
REMARK    7  A    between atoms: C_9  and  C_10
REMARK    8  A    between atoms: C_13  and  O_14
REMARK    9  A    between atoms: C_16  and  C_17
REMARK   10  A    between atoms: C_20  and  O_21
REMARK   11  A    between atoms: C_24  and  O_25
REMARK   12  A    between atoms: O_25  and  S_26
REMARK   13  A    between atoms: S_26  and  C_29
REMARK                            x       y       z     vdW  Elec       q    Type
REMARK                         _______ _______ _______ _____ _____    ______ ____
ROOT
ATOM      1  C   UNL     1       1.894   7.252  20.238  0.00  0.00    +0.000 A 
ATOM      2  C   UNL     1       2.620   6.035  20.200  0.00  0.00    +0.000 A 
ATOM      3  C   UNL     1       3.565   5.750  19.193  0.00  0.00    +0.000 A 
ATOM      4  C   UNL     1       3.658   6.672  18.147  0.00  0.00    +0.000 A 
ATOM      5  C   UNL     1       2.973   7.888  18.189  0.00  0.00    +0.000 A 
ATOM      6  C   UNL     1       2.149   8.232  19.265  0.00  0.00    +0.000 A 
ENDROOT
BRANCH   1   7
ATOM      7  O   UNL     1       1.065   7.353  21.324  0.00  0.00    +0.000 OA
BRANCH   7   9
ATOM      8  C   UNL     1      -0.373   9.060  22.217  0.00  0.00    +0.000 C 
ATOM      9  C   UNL     1       1.068   8.593  22.032  0.00  0.00    +0.000 C 
ENDBRANCH   7   9
ENDBRANCH   1   7
BRANCH   3  10
ATOM     10  C   UNL     1       4.493   4.537  19.305  0.00  0.00    +0.000 C 
BRANCH  10  11
ATOM     11  C   UNL     1       3.704   3.313  18.911  0.00  0.00    +0.000 A 
ATOM     12  C   UNL     1       2.497   3.182  18.144  0.00  0.00    +0.000 A 
ATOM     13  C   UNL     1       1.635   4.218  17.523  0.00  0.00    +0.000 C 
ATOM     14  N   UNL     1       2.162   1.893  17.971  0.00  0.00    +0.000 NA
ATOM     15  N   UNL     1       3.122   1.214  18.585  0.00  0.00    +0.000 N 
ATOM     16  C   UNL     1       4.077   2.001  19.163  0.00  0.00    +0.000 A 
ATOM     17  H   UNL     1       3.072   0.201  18.554  0.00  0.00    +0.000 HD
BRANCH  16  18
ATOM     18  O   UNL     1       5.144   1.514  19.789  0.00  0.00    +0.000 OA
ATOM     19  H   UNL     1       5.955   1.911  19.425  0.00  0.00    +0.000 HD
ENDBRANCH  16  18
ENDBRANCH  10  11
BRANCH  10  20
ATOM     20  C   UNL     1       5.783   4.754  18.524  0.00  0.00    +0.000 A 
ATOM     21  C   UNL     1       5.954   4.550  17.106  0.00  0.00    +0.000 A 
ATOM     22  C   UNL     1       4.972   4.143  16.067  0.00  0.00    +0.000 C 
ATOM     23  N   UNL     1       7.204   4.812  16.701  0.00  0.00    +0.000 NA
ATOM     24  N   UNL     1       7.834   5.181  17.816  0.00  0.00    +0.000 N 
ATOM     25  C   UNL     1       7.039   5.195  18.926  0.00  0.00    +0.000 A 
ATOM     26  H   UNL     1       8.812   5.430  17.743  0.00  0.00    +0.000 HD
BRANCH  25  27
ATOM     27  O   UNL     1       7.500   5.594  20.105  0.00  0.00    +0.000 OA
ATOM     28  H   UNL     1       7.782   4.845  20.655  0.00  0.00    +0.000 HD
ENDBRANCH  25  27
ENDBRANCH  10  20
ENDBRANCH   3  10
BRANCH   6  29
ATOM     29  O   UNL     1       1.658   9.521  19.385  0.00  0.00    +0.000 OA
BRANCH  29  30
ATOM     30  S   UNL     1       0.890  10.212  18.102  0.00  0.00    +0.000 S 
ATOM     31  O   UNL     1       1.812  11.121  17.441  0.00  0.00    +0.000 OA
ATOM     32  O   UNL     1       0.189   9.184  17.352  0.00  0.00    +0.000 OA
BRANCH  30  33
ATOM     33  C   UNL     1      -0.402  11.243  18.757  0.00  0.00    +0.000 A 
ATOM     34  C   UNL     1      -0.113  12.027  19.883  0.00  0.00    +0.000 A 
ATOM     35  C   UNL     1      -1.139  12.713  20.526  0.00  0.00    +0.000 A 
ATOM     36  C   UNL     1      -2.440  12.625  20.035  0.00  0.00    +0.000 A 
ATOM     37  C   UNL     1      -2.709  11.899  18.870  0.00  0.00    +0.000 A 
ATOM     38  C   UNL     1      -1.687  11.212  18.214  0.00  0.00    +0.000 A 
ENDBRANCH  30  33
ENDBRANCH  29  30
ENDBRANCH   6  29
TORSDOF 10
ENDMDL
MODEL 8
REMARK VINA RESULT:      -7.9      1.510      2.387
REMARK  Name = 
REMARK  13 active torsions:
REMARK  status: ('A' for Active; 'I' for Inactive)
REMARK    1  A    between atoms: C_1  and  C_2
REMARK    2  A    between atoms: C_2  and  O_3
REMARK    3  A    between atoms: O_3  and  C_4
REMARK    4  A    between atoms: C_6  and  C_7
REMARK    5  A    between atoms: C_7  and  C_8
REMARK    6  A    between atoms: C_7  and  C_15
REMARK    7  A    between atoms: C_9  and  C_10
REMARK    8  A    between atoms: C_13  and  O_14
REMARK    9  A    between atoms: C_16  and  C_17
REMARK   10  A    between atoms: C_20  and  O_21
REMARK   11  A    between atoms: C_24  and  O_25
REMARK   12  A    between atoms: O_25  and  S_26
REMARK   13  A    between atoms: S_26  and  C_29
REMARK                            x       y       z     vdW  Elec       q    Type
REMARK                         _______ _______ _______ _____ _____    ______ ____
ROOT
ATOM      1  C   UNL     1       2.609   7.873  18.759  0.00  0.00    +0.000 A 
ATOM      2  C   UNL     1       3.553   6.834  18.563  0.00  0.00    +0.000 A 
ATOM      3  C   UNL     1       3.633   5.716  19.419  0.00  0.00    +0.000 A 
ATOM      4  C   UNL     1       2.823   5.743  20.558  0.00  0.00    +0.000 A 
ATOM      5  C   UNL     1       1.869   6.744  20.745  0.00  0.00    +0.000 A 
ATOM      6  C   UNL     1       1.690   7.774  19.816  0.00  0.00    +0.000 A 
ENDROOT
BRANCH   1   7
ATOM      7  O   UNL     1       2.661   8.841  17.790  0.00  0.00    +0.000 OA
BRANCH   7   9
ATOM      8  C   UNL     1       2.253  11.183  18.142  0.00  0.00    +0.000 C 
ATOM      9  C   UNL     1       1.633   9.831  17.802  0.00  0.00    +0.000 C 
ENDBRANCH   7   9
ENDBRANCH   1   7
BRANCH   3  10
ATOM     10  C   UNL     1       4.499   4.507  19.054  0.00  0.00    +0.000 C 
BRANCH  10  11
ATOM     11  C   UNL     1       3.576   3.352  18.752  0.00  0.00    +0.000 A 
ATOM     12  C   UNL     1       2.306   3.317  18.083  0.00  0.00    +0.000 A 
ATOM     13  C   UNL     1       1.492   4.415  17.504  0.00  0.00    +0.000 C 
ATOM     14  N   UNL     1       1.846   2.060  17.968  0.00  0.00    +0.000 NA
ATOM     15  N   UNL     1       2.787   1.308  18.523  0.00  0.00    +0.000 N 
ATOM     16  C   UNL     1       3.850   2.016  19.006  0.00  0.00    +0.000 A 
ATOM     17  H   UNL     1       2.646   0.303  18.521  0.00  0.00    +0.000 HD
BRANCH  16  18
ATOM     18  O   UNL     1       4.916   1.447  19.561  0.00  0.00    +0.000 OA
ATOM     19  H   UNL     1       4.648   0.660  20.068  0.00  0.00    +0.000 HD
ENDBRANCH  16  18
ENDBRANCH  10  11
BRANCH  10  20
ATOM     20  C   UNL     1       5.489   4.850  17.948  0.00  0.00    +0.000 A 
ATOM     21  C   UNL     1       6.800   5.422  18.139  0.00  0.00    +0.000 A 
ATOM     22  C   UNL     1       7.526   5.770  19.388  0.00  0.00    +0.000 C 
ATOM     23  N   UNL     1       7.441   5.624  16.979  0.00  0.00    +0.000 NA
ATOM     24  N   UNL     1       6.581   5.193  16.056  0.00  0.00    +0.000 N 
ATOM     25  C   UNL     1       5.417   4.697  16.568  0.00  0.00    +0.000 A 
ATOM     26  H   UNL     1       6.863   5.252  15.086  0.00  0.00    +0.000 HD
BRANCH  25  27
ATOM     27  O   UNL     1       4.480   4.177  15.785  0.00  0.00    +0.000 OA
ATOM     28  H   UNL     1       3.623   4.117  16.238  0.00  0.00    +0.000 HD
ENDBRANCH  25  27
ENDBRANCH  10  20
ENDBRANCH   3  10
BRANCH   6  29
ATOM     29  O   UNL     1       0.600   8.624  19.915  0.00  0.00    +0.000 OA
BRANCH  29  30
ATOM     30  S   UNL     1       0.263   9.335  21.361  0.00  0.00    +0.000 S 
ATOM     31  O   UNL     1      -0.638   8.473  22.107  0.00  0.00    +0.000 OA
ATOM     32  O   UNL     1       1.498   9.819  21.957  0.00  0.00    +0.000 OA
BRANCH  30  33
ATOM     33  C   UNL     1      -0.669  10.809  21.016  0.00  0.00    +0.000 A 
ATOM     34  C   UNL     1      -1.003  11.645  22.091  0.00  0.00    +0.000 A 
ATOM     35  C   UNL     1      -1.874  12.712  21.889  0.00  0.00    +0.000 A 
ATOM     36  C   UNL     1      -2.392  12.947  20.616  0.00  0.00    +0.000 A 
ATOM     37  C   UNL     1      -1.998  12.153  19.534  0.00  0.00    +0.000 A 
ATOM     38  C   UNL     1      -1.122  11.084  19.725  0.00  0.00    +0.000 A 
ENDBRANCH  30  33
ENDBRANCH  29  30
ENDBRANCH   6  29
TORSDOF 10
ENDMDL
MODEL 9
REMARK VINA RESULT:      -7.8      1.636      2.324
REMARK  Name = 
REMARK  13 active torsions:
REMARK  status: ('A' for Active; 'I' for Inactive)
REMARK    1  A    between atoms: C_1  and  C_2
REMARK    2  A    between atoms: C_2  and  O_3
REMARK    3  A    between atoms: O_3  and  C_4
REMARK    4  A    between atoms: C_6  and  C_7
REMARK    5  A    between atoms: C_7  and  C_8
REMARK    6  A    between atoms: C_7  and  C_15
REMARK    7  A    between atoms: C_9  and  C_10
REMARK    8  A    between atoms: C_13  and  O_14
REMARK    9  A    between atoms: C_16  and  C_17
REMARK   10  A    between atoms: C_20  and  O_21
REMARK   11  A    between atoms: C_24  and  O_25
REMARK   12  A    between atoms: O_25  and  S_26
REMARK   13  A    between atoms: S_26  and  C_29
REMARK                            x       y       z     vdW  Elec       q    Type
REMARK                         _______ _______ _______ _____ _____    ______ ____
ROOT
ATOM      1  C   UNL     1       1.753   7.245  20.433  0.00  0.00    +0.000 A 
ATOM      2  C   UNL     1       2.475   6.030  20.328  0.00  0.00    +0.000 A 
ATOM      3  C   UNL     1       3.400   5.789  19.291  0.00  0.00    +0.000 A 
ATOM      4  C   UNL     1       3.476   6.757  18.286  0.00  0.00    +0.000 A 
ATOM      5  C   UNL     1       2.795   7.970  18.394  0.00  0.00    +0.000 A 
ATOM      6  C   UNL     1       1.992   8.267  19.500  0.00  0.00    +0.000 A 
ENDROOT
BRANCH   1   7
ATOM      7  O   UNL     1       0.944   7.300  21.538  0.00  0.00    +0.000 OA
BRANCH   7   9
ATOM      8  C   UNL     1      -0.207   9.105  22.630  0.00  0.00    +0.000 C 
ATOM      9  C   UNL     1      -0.215   8.129  21.457  0.00  0.00    +0.000 C 
ENDBRANCH   7   9
ENDBRANCH   1   7
BRANCH   3  10
ATOM     10  C   UNL     1       4.327   4.571  19.332  0.00  0.00    +0.000 C 
BRANCH  10  11
ATOM     11  C   UNL     1       3.528   3.367  18.896  0.00  0.00    +0.000 A 
ATOM     12  C   UNL     1       2.313   3.273  18.137  0.00  0.00    +0.000 A 
ATOM     13  C   UNL     1       1.450   4.337  17.566  0.00  0.00    +0.000 C 
ATOM     14  N   UNL     1       1.970   1.993  17.915  0.00  0.00    +0.000 NA
ATOM     15  N   UNL     1       2.932   1.285  18.492  0.00  0.00    +0.000 N 
ATOM     16  C   UNL     1       3.897   2.044  19.092  0.00  0.00    +0.000 A 
ATOM     17  H   UNL     1       2.878   0.274  18.421  0.00  0.00    +0.000 HD
BRANCH  16  18
ATOM     18  O   UNL     1       4.967   1.528  19.687  0.00  0.00    +0.000 OA
ATOM     19  H   UNL     1       5.758   1.674  19.139  0.00  0.00    +0.000 HD
ENDBRANCH  16  18
ENDBRANCH  10  11
BRANCH  10  20
ATOM     20  C   UNL     1       5.604   4.821  18.538  0.00  0.00    +0.000 A 
ATOM     21  C   UNL     1       5.753   4.667  17.111  0.00  0.00    +0.000 A 
ATOM     22  C   UNL     1       4.756   4.291  16.074  0.00  0.00    +0.000 C 
ATOM     23  N   UNL     1       6.996   4.948  16.696  0.00  0.00    +0.000 NA
ATOM     24  N   UNL     1       7.641   5.282  17.813  0.00  0.00    +0.000 N 
ATOM     25  C   UNL     1       6.864   5.253  18.935  0.00  0.00    +0.000 A 
ATOM     26  H   UNL     1       8.617   5.538  17.734  0.00  0.00    +0.000 HD
BRANCH  25  27
ATOM     27  O   UNL     1       7.341   5.613  20.120  0.00  0.00    +0.000 OA
ATOM     28  H   UNL     1       8.234   5.265  20.272  0.00  0.00    +0.000 HD
ENDBRANCH  25  27
ENDBRANCH  10  20
ENDBRANCH   3  10
BRANCH   6  29
ATOM     29  O   UNL     1       1.506   9.551  19.687  0.00  0.00    +0.000 OA
BRANCH  29  30
ATOM     30  S   UNL     1       1.108  10.459  18.372  0.00  0.00    +0.000 S 
ATOM     31  O   UNL     1       1.661  11.793  18.541  0.00  0.00    +0.000 OA
ATOM     32  O   UNL     1       1.364   9.692  17.164  0.00  0.00    +0.000 OA
BRANCH  30  33
ATOM     33  C   UNL     1      -0.657  10.672  18.397  0.00  0.00    +0.000 A 
ATOM     34  C   UNL     1      -1.425   9.916  17.500  0.00  0.00    +0.000 A 
ATOM     35  C   UNL     1      -2.786  10.176  17.369  0.00  0.00    +0.000 A 
ATOM     36  C   UNL     1      -3.374  11.176  18.142  0.00  0.00    +0.000 A 
ATOM     37  C   UNL     1      -2.616  11.877  19.087  0.00  0.00    +0.000 A 
ATOM     38  C   UNL     1      -1.252  11.620  19.230  0.00  0.00    +0.000 A 
ENDBRANCH  30  33
ENDBRANCH  29  30
ENDBRANCH   6  29
TORSDOF 10
ENDMDL
