MODEL 1
REMARK VINA RESULT:      -8.1      0.000      0.000
REMARK  Name = 
REMARK  15 active torsions:
REMARK  status: ('A' for Active; 'I' for Inactive)
REMARK    1  A    between atoms: C_1  and  O_2
REMARK    2  A    between atoms: O_2  and  C_3
REMARK    3  A    between atoms: C_5  and  C_6
REMARK    4  A    between atoms: C_6  and  C_7
REMARK    5  A    between atoms: C_7  and  C_8
REMARK    6  A    between atoms: C_8  and  O_9
REMARK    7  A    between atoms: O_9  and  C_10
REMARK    8  A    between atoms: C_10  and  C_12
REMARK    9  A    between atoms: N_17  and  S_18
REMARK   10  A    between atoms: S_18  and  C_21
REMARK   11  A    between atoms: C_21  and  C_22
REMARK   12  A    between atoms: C_29  and  O_30
REMARK   13  A    between atoms: O_30  and  C_31
REMARK   14  A    between atoms: C_32  and  O_33
REMARK   15  A    between atoms: O_33  and  C_34
REMARK                            x       y       z     vdW  Elec       q    Type
REMARK                         _______ _______ _______ _____ _____    ______ ____
ROOT
ATOM      1  C   UNL     1       4.904   6.896  17.110  0.00  0.00    +0.000 C 
ATOM      2  O   UNL     1       5.939   7.433  17.485  0.00  0.00    +0.000 OA
ENDROOT
BRANCH   1   3
ATOM      3  C   UNL     1       4.754   5.420  16.762  0.00  0.00    +0.000 C 
ATOM      4  C   UNL     1       4.921   5.188  15.254  0.00  0.00    +0.000 C 
ATOM      5  C   UNL     1       6.371   5.215  14.792  0.00  0.00    +0.000 C 
ATOM      6  C   UNL     1       7.227   4.294  15.648  0.00  0.00    +0.000 C 
ATOM      7  C   UNL     1       7.063   4.581  17.139  0.00  0.00    +0.000 C 
ATOM      8  N   UNL     1       5.621   4.479  17.542  0.00  0.00    +0.000 NA
BRANCH   8   9
ATOM      9  S   UNL     1       5.430   4.548  19.260  0.00  0.00    +0.000 S 
ATOM     10  O   UNL     1       5.258   3.179  19.700  0.00  0.00    +0.000 OA
ATOM     11  O   UNL     1       6.520   5.360  19.769  0.00  0.00    +0.000 OA
BRANCH   9  12
ATOM     12  C   UNL     1       3.869   5.430  19.466  0.00  0.00    +0.000 C 
BRANCH  12  13
ATOM     13  C   UNL     1       2.742   4.436  19.589  0.00  0.00    +0.000 A 
ATOM     14  C   UNL     1       2.269   4.038  20.851  0.00  0.00    +0.000 A 
ATOM     15  C   UNL     1       1.226   3.117  20.958  0.00  0.00    +0.000 A 
ATOM     16  C   UNL     1       0.641   2.585  19.807  0.00  0.00    +0.000 A 
ATOM     17  C   UNL     1       1.104   2.971  18.550  0.00  0.00    +0.000 A 
ATOM     18  C   UNL     1       2.147   3.893  18.442  0.00  0.00    +0.000 A 
ENDBRANCH  12  13
ENDBRANCH   9  12
ENDBRANCH   8   9
ENDBRANCH   1   3
BRANCH   1  19
ATOM     19  O   UNL     1       3.712   7.533  16.909  0.00  0.00    +0.000 OA
BRANCH  19  20
ATOM     20  C   UNL     1       3.032   7.947  18.102  0.00  0.00    +0.000 C 
BRANCH  20  21
ATOM     21  C   UNL     1       1.687   8.563  17.726  0.00  0.00    +0.000 C 
BRANCH  21  22
ATOM     22  C   UNL     1       1.304   9.686  18.680  0.00  0.00    +0.000 C 
BRANCH  22  25
ATOM     23  C   UNL     1      -2.165  10.198  17.181  0.00  0.00    +0.000 A 
ATOM     24  C   UNL     1      -0.810   9.843  17.321  0.00  0.00    +0.000 A 
ATOM     25  C   UNL     1      -0.055  10.282  18.406  0.00  0.00    +0.000 A 
ATOM     26  C   UNL     1      -0.642  11.188  19.288  0.00  0.00    +0.000 A 
ATOM     27  C   UNL     1      -1.963  11.640  19.116  0.00  0.00    +0.000 A 
ATOM     28  C   UNL     1      -2.748  11.146  18.049  0.00  0.00    +0.000 A 
BRANCH  23  30
ATOM     29  C   UNL     1      -2.923  10.302  14.945  0.00  0.00    +0.000 C 
ATOM     30  O   UNL     1      -2.919   9.603  16.195  0.00  0.00    +0.000 OA
ENDBRANCH  23  30
BRANCH  27  31
ATOM     31  O   UNL     1      -2.318  12.521  20.109  0.00  0.00    +0.000 OA
ATOM     32  C   UNL     1      -1.332  13.007  21.006  0.00  0.00    +0.000 C 
ENDBRANCH  27  31
BRANCH  28  33
ATOM     33  O   UNL     1      -4.017  11.645  17.969  0.00  0.00    +0.000 OA
ATOM     34  C   UNL     1      -5.141  10.913  18.419  0.00  0.00    +0.000 C 
ENDBRANCH  28  33
ENDBRANCH  22  25
ENDBRANCH  21  22
ENDBRANCH  20  21
ENDBRANCH  19  20
ENDBRANCH   1  19
TORSDOF 12
ENDMDL
MODEL 2
REMARK VINA RESULT:      -8.1      2.351      2.972
REMARK  Name = 
REMARK  15 active torsions:
REMARK  status: ('A' for Active; 'I' for Inactive)
REMARK    1  A    between atoms: C_1  and  O_2
REMARK    2  A    between atoms: O_2  and  C_3
REMARK    3  A    between atoms: C_5  and  C_6
REMARK    4  A    between atoms: C_6  and  C_7
REMARK    5  A    between atoms: C_7  and  C_8
REMARK    6  A    between atoms: C_8  and  O_9
REMARK    7  A    between atoms: O_9  and  C_10
REMARK    8  A    between atoms: C_10  and  C_12
REMARK    9  A    between atoms: N_17  and  S_18
REMARK   10  A    between atoms: S_18  and  C_21
REMARK   11  A    between atoms: C_21  and  C_22
REMARK   12  A    between atoms: C_29  and  O_30
REMARK   13  A    between atoms: O_30  and  C_31
REMARK   14  A    between atoms: C_32  and  O_33
REMARK   15  A    between atoms: O_33  and  C_34
REMARK                            x       y       z     vdW  Elec       q    Type
REMARK                         _______ _______ _______ _____ _____    ______ ____
ROOT
ATOM      1  C   UNL     1       5.700   7.168  17.253  0.00  0.00    +0.000 C 
ATOM      2  O   UNL     1       6.884   7.467  17.162  0.00  0.00    +0.000 OA
ENDROOT
BRANCH   1   3
ATOM      3  C   UNL     1       5.090   5.841  16.820  0.00  0.00    +0.000 C 
ATOM      4  C   UNL     1       5.137   5.683  15.293  0.00  0.00    +0.000 C 
ATOM      5  C   UNL     1       6.511   5.298  14.764  0.00  0.00    +0.000 C 
ATOM      6  C   UNL     1       7.062   4.096  15.517  0.00  0.00    +0.000 C 
ATOM      7  C   UNL     1       7.034   4.306  17.029  0.00  0.00    +0.000 C 
ATOM      8  N   UNL     1       5.643   4.623  17.496  0.00  0.00    +0.000 NA
BRANCH   8   9
ATOM      9  S   UNL     1       5.529   4.616  19.221  0.00  0.00    +0.000 S 
ATOM     10  O   UNL     1       5.384   3.230  19.610  0.00  0.00    +0.000 OA
ATOM     11  O   UNL     1       6.636   5.415  19.715  0.00  0.00    +0.000 OA
BRANCH   9  12
ATOM     12  C   UNL     1       3.974   5.477  19.534  0.00  0.00    +0.000 C 
BRANCH  12  13
ATOM     13  C   UNL     1       2.838   4.486  19.521  0.00  0.00    +0.000 A 
ATOM     14  C   UNL     1       2.286   4.009  20.721  0.00  0.00    +0.000 A 
ATOM     15  C   UNL     1       1.235   3.091  20.702  0.00  0.00    +0.000 A 
ATOM     16  C   UNL     1       0.722   2.639  19.485  0.00  0.00    +0.000 A 
ATOM     17  C   UNL     1       1.264   3.104  18.287  0.00  0.00    +0.000 A 
ATOM     18  C   UNL     1       2.315   4.024  18.306  0.00  0.00    +0.000 A 
ENDBRANCH  12  13
ENDBRANCH   9  12
ENDBRANCH   8   9
ENDBRANCH   1   3
BRANCH   1  19
ATOM     19  O   UNL     1       4.714   7.986  17.732  0.00  0.00    +0.000 OA
BRANCH  19  20
ATOM     20  C   UNL     1       3.398   7.709  17.234  0.00  0.00    +0.000 C 
BRANCH  20  21
ATOM     21  C   UNL     1       2.366   8.190  18.251  0.00  0.00    +0.000 C 
BRANCH  21  22
ATOM     22  C   UNL     1       1.678   9.465  17.784  0.00  0.00    +0.000 C 
BRANCH  22  25
ATOM     23  C   UNL     1       0.800  10.639  21.304  0.00  0.00    +0.000 A 
ATOM     24  C   UNL     1       1.069   9.804  20.204  0.00  0.00    +0.000 A 
ATOM     25  C   UNL     1       1.134  10.312  18.908  0.00  0.00    +0.000 A 
ATOM     26  C   UNL     1       0.801  11.652  18.713  0.00  0.00    +0.000 A 
ATOM     27  C   UNL     1       0.428  12.486  19.783  0.00  0.00    +0.000 A 
ATOM     28  C   UNL     1       0.423  11.984  21.104  0.00  0.00    +0.000 A 
BRANCH  23  30
ATOM     29  C   UNL     1      -0.175   9.309  22.997  0.00  0.00    +0.000 C 
ATOM     30  O   UNL     1       0.919  10.134  22.579  0.00  0.00    +0.000 OA
ENDBRANCH  23  30
BRANCH  27  31
ATOM     31  O   UNL     1       0.150  13.758  19.344  0.00  0.00    +0.000 OA
ATOM     32  C   UNL     1       1.200  14.586  18.869  0.00  0.00    +0.000 C 
ENDBRANCH  27  31
BRANCH  28  33
ATOM     33  O   UNL     1       0.048  12.873  22.072  0.00  0.00    +0.000 OA
ATOM     34  C   UNL     1      -1.187  12.762  22.753  0.00  0.00    +0.000 C 
ENDBRANCH  28  33
ENDBRANCH  22  25
ENDBRANCH  21  22
ENDBRANCH  20  21
ENDBRANCH  19  20
ENDBRANCH   1  19
TORSDOF 12
ENDMDL
MODEL 3
REMARK VINA RESULT:      -8.0      5.521      7.974
REMARK  Name = 
REMARK  15 active torsions:
REMARK  status: ('A' for Active; 'I' for Inactive)
REMARK    1  A    between atoms: C_1  and  O_2
REMARK    2  A    between atoms: O_2  and  C_3
REMARK    3  A    between atoms: C_5  and  C_6
REMARK    4  A    between atoms: C_6  and  C_7
REMARK    5  A    between atoms: C_7  and  C_8
REMARK    6  A    between atoms: C_8  and  O_9
REMARK    7  A    between atoms: O_9  and  C_10
REMARK    8  A    between atoms: C_10  and  C_12
REMARK    9  A    between atoms: N_17  and  S_18
REMARK   10  A    between atoms: S_18  and  C_21
REMARK   11  A    between atoms: C_21  and  C_22
REMARK   12  A    between atoms: C_29  and  O_30
REMARK   13  A    between atoms: O_30  and  C_31
REMARK   14  A    between atoms: C_32  and  O_33
REMARK   15  A    between atoms: O_33  and  C_34
REMARK                            x       y       z     vdW  Elec       q    Type
REMARK                         _______ _______ _______ _____ _____    ______ ____
ROOT
ATOM      1  C   UNL     1       7.139   6.561  17.181  0.00  0.00    +0.000 C 
ATOM      2  O   UNL     1       7.964   5.672  17.342  0.00  0.00    +0.000 OA
ENDROOT
BRANCH   1   3
ATOM      3  C   UNL     1       5.657   6.347  16.896  0.00  0.00    +0.000 C 
ATOM      4  C   UNL     1       5.363   6.456  15.393  0.00  0.00    +0.000 C 
ATOM      5  C   UNL     1       5.760   5.216  14.604  0.00  0.00    +0.000 C 
ATOM      6  C   UNL     1       5.188   3.962  15.248  0.00  0.00    +0.000 C 
ATOM      7  C   UNL     1       5.534   3.870  16.732  0.00  0.00    +0.000 C 
ATOM      8  N   UNL     1       5.063   5.093  17.463  0.00  0.00    +0.000 NA
BRANCH   8   9
ATOM      9  S   UNL     1       5.211   4.912  19.176  0.00  0.00    +0.000 S 
ATOM     10  O   UNL     1       5.242   3.487  19.429  0.00  0.00    +0.000 OA
ATOM     11  O   UNL     1       6.310   5.765  19.592  0.00  0.00    +0.000 OA
BRANCH   9  12
ATOM     12  C   UNL     1       3.655   5.583  19.797  0.00  0.00    +0.000 C 
BRANCH  12  13
ATOM     13  C   UNL     1       2.587   4.522  19.730  0.00  0.00    +0.000 A 
ATOM     14  C   UNL     1       2.155   3.862  20.893  0.00  0.00    +0.000 A 
ATOM     15  C   UNL     1       1.166   2.879  20.823  0.00  0.00    +0.000 A 
ATOM     16  C   UNL     1       0.596   2.545  19.594  0.00  0.00    +0.000 A 
ATOM     17  C   UNL     1       1.018   3.192  18.433  0.00  0.00    +0.000 A 
ATOM     18  C   UNL     1       2.007   4.176  18.502  0.00  0.00    +0.000 A 
ENDBRANCH  12  13
ENDBRANCH   9  12
ENDBRANCH   8   9
ENDBRANCH   1   3
BRANCH   1  19
ATOM     19  O   UNL     1       7.408   7.902  17.199  0.00  0.00    +0.000 OA
BRANCH  19  20
ATOM     20  C   UNL     1       8.295   8.332  18.240  0.00  0.00    +0.000 C 
BRANCH  20  21
ATOM     21  C   UNL     1       8.427   9.852  18.191  0.00  0.00    +0.000 C 
BRANCH  21  22
ATOM     22  C   UNL     1       9.772  10.310  18.736  0.00  0.00    +0.000 C 
BRANCH  22  25
ATOM     23  C   UNL     1       9.220  12.371  21.898  0.00  0.00    +0.000 A 
ATOM     24  C   UNL     1       9.101  11.360  20.925  0.00  0.00    +0.000 A 
ATOM     25  C   UNL     1       9.681  11.496  19.666  0.00  0.00    +0.000 A 
ATOM     26  C   UNL     1      10.276  12.716  19.347  0.00  0.00    +0.000 A 
ATOM     27  C   UNL     1      10.319  13.782  20.265  0.00  0.00    +0.000 A 
ATOM     28  C   UNL     1       9.785  13.620  21.564  0.00  0.00    +0.000 A 
BRANCH  23  30
ATOM     29  C   UNL     1       7.371  11.957  23.311  0.00  0.00    +0.000 C 
ATOM     30  O   UNL     1       8.787  12.125  23.181  0.00  0.00    +0.000 OA
ENDBRANCH  23  30
BRANCH  27  31
ATOM     31  O   UNL     1      10.956  14.873  19.726  0.00  0.00    +0.000 OA
ATOM     32  C   UNL     1      10.211  15.839  19.002  0.00  0.00    +0.000 C 
ENDBRANCH  27  31
BRANCH  28  33
ATOM     33  O   UNL     1       9.876  14.712  22.380  0.00  0.00    +0.000 OA
ATOM     34  C   UNL     1       8.800  15.616  22.545  0.00  0.00    +0.000 C 
ENDBRANCH  28  33
ENDBRANCH  22  25
ENDBRANCH  21  22
ENDBRANCH  20  21
ENDBRANCH  19  20
ENDBRANCH   1  19
TORSDOF 12
ENDMDL
MODEL 4
REMARK VINA RESULT:      -7.9      2.581      3.071
REMARK  Name = 
REMARK  15 active torsions:
REMARK  status: ('A' for Active; 'I' for Inactive)
REMARK    1  A    between atoms: C_1  and  O_2
REMARK    2  A    between atoms: O_2  and  C_3
REMARK    3  A    between atoms: C_5  and  C_6
REMARK    4  A    between atoms: C_6  and  C_7
REMARK    5  A    between atoms: C_7  and  C_8
REMARK    6  A    between atoms: C_8  and  O_9
REMARK    7  A    between atoms: O_9  and  C_10
REMARK    8  A    between atoms: C_10  and  C_12
REMARK    9  A    between atoms: N_17  and  S_18
REMARK   10  A    between atoms: S_18  and  C_21
REMARK   11  A    between atoms: C_21  and  C_22
REMARK   12  A    between atoms: C_29  and  O_30
REMARK   13  A    between atoms: O_30  and  C_31
REMARK   14  A    between atoms: C_32  and  O_33
REMARK   15  A    between atoms: O_33  and  C_34
REMARK                            x       y       z     vdW  Elec       q    Type
REMARK                         _______ _______ _______ _____ _____    ______ ____
ROOT
ATOM      1  C   UNL     1       5.400   7.045  17.253  0.00  0.00    +0.000 C 
ATOM      2  O   UNL     1       6.444   7.569  16.888  0.00  0.00    +0.000 OA
ENDROOT
BRANCH   1   3
ATOM      3  C   UNL     1       4.928   5.651  16.857  0.00  0.00    +0.000 C 
ATOM      4  C   UNL     1       5.000   5.454  15.337  0.00  0.00    +0.000 C 
ATOM      5  C   UNL     1       6.410   5.192  14.824  0.00  0.00    +0.000 C 
ATOM      6  C   UNL     1       7.072   4.074  15.616  0.00  0.00    +0.000 C 
ATOM      7  C   UNL     1       7.012   4.324  17.121  0.00  0.00    +0.000 C 
ATOM      8  N   UNL     1       5.594   4.515  17.571  0.00  0.00    +0.000 NA
BRANCH   8   9
ATOM      9  S   UNL     1       5.469   4.548  19.296  0.00  0.00    +0.000 S 
ATOM     10  O   UNL     1       5.311   3.171  19.714  0.00  0.00    +0.000 OA
ATOM     11  O   UNL     1       6.578   5.349  19.779  0.00  0.00    +0.000 OA
BRANCH   9  12
ATOM     12  C   UNL     1       3.918   5.426  19.579  0.00  0.00    +0.000 C 
BRANCH  12  13
ATOM     13  C   UNL     1       2.781   4.437  19.634  0.00  0.00    +0.000 A 
ATOM     14  C   UNL     1       2.273   3.992  20.865  0.00  0.00    +0.000 A 
ATOM     15  C   UNL     1       1.221   3.076  20.908  0.00  0.00    +0.000 A 
ATOM     16  C   UNL     1       0.664   2.594  19.722  0.00  0.00    +0.000 A 
ATOM     17  C   UNL     1       1.162   3.026  18.494  0.00  0.00    +0.000 A 
ATOM     18  C   UNL     1       2.214   3.944  18.450  0.00  0.00    +0.000 A 
ENDBRANCH  12  13
ENDBRANCH   9  12
ENDBRANCH   8   9
ENDBRANCH   1   3
BRANCH   1  19
ATOM     19  O   UNL     1       4.461   7.631  18.056  0.00  0.00    +0.000 OA
BRANCH  19  20
ATOM     20  C   UNL     1       3.455   8.386  17.366  0.00  0.00    +0.000 C 
BRANCH  20  21
ATOM     21  C   UNL     1       2.079   7.988  17.893  0.00  0.00    +0.000 C 
BRANCH  21  22
ATOM     22  C   UNL     1       1.082   9.131  17.763  0.00  0.00    +0.000 C 
BRANCH  22  25
ATOM     23  C   UNL     1       1.684  12.578  19.280  0.00  0.00    +0.000 A 
ATOM     24  C   UNL     1       1.730  11.480  18.401  0.00  0.00    +0.000 A 
ATOM     25  C   UNL     1       1.271  10.223  18.788  0.00  0.00    +0.000 A 
ATOM     26  C   UNL     1       0.881  10.049  20.115  0.00  0.00    +0.000 A 
ATOM     27  C   UNL     1       0.921  11.105  21.044  0.00  0.00    +0.000 A 
ATOM     28  C   UNL     1       1.328  12.395  20.633  0.00  0.00    +0.000 A 
BRANCH  23  30
ATOM     29  C   UNL     1       3.378  14.094  18.634  0.00  0.00    +0.000 C 
ATOM     30  O   UNL     1       1.980  13.835  18.804  0.00  0.00    +0.000 OA
ENDBRANCH  23  30
BRANCH  27  31
ATOM     31  O   UNL     1       0.487  10.693  22.280  0.00  0.00    +0.000 OA
ATOM     32  C   UNL     1      -0.893  10.762  22.604  0.00  0.00    +0.000 C 
ENDBRANCH  27  31
BRANCH  28  33
ATOM     33  O   UNL     1       1.332  13.351  21.609  0.00  0.00    +0.000 OA
ATOM     34  C   UNL     1       0.235  14.222  21.809  0.00  0.00    +0.000 C 
ENDBRANCH  28  33
ENDBRANCH  22  25
ENDBRANCH  21  22
ENDBRANCH  20  21
ENDBRANCH  19  20
ENDBRANCH   1  19
TORSDOF 12
ENDMDL
MODEL 5
REMARK VINA RESULT:      -7.8      5.777      8.236
REMARK  Name = 
REMARK  15 active torsions:
REMARK  status: ('A' for Active; 'I' for Inactive)
REMARK    1  A    between atoms: C_1  and  O_2
REMARK    2  A    between atoms: O_2  and  C_3
REMARK    3  A    between atoms: C_5  and  C_6
REMARK    4  A    between atoms: C_6  and  C_7
REMARK    5  A    between atoms: C_7  and  C_8
REMARK    6  A    between atoms: C_8  and  O_9
REMARK    7  A    between atoms: O_9  and  C_10
REMARK    8  A    between atoms: C_10  and  C_12
REMARK    9  A    between atoms: N_17  and  S_18
REMARK   10  A    between atoms: S_18  and  C_21
REMARK   11  A    between atoms: C_21  and  C_22
REMARK   12  A    between atoms: C_29  and  O_30
REMARK   13  A    between atoms: O_30  and  C_31
REMARK   14  A    between atoms: C_32  and  O_33
REMARK   15  A    between atoms: O_33  and  C_34
REMARK                            x       y       z     vdW  Elec       q    Type
REMARK                         _______ _______ _______ _____ _____    ______ ____
ROOT
ATOM      1  C   UNL     1       6.934   6.832  16.986  0.00  0.00    +0.000 C 
ATOM      2  O   UNL     1       7.932   6.202  16.662  0.00  0.00    +0.000 OA
ENDROOT
BRANCH   1   3
ATOM      3  C   UNL     1       5.495   6.395  16.736  0.00  0.00    +0.000 C 
ATOM      4  C   UNL     1       5.164   6.415  15.237  0.00  0.00    +0.000 C 
ATOM      5  C   UNL     1       5.726   5.225  14.473  0.00  0.00    +0.000 C 
ATOM      6  C   UNL     1       5.356   3.919  15.161  0.00  0.00    +0.000 C 
ATOM      7  C   UNL     1       5.736   3.923  16.640  0.00  0.00    +0.000 C 
ATOM      8  N   UNL     1       5.102   5.084  17.348  0.00  0.00    +0.000 NA
BRANCH   8   9
ATOM      9  S   UNL     1       5.303   4.977  19.062  0.00  0.00    +0.000 S 
ATOM     10  O   UNL     1       6.721   5.132  19.311  0.00  0.00    +0.000 OA
ATOM     11  O   UNL     1       4.341   5.889  19.653  0.00  0.00    +0.000 OA
BRANCH   9  12
ATOM     12  C   UNL     1       4.827   3.274  19.427  0.00  0.00    +0.000 C 
BRANCH  12  13
ATOM     13  C   UNL     1       3.325   3.181  19.523  0.00  0.00    +0.000 A 
ATOM     14  C   UNL     1       2.537   3.055  18.368  0.00  0.00    +0.000 A 
ATOM     15  C   UNL     1       1.147   2.970  18.464  0.00  0.00    +0.000 A 
ATOM     16  C   UNL     1       0.529   3.008  19.715  0.00  0.00    +0.000 A 
ATOM     17  C   UNL     1       1.301   3.135  20.869  0.00  0.00    +0.000 A 
ATOM     18  C   UNL     1       2.692   3.220  20.773  0.00  0.00    +0.000 A 
ENDBRANCH  12  13
ENDBRANCH   9  12
ENDBRANCH   8   9
ENDBRANCH   1   3
BRANCH   1  19
ATOM     19  O   UNL     1       6.935   8.054  17.600  0.00  0.00    +0.000 OA
BRANCH  19  20
ATOM     20  C   UNL     1       8.206   8.474  18.116  0.00  0.00    +0.000 C 
BRANCH  20  21
ATOM     21  C   UNL     1       8.241  10.000  18.182  0.00  0.00    +0.000 C 
BRANCH  21  22
ATOM     22  C   UNL     1       9.631  10.537  17.877  0.00  0.00    +0.000 C 
BRANCH  22  25
ATOM     23  C   UNL     1      10.951  14.085  18.337  0.00  0.00    +0.000 A 
ATOM     24  C   UNL     1      10.843  12.744  17.923  0.00  0.00    +0.000 A 
ATOM     25  C   UNL     1       9.917  11.880  18.503  0.00  0.00    +0.000 A 
ATOM     26  C   UNL     1       9.185  12.343  19.596  0.00  0.00    +0.000 A 
ATOM     27  C   UNL     1       9.347  13.647  20.097  0.00  0.00    +0.000 A 
ATOM     28  C   UNL     1      10.241  14.542  19.467  0.00  0.00    +0.000 A 
BRANCH  23  30
ATOM     29  C   UNL     1      11.037  15.834  16.750  0.00  0.00    +0.000 C 
ATOM     30  O   UNL     1      11.749  14.949  17.622  0.00  0.00    +0.000 OA
ENDBRANCH  23  30
BRANCH  27  31
ATOM     31  O   UNL     1       8.519  13.870  21.170  0.00  0.00    +0.000 OA
ATOM     32  C   UNL     1       9.003  13.672  22.489  0.00  0.00    +0.000 C 
ENDBRANCH  27  31
BRANCH  28  33
ATOM     33  O   UNL     1      10.326  15.785  20.029  0.00  0.00    +0.000 OA
ATOM     34  C   UNL     1      11.417  16.166  20.845  0.00  0.00    +0.000 C 
ENDBRANCH  28  33
ENDBRANCH  22  25
ENDBRANCH  21  22
ENDBRANCH  20  21
ENDBRANCH  19  20
ENDBRANCH   1  19
TORSDOF 12
ENDMDL
MODEL 6
REMARK VINA RESULT:      -7.8      1.083      1.819
REMARK  Name = 
REMARK  15 active torsions:
REMARK  status: ('A' for Active; 'I' for Inactive)
REMARK    1  A    between atoms: C_1  and  O_2
REMARK    2  A    between atoms: O_2  and  C_3
REMARK    3  A    between atoms: C_5  and  C_6
REMARK    4  A    between atoms: C_6  and  C_7
REMARK    5  A    between atoms: C_7  and  C_8
REMARK    6  A    between atoms: C_8  and  O_9
REMARK    7  A    between atoms: O_9  and  C_10
REMARK    8  A    between atoms: C_10  and  C_12
REMARK    9  A    between atoms: N_17  and  S_18
REMARK   10  A    between atoms: S_18  and  C_21
REMARK   11  A    between atoms: C_21  and  C_22
REMARK   12  A    between atoms: C_29  and  O_30
REMARK   13  A    between atoms: O_30  and  C_31
REMARK   14  A    between atoms: C_32  and  O_33
REMARK   15  A    between atoms: O_33  and  C_34
REMARK                            x       y       z     vdW  Elec       q    Type
REMARK                         _______ _______ _______ _____ _____    ______ ____
ROOT
ATOM      1  C   UNL     1       5.061   6.905  17.073  0.00  0.00    +0.000 C 
ATOM      2  O   UNL     1       6.105   7.372  17.509  0.00  0.00    +0.000 OA
ENDROOT
BRANCH   1   3
ATOM      3  C   UNL     1       4.827   5.438  16.732  0.00  0.00    +0.000 C 
ATOM      4  C   UNL     1       4.970   5.191  15.224  0.00  0.00    +0.000 C 
ATOM      5  C   UNL     1       6.417   5.136  14.752  0.00  0.00    +0.000 C 
ATOM      6  C   UNL     1       7.226   4.172  15.607  0.00  0.00    +0.000 C 
ATOM      7  C   UNL     1       7.088   4.474  17.097  0.00  0.00    +0.000 C 
ATOM      8  N   UNL     1       5.646   4.454  17.510  0.00  0.00    +0.000 NA
BRANCH   8   9
ATOM      9  S   UNL     1       5.471   4.539  19.229  0.00  0.00    +0.000 S 
ATOM     10  O   UNL     1       5.286   3.177  19.683  0.00  0.00    +0.000 OA
ATOM     11  O   UNL     1       6.574   5.343  19.721  0.00  0.00    +0.000 OA
BRANCH   9  12
ATOM     12  C   UNL     1       3.922   5.442  19.441  0.00  0.00    +0.000 C 
BRANCH  12  13
ATOM     13  C   UNL     1       2.783   4.463  19.573  0.00  0.00    +0.000 A 
ATOM     14  C   UNL     1       2.274   4.118  20.835  0.00  0.00    +0.000 A 
ATOM     15  C   UNL     1       1.220   3.210  20.950  0.00  0.00    +0.000 A 
ATOM     16  C   UNL     1       0.661   2.638  19.806  0.00  0.00    +0.000 A 
ATOM     17  C   UNL     1       1.159   2.972  18.548  0.00  0.00    +0.000 A 
ATOM     18  C   UNL     1       2.214   3.881  18.432  0.00  0.00    +0.000 A 
ENDBRANCH  12  13
ENDBRANCH   9  12
ENDBRANCH   8   9
ENDBRANCH   1   3
BRANCH   1  19
ATOM     19  O   UNL     1       3.933   7.623  16.786  0.00  0.00    +0.000 OA
BRANCH  19  20
ATOM     20  C   UNL     1       2.996   7.741  17.865  0.00  0.00    +0.000 C 
BRANCH  20  21
ATOM     21  C   UNL     1       2.409   9.151  17.867  0.00  0.00    +0.000 C 
BRANCH  21  22
ATOM     22  C   UNL     1       0.888   9.119  17.838  0.00  0.00    +0.000 C 
BRANCH  22  25
ATOM     23  C   UNL     1      -1.783  11.545  19.073  0.00  0.00    +0.000 A 
ATOM     24  C   UNL     1      -1.081  10.630  18.267  0.00  0.00    +0.000 A 
ATOM     25  C   UNL     1       0.240  10.286  18.543  0.00  0.00    +0.000 A 
ATOM     26  C   UNL     1       0.893  10.969  19.568  0.00  0.00    +0.000 A 
ATOM     27  C   UNL     1       0.247  11.963  20.325  0.00  0.00    +0.000 A 
ATOM     28  C   UNL     1      -1.112  12.266  20.083  0.00  0.00    +0.000 A 
BRANCH  23  30
ATOM     29  C   UNL     1      -3.619  11.233  17.618  0.00  0.00    +0.000 C 
ATOM     30  O   UNL     1      -3.133  11.723  18.873  0.00  0.00    +0.000 OA
ENDBRANCH  23  30
BRANCH  27  31
ATOM     31  O   UNL     1       1.090  12.488  21.274  0.00  0.00    +0.000 OA
ATOM     32  C   UNL     1       1.888  13.619  20.962  0.00  0.00    +0.000 C 
ENDBRANCH  27  31
BRANCH  28  33
ATOM     33  O   UNL     1      -1.648  13.246  20.872  0.00  0.00    +0.000 OA
ATOM     34  C   UNL     1      -2.342  12.948  22.069  0.00  0.00    +0.000 C 
ENDBRANCH  28  33
ENDBRANCH  22  25
ENDBRANCH  21  22
ENDBRANCH  20  21
ENDBRANCH  19  20
ENDBRANCH   1  19
TORSDOF 12
ENDMDL
MODEL 7
REMARK VINA RESULT:      -7.7      1.308      2.758
REMARK  Name = 
REMARK  15 active torsions:
REMARK  status: ('A' for Active; 'I' for Inactive)
REMARK    1  A    between atoms: C_1  and  O_2
REMARK    2  A    between atoms: O_2  and  C_3
REMARK    3  A    between atoms: C_5  and  C_6
REMARK    4  A    between atoms: C_6  and  C_7
REMARK    5  A    between atoms: C_7  and  C_8
REMARK    6  A    between atoms: C_8  and  O_9
REMARK    7  A    between atoms: O_9  and  C_10
REMARK    8  A    between atoms: C_10  and  C_12
REMARK    9  A    between atoms: N_17  and  S_18
REMARK   10  A    between atoms: S_18  and  C_21
REMARK   11  A    between atoms: C_21  and  C_22
REMARK   12  A    between atoms: C_29  and  O_30
REMARK   13  A    between atoms: O_30  and  C_31
REMARK   14  A    between atoms: C_32  and  O_33
REMARK   15  A    between atoms: O_33  and  C_34
REMARK                            x       y       z     vdW  Elec       q    Type
REMARK                         _______ _______ _______ _____ _____    ______ ____
ROOT
ATOM      1  C   UNL     1       5.514   7.178  17.214  0.00  0.00    +0.000 C 
ATOM      2  O   UNL     1       6.697   7.487  17.171  0.00  0.00    +0.000 OA
ENDROOT
BRANCH   1   3
ATOM      3  C   UNL     1       4.942   5.823  16.813  0.00  0.00    +0.000 C 
ATOM      4  C   UNL     1       5.029   5.614  15.295  0.00  0.00    +0.000 C 
ATOM      5  C   UNL     1       6.424   5.241  14.811  0.00  0.00    +0.000 C 
ATOM      6  C   UNL     1       6.981   4.078  15.619  0.00  0.00    +0.000 C 
ATOM      7  C   UNL     1       6.911   4.339  17.122  0.00  0.00    +0.000 C 
ATOM      8  N   UNL     1       5.504   4.641  17.544  0.00  0.00    +0.000 NA
BRANCH   8   9
ATOM      9  S   UNL     1       5.347   4.692  19.265  0.00  0.00    +0.000 S 
ATOM     10  O   UNL     1       6.676   4.939  19.783  0.00  0.00    +0.000 OA
ATOM     11  O   UNL     1       4.255   5.601  19.558  0.00  0.00    +0.000 OA
BRANCH   9  12
ATOM     12  C   UNL     1       4.861   3.005  19.684  0.00  0.00    +0.000 C 
BRANCH  12  13
ATOM     13  C   UNL     1       3.357   2.906  19.712  0.00  0.00    +0.000 A 
ATOM     14  C   UNL     1       2.626   2.734  18.525  0.00  0.00    +0.000 A 
ATOM     15  C   UNL     1       1.234   2.644  18.557  0.00  0.00    +0.000 A 
ATOM     16  C   UNL     1       0.555   2.724  19.775  0.00  0.00    +0.000 A 
ATOM     17  C   UNL     1       1.270   2.896  20.959  0.00  0.00    +0.000 A 
ATOM     18  C   UNL     1       2.664   2.986  20.927  0.00  0.00    +0.000 A 
ENDBRANCH  12  13
ENDBRANCH   9  12
ENDBRANCH   8   9
ENDBRANCH   1   3
BRANCH   1  19
ATOM     19  O   UNL     1       4.495   8.003  17.602  0.00  0.00    +0.000 OA
BRANCH  19  20
ATOM     20  C   UNL     1       3.185   7.422  17.546  0.00  0.00    +0.000 C 
BRANCH  20  21
ATOM     21  C   UNL     1       2.238   8.236  18.425  0.00  0.00    +0.000 C 
BRANCH  21  22
ATOM     22  C   UNL     1       1.457   9.253  17.605  0.00  0.00    +0.000 C 
BRANCH  22  25
ATOM     23  C   UNL     1       0.228  11.940  20.017  0.00  0.00    +0.000 A 
ATOM     24  C   UNL     1       1.033  10.958  19.410  0.00  0.00    +0.000 A 
ATOM     25  C   UNL     1       0.527  10.112  18.426  0.00  0.00    +0.000 A 
ATOM     26  C   UNL     1      -0.838  10.178  18.146  0.00  0.00    +0.000 A 
ATOM     27  C   UNL     1      -1.689  11.079  18.812  0.00  0.00    +0.000 A 
ATOM     28  C   UNL     1      -1.160  11.979  19.765  0.00  0.00    +0.000 A 
BRANCH  23  30
ATOM     29  C   UNL     1       2.181  13.154  20.559  0.00  0.00    +0.000 C 
ATOM     30  O   UNL     1       0.809  12.867  20.852  0.00  0.00    +0.000 OA
ENDBRANCH  23  30
BRANCH  27  31
ATOM     31  O   UNL     1      -2.982  10.960  18.365  0.00  0.00    +0.000 OA
ATOM     32  C   UNL     1      -3.286  11.218  17.004  0.00  0.00    +0.000 C 
ENDBRANCH  27  31
BRANCH  28  33
ATOM     33  O   UNL     1      -2.067  12.815  20.354  0.00  0.00    +0.000 OA
ATOM     34  C   UNL     1      -2.621  12.541  21.627  0.00  0.00    +0.000 C 
ENDBRANCH  28  33
ENDBRANCH  22  25
ENDBRANCH  21  22
ENDBRANCH  20  21
ENDBRANCH  19  20
ENDBRANCH   1  19
TORSDOF 12
ENDMDL
MODEL 8
REMARK VINA RESULT:      -7.7      5.696      8.426
REMARK  Name = 
REMARK  15 active torsions:
REMARK  status: ('A' for Active; 'I' for Inactive)
REMARK    1  A    between atoms: C_1  and  O_2
REMARK    2  A    between atoms: O_2  and  C_3
REMARK    3  A    between atoms: C_5  and  C_6
REMARK    4  A    between atoms: C_6  and  C_7
REMARK    5  A    between atoms: C_7  and  C_8
REMARK    6  A    between atoms: C_8  and  O_9
REMARK    7  A    between atoms: O_9  and  C_10
REMARK    8  A    between atoms: C_10  and  C_12
REMARK    9  A    between atoms: N_17  and  S_18
REMARK   10  A    between atoms: S_18  and  C_21
REMARK   11  A    between atoms: C_21  and  C_22
REMARK   12  A    between atoms: C_29  and  O_30
REMARK   13  A    between atoms: O_30  and  C_31
REMARK   14  A    between atoms: C_32  and  O_33
REMARK   15  A    between atoms: O_33  and  C_34
REMARK                            x       y       z     vdW  Elec       q    Type
REMARK                         _______ _______ _______ _____ _____    ______ ____
ROOT
ATOM      1  C   UNL     1       6.919   6.686  17.198  0.00  0.00    +0.000 C 
ATOM      2  O   UNL     1       7.856   5.901  17.250  0.00  0.00    +0.000 OA
ENDROOT
BRANCH   1   3
ATOM      3  C   UNL     1       5.467   6.308  16.930  0.00  0.00    +0.000 C 
ATOM      4  C   UNL     1       5.133   6.418  15.436  0.00  0.00    +0.000 C 
ATOM      5  C   UNL     1       5.656   5.251  14.609  0.00  0.00    +0.000 C 
ATOM      6  C   UNL     1       5.245   3.924  15.230  0.00  0.00    +0.000 C 
ATOM      7  C   UNL     1       5.627   3.838  16.705  0.00  0.00    +0.000 C 
ATOM      8  N   UNL     1       5.032   4.981  17.475  0.00  0.00    +0.000 NA
BRANCH   8   9
ATOM      9  S   UNL     1       5.233   4.778  19.180  0.00  0.00    +0.000 S 
ATOM     10  O   UNL     1       5.226   3.350  19.419  0.00  0.00    +0.000 OA
ATOM     11  O   UNL     1       6.371   5.590  19.566  0.00  0.00    +0.000 OA
BRANCH   9  12
ATOM     12  C   UNL     1       3.721   5.492  19.860  0.00  0.00    +0.000 C 
BRANCH  12  13
ATOM     13  C   UNL     1       2.585   4.514  19.700  0.00  0.00    +0.000 A 
ATOM     14  C   UNL     1       2.075   4.206  18.428  0.00  0.00    +0.000 A 
ATOM     15  C   UNL     1       1.023   3.300  18.286  0.00  0.00    +0.000 A 
ATOM     16  C   UNL     1       0.468   2.691  19.413  0.00  0.00    +0.000 A 
ATOM     17  C   UNL     1       0.964   2.990  20.681  0.00  0.00    +0.000 A 
ATOM     18  C   UNL     1       2.018   3.896  20.823  0.00  0.00    +0.000 A 
ENDBRANCH  12  13
ENDBRANCH   9  12
ENDBRANCH   8   9
ENDBRANCH   1   3
BRANCH   1  19
ATOM     19  O   UNL     1       7.016   8.042  17.339  0.00  0.00    +0.000 OA
BRANCH  19  20
ATOM     20  C   UNL     1       8.336   8.534  17.605  0.00  0.00    +0.000 C 
BRANCH  20  21
ATOM     21  C   UNL     1       8.236   9.886  18.309  0.00  0.00    +0.000 C 
BRANCH  21  22
ATOM     22  C   UNL     1       9.332  10.051  19.352  0.00  0.00    +0.000 C 
BRANCH  22  25
ATOM     23  C   UNL     1       9.606  13.474  21.011  0.00  0.00    +0.000 A 
ATOM     24  C   UNL     1       9.099  12.228  20.597  0.00  0.00    +0.000 A 
ATOM     25  C   UNL     1       9.727  11.487  19.599  0.00  0.00    +0.000 A 
ATOM     26  C   UNL     1      10.802  12.070  18.929  0.00  0.00    +0.000 A 
ATOM     27  C   UNL     1      11.266  13.358  19.252  0.00  0.00    +0.000 A 
ATOM     28  C   UNL     1      10.667  14.082  20.308  0.00  0.00    +0.000 A 
BRANCH  23  30
ATOM     29  C   UNL     1       7.950  14.947  21.833  0.00  0.00    +0.000 C 
ATOM     30  O   UNL     1       9.062  14.089  22.116  0.00  0.00    +0.000 OA
ENDBRANCH  23  30
BRANCH  27  31
ATOM     31  O   UNL     1      12.332  13.713  18.461  0.00  0.00    +0.000 OA
ATOM     32  C   UNL     1      12.107  14.157  17.132  0.00  0.00    +0.000 C 
ENDBRANCH  27  31
BRANCH  28  33
ATOM     33  O   UNL     1      11.190  15.323  20.544  0.00  0.00    +0.000 OA
ATOM     34  C   UNL     1      10.714  16.476  19.878  0.00  0.00    +0.000 C 
ENDBRANCH  28  33
ENDBRANCH  22  25
ENDBRANCH  21  22
ENDBRANCH  20  21
ENDBRANCH  19  20
ENDBRANCH   1  19
TORSDOF 12
ENDMDL
MODEL 9
REMARK VINA RESULT:      -7.7      5.234      7.258
REMARK  Name = 
REMARK  15 active torsions:
REMARK  status: ('A' for Active; 'I' for Inactive)
REMARK    1  A    between atoms: C_1  and  O_2
REMARK    2  A    between atoms: O_2  and  C_3
REMARK    3  A    between atoms: C_5  and  C_6
REMARK    4  A    between atoms: C_6  and  C_7
REMARK    5  A    between atoms: C_7  and  C_8
REMARK    6  A    between atoms: C_8  and  O_9
REMARK    7  A    between atoms: O_9  and  C_10
REMARK    8  A    between atoms: C_10  and  C_12
REMARK    9  A    between atoms: N_17  and  S_18
REMARK   10  A    between atoms: S_18  and  C_21
REMARK   11  A    between atoms: C_21  and  C_22
REMARK   12  A    between atoms: C_29  and  O_30
REMARK   13  A    between atoms: O_30  and  C_31
REMARK   14  A    between atoms: C_32  and  O_33
REMARK   15  A    between atoms: O_33  and  C_34
REMARK                            x       y       z     vdW  Elec       q    Type
REMARK                         _______ _______ _______ _____ _____    ______ ____
ROOT
ATOM      1  C   UNL     1       7.001   6.659  17.558  0.00  0.00    +0.000 C 
ATOM      2  O   UNL     1       7.706   5.790  18.055  0.00  0.00    +0.000 OA
ENDROOT
BRANCH   1   3
ATOM      3  C   UNL     1       5.979   6.436  16.449  0.00  0.00    +0.000 C 
ATOM      4  C   UNL     1       6.649   5.882  15.183  0.00  0.00    +0.000 C 
ATOM      5  C   UNL     1       6.976   4.398  15.268  0.00  0.00    +0.000 C 
ATOM      6  C   UNL     1       5.757   3.602  15.710  0.00  0.00    +0.000 C 
ATOM      7  C   UNL     1       5.142   4.160  16.992  0.00  0.00    +0.000 C 
ATOM      8  N   UNL     1       4.787   5.608  16.824  0.00  0.00    +0.000 NA
BRANCH   8   9
ATOM      9  S   UNL     1       3.864   6.201  18.160  0.00  0.00    +0.000 S 
ATOM     10  O   UNL     1       4.445   5.607  19.346  0.00  0.00    +0.000 OA
ATOM     11  O   UNL     1       3.792   7.642  18.011  0.00  0.00    +0.000 OA
BRANCH   9  12
ATOM     12  C   UNL     1       2.232   5.481  17.885  0.00  0.00    +0.000 C 
BRANCH  12  13
ATOM     13  C   UNL     1       1.981   4.396  18.902  0.00  0.00    +0.000 A 
ATOM     14  C   UNL     1       2.181   3.045  18.576  0.00  0.00    +0.000 A 
ATOM     15  C   UNL     1       1.946   2.046  19.521  0.00  0.00    +0.000 A 
ATOM     16  C   UNL     1       1.510   2.384  20.804  0.00  0.00    +0.000 A 
ATOM     17  C   UNL     1       1.305   3.722  21.138  0.00  0.00    +0.000 A 
ATOM     18  C   UNL     1       1.541   4.723  20.192  0.00  0.00    +0.000 A 
ENDBRANCH  12  13
ENDBRANCH   9  12
ENDBRANCH   8   9
ENDBRANCH   1   3
BRANCH   1  19
ATOM     19  O   UNL     1       7.029   7.985  17.888  0.00  0.00    +0.000 OA
BRANCH  19  20
ATOM     20  C   UNL     1       8.226   8.681  17.513  0.00  0.00    +0.000 C 
BRANCH  20  21
ATOM     21  C   UNL     1       8.674   9.569  18.672  0.00  0.00    +0.000 C 
BRANCH  21  22
ATOM     22  C   UNL     1       9.622  10.662  18.200  0.00  0.00    +0.000 C 
BRANCH  22  25
ATOM     23  C   UNL     1       8.017  14.115  18.405  0.00  0.00    +0.000 A 
ATOM     24  C   UNL     1       8.573  12.930  17.888  0.00  0.00    +0.000 A 
ATOM     25  C   UNL     1       9.264  12.038  18.705  0.00  0.00    +0.000 A 
ATOM     26  C   UNL     1       9.502  12.412  20.027  0.00  0.00    +0.000 A 
ATOM     27  C   UNL     1       9.046  13.638  20.544  0.00  0.00    +0.000 A 
ATOM     28  C   UNL     1       8.291  14.513  19.730  0.00  0.00    +0.000 A 
BRANCH  23  30
ATOM     29  C   UNL     1       5.795  14.633  17.789  0.00  0.00    +0.000 C 
ATOM     30  O   UNL     1       7.194  14.878  17.607  0.00  0.00    +0.000 OA
ENDBRANCH  23  30
BRANCH  27  31
ATOM     31  O   UNL     1       9.398  13.779  21.865  0.00  0.00    +0.000 OA
ATOM     32  C   UNL     1       8.410  13.653  22.876  0.00  0.00    +0.000 C 
ENDBRANCH  27  31
BRANCH  28  33
ATOM     33  O   UNL     1       7.894  15.677  20.326  0.00  0.00    +0.000 OA
ATOM     34  C   UNL     1       8.632  16.878  20.190  0.00  0.00    +0.000 C 
ENDBRANCH  28  33
ENDBRANCH  22  25
ENDBRANCH  21  22
ENDBRANCH  20  21
ENDBRANCH  19  20
ENDBRANCH   1  19
TORSDOF 12
ENDMDL
