MODEL 1
REMARK VINA RESULT:      -7.3      0.000      0.000
REMARK  Name = 
REMARK  6 active torsions:
REMARK  status: ('A' for Active; 'I' for Inactive)
REMARK    1  A    between atoms: O_1  and  C_2
REMARK    2  A    between atoms: C_2  and  C_3
REMARK    3  A    between atoms: C_3  and  N_4
REMARK    4  A    between atoms: N_4  and  C_5
REMARK    5  A    between atoms: C_5  and  C_6
REMARK    6  A    between atoms: C_9  and  C_10
REMARK                            x       y       z     vdW  Elec       q    Type
REMARK                         _______ _______ _______ _____ _____    ______ ____
ROOT
ATOM      1  C   UNL     1       0.720   9.869  18.966  0.00  0.00    +0.000 C 
ATOM      2  C   UNL     1       1.756   9.335  17.964  0.00  0.00    +0.000 C 
ATOM      3  C   UNL     1       1.947   7.827  18.121  0.00  0.00    +0.000 C 
ATOM      4  C   UNL     1       2.314   7.404  19.559  0.00  0.00    +0.000 C 
ATOM      5  C   UNL     1       1.371   8.044  20.592  0.00  0.00    +0.000 C 
ATOM      6  C   UNL     1       1.190   9.543  20.391  0.00  0.00    +0.000 C 
ENDROOT
BRANCH   4   7
ATOM      7  C   UNL     1       2.283   5.915  19.721  0.00  0.00    +0.000 A 
ATOM      8  N   UNL     1       1.543   5.340  20.744  0.00  0.00    +0.000 NA
ATOM      9  N   UNL     1       1.726   4.022  20.732  0.00  0.00    +0.000 NA
ATOM     10  N   UNL     1       2.574   3.761  19.727  0.00  0.00    +0.000 N 
ATOM     11  C   UNL     1       3.040   2.485  19.404  0.00  0.00    +0.000 A 
ATOM     12  N   UNL     1       3.882   2.279  18.416  0.00  0.00    +0.000 NA
ATOM     13  C   UNL     1       4.261   3.416  17.755  0.00  0.00    +0.000 A 
ATOM     14  N   UNL     1       5.130   3.416  16.700  0.00  0.00    +0.000 N 
ATOM     15  C   UNL     1       5.323   4.712  16.271  0.00  0.00    +0.000 A 
ATOM     16  C   UNL     1       4.560   5.558  17.060  0.00  0.00    +0.000 A 
ATOM     17  C   UNL     1       3.895   4.734  17.974  0.00  0.00    +0.000 A 
ATOM     18  C   UNL     1       2.946   4.906  19.074  0.00  0.00    +0.000 A 
ATOM     19  H   UNL     1       5.556   2.586  16.313  0.00  0.00    +0.000 HD
ENDBRANCH   4   7
BRANCH   1  20
ATOM     20  C   UNL     1       0.482  11.384  18.849  0.00  0.00    +0.000 C 
BRANCH  20  21
ATOM     21  N   UNL     1      -0.919  11.748  19.065  0.00  0.00    +0.000 NA
ATOM     22  H   UNL     1      -1.096  11.803  20.071  0.00  0.00    +0.000 HD
BRANCH  21  23
ATOM     23  C   UNL     1      -1.845  10.731  18.542  0.00  0.00    +0.000 C 
BRANCH  23  24
ATOM     24  C   UNL     1      -2.796  11.254  17.454  0.00  0.00    +0.000 C 
BRANCH  24  25
ATOM     25  O   UNL     1      -2.042  11.813  16.379  0.00  0.00    +0.000 OA
ATOM     26  H   UNL     1      -2.634  11.849  15.609  0.00  0.00    +0.000 HD
ENDBRANCH  24  25
ENDBRANCH  23  24
ENDBRANCH  21  23
ENDBRANCH  20  21
ENDBRANCH   1  20
TORSDOF 6
ENDMDL
MODEL 2
REMARK VINA RESULT:      -7.3      1.231      1.348
REMARK  Name = 
REMARK  6 active torsions:
REMARK  status: ('A' for Active; 'I' for Inactive)
REMARK    1  A    between atoms: O_1  and  C_2
REMARK    2  A    between atoms: C_2  and  C_3
REMARK    3  A    between atoms: C_3  and  N_4
REMARK    4  A    between atoms: N_4  and  C_5
REMARK    5  A    between atoms: C_5  and  C_6
REMARK    6  A    between atoms: C_9  and  C_10
REMARK                            x       y       z     vdW  Elec       q    Type
REMARK                         _______ _______ _______ _____ _____    ______ ____
ROOT
ATOM      1  C   UNL     1       0.914   9.574  19.443  0.00  0.00    +0.000 C 
ATOM      2  C   UNL     1       1.978   9.118  18.432  0.00  0.00    +0.000 C 
ATOM      3  C   UNL     1       2.059   7.594  18.368  0.00  0.00    +0.000 C 
ATOM      4  C   UNL     1       2.299   6.937  19.743  0.00  0.00    +0.000 C 
ATOM      5  C   UNL     1       1.333   7.486  20.806  0.00  0.00    +0.000 C 
ATOM      6  C   UNL     1       1.264   9.007  20.826  0.00  0.00    +0.000 C 
ENDROOT
BRANCH   4   7
ATOM      7  C   UNL     1       2.160   5.446  19.674  0.00  0.00    +0.000 A 
ATOM      8  N   UNL     1       1.283   4.788  20.524  0.00  0.00    +0.000 NA
ATOM      9  N   UNL     1       1.385   3.476  20.330  0.00  0.00    +0.000 NA
ATOM     10  N   UNL     1       2.315   3.298  19.382  0.00  0.00    +0.000 N 
ATOM     11  C   UNL     1       2.733   2.050  18.915  0.00  0.00    +0.000 A 
ATOM     12  N   UNL     1       3.660   1.925  17.992  0.00  0.00    +0.000 NA
ATOM     13  C   UNL     1       4.176   3.114  17.549  0.00  0.00    +0.000 A 
ATOM     14  N   UNL     1       5.149   3.199  16.594  0.00  0.00    +0.000 N 
ATOM     15  C   UNL     1       5.465   4.525  16.385  0.00  0.00    +0.000 A 
ATOM     16  C   UNL     1       4.677   5.304  17.217  0.00  0.00    +0.000 A 
ATOM     17  C   UNL     1       3.870   4.411  17.930  0.00  0.00    +0.000 A 
ATOM     18  C   UNL     1       2.823   4.494  18.948  0.00  0.00    +0.000 A 
ATOM     19  H   UNL     1       5.561   2.404  16.127  0.00  0.00    +0.000 HD
ENDBRANCH   4   7
BRANCH   1  20
ATOM     20  C   UNL     1       0.784  11.104  19.545  0.00  0.00    +0.000 C 
BRANCH  20  21
ATOM     21  N   UNL     1       1.394  11.794  18.408  0.00  0.00    +0.000 NA
ATOM     22  H   UNL     1       2.412  11.708  18.476  0.00  0.00    +0.000 HD
BRANCH  21  23
ATOM     23  C   UNL     1       1.105  13.237  18.411  0.00  0.00    +0.000 C 
BRANCH  23  24
ATOM     24  C   UNL     1      -0.394  13.571  18.453  0.00  0.00    +0.000 C 
BRANCH  24  25
ATOM     25  O   UNL     1      -1.073  12.895  17.395  0.00  0.00    +0.000 OA
ATOM     26  H   UNL     1      -1.882  13.400  17.211  0.00  0.00    +0.000 HD
ENDBRANCH  24  25
ENDBRANCH  23  24
ENDBRANCH  21  23
ENDBRANCH  20  21
ENDBRANCH   1  20
TORSDOF 6
ENDMDL
MODEL 3
REMARK VINA RESULT:      -7.2      1.856      2.273
REMARK  Name = 
REMARK  6 active torsions:
REMARK  status: ('A' for Active; 'I' for Inactive)
REMARK    1  A    between atoms: O_1  and  C_2
REMARK    2  A    between atoms: C_2  and  C_3
REMARK    3  A    between atoms: C_3  and  N_4
REMARK    4  A    between atoms: N_4  and  C_5
REMARK    5  A    between atoms: C_5  and  C_6
REMARK    6  A    between atoms: C_9  and  C_10
REMARK                            x       y       z     vdW  Elec       q    Type
REMARK                         _______ _______ _______ _____ _____    ______ ____
ROOT
ATOM      1  C   UNL     1       0.505   9.902  18.846  0.00  0.00    +0.000 C 
ATOM      2  C   UNL     1       1.664   9.416  17.962  0.00  0.00    +0.000 C 
ATOM      3  C   UNL     1       1.983   7.946  18.231  0.00  0.00    +0.000 C 
ATOM      4  C   UNL     1       2.270   7.646  19.717  0.00  0.00    +0.000 C 
ATOM      5  C   UNL     1       1.191   8.248  20.632  0.00  0.00    +0.000 C 
ATOM      6  C   UNL     1       0.886   9.707  20.320  0.00  0.00    +0.000 C 
ENDROOT
BRANCH   4   7
ATOM      7  C   UNL     1       2.366   6.173  19.974  0.00  0.00    +0.000 A 
ATOM      8  N   UNL     1       1.400   5.533  20.737  0.00  0.00    +0.000 NA
ATOM      9  N   UNL     1       1.734   4.254  20.887  0.00  0.00    +0.000 NA
ATOM     10  N   UNL     1       2.896   4.082  20.240  0.00  0.00    +0.000 N 
ATOM     11  C   UNL     1       3.594   2.873  20.188  0.00  0.00    +0.000 A 
ATOM     12  N   UNL     1       4.738   2.755  19.552  0.00  0.00    +0.000 NA
ATOM     13  C   UNL     1       5.177   3.913  18.968  0.00  0.00    +0.000 A 
ATOM     14  N   UNL     1       6.344   4.000  18.262  0.00  0.00    +0.000 N 
ATOM     15  C   UNL     1       6.512   5.296  17.822  0.00  0.00    +0.000 A 
ATOM     16  C   UNL     1       5.432   6.052  18.248  0.00  0.00    +0.000 A 
ATOM     17  C   UNL     1       4.602   5.173  18.952  0.00  0.00    +0.000 A 
ATOM     18  C   UNL     1       3.325   5.246  19.660  0.00  0.00    +0.000 A 
ATOM     19  H   UNL     1       6.972   3.226  18.101  0.00  0.00    +0.000 HD
ENDBRANCH   4   7
BRANCH   1  20
ATOM     20  C   UNL     1       0.135  11.377  18.612  0.00  0.00    +0.000 C 
BRANCH  20  21
ATOM     21  N   UNL     1       1.285  12.183  18.202  0.00  0.00    +0.000 NA
ATOM     22  H   UNL     1       2.142  11.732  18.534  0.00  0.00    +0.000 HD
BRANCH  21  23
ATOM     23  C   UNL     1       1.270  13.525  18.809  0.00  0.00    +0.000 C 
BRANCH  23  24
ATOM     24  C   UNL     1       2.620  14.254  18.742  0.00  0.00    +0.000 C 
BRANCH  24  25
ATOM     25  O   UNL     1       3.424  13.694  17.704  0.00  0.00    +0.000 OA
ATOM     26  H   UNL     1       2.814  13.344  17.033  0.00  0.00    +0.000 HD
ENDBRANCH  24  25
ENDBRANCH  23  24
ENDBRANCH  21  23
ENDBRANCH  20  21
ENDBRANCH   1  20
TORSDOF 6
ENDMDL
MODEL 4
REMARK VINA RESULT:      -7.1      1.655      2.810
REMARK  Name = 
REMARK  6 active torsions:
REMARK  status: ('A' for Active; 'I' for Inactive)
REMARK    1  A    between atoms: O_1  and  C_2
REMARK    2  A    between atoms: C_2  and  C_3
REMARK    3  A    between atoms: C_3  and  N_4
REMARK    4  A    between atoms: N_4  and  C_5
REMARK    5  A    between atoms: C_5  and  C_6
REMARK    6  A    between atoms: C_9  and  C_10
REMARK                            x       y       z     vdW  Elec       q    Type
REMARK                         _______ _______ _______ _____ _____    ______ ____
ROOT
ATOM      1  C   UNL     1       1.134  10.013  20.035  0.00  0.00    +0.000 C 
ATOM      2  C   UNL     1       0.957   8.630  20.683  0.00  0.00    +0.000 C 
ATOM      3  C   UNL     1       1.948   7.621  20.104  0.00  0.00    +0.000 C 
ATOM      4  C   UNL     1       1.880   7.512  18.567  0.00  0.00    +0.000 C 
ATOM      5  C   UNL     1       1.913   8.898  17.903  0.00  0.00    +0.000 C 
ATOM      6  C   UNL     1       0.928   9.883  18.519  0.00  0.00    +0.000 C 
ENDROOT
BRANCH   4   7
ATOM      7  C   UNL     1       3.001   6.680  18.024  0.00  0.00    +0.000 A 
ATOM      8  N   UNL     1       4.108   7.289  17.450  0.00  0.00    +0.000 NA
ATOM      9  N   UNL     1       4.929   6.354  16.978  0.00  0.00    +0.000 NA
ATOM     10  N   UNL     1       4.354   5.171  17.236  0.00  0.00    +0.000 N 
ATOM     11  C   UNL     1       4.895   3.938  16.867  0.00  0.00    +0.000 A 
ATOM     12  N   UNL     1       4.287   2.802  17.130  0.00  0.00    +0.000 NA
ATOM     13  C   UNL     1       3.088   2.944  17.776  0.00  0.00    +0.000 A 
ATOM     14  N   UNL     1       2.302   1.886  18.137  0.00  0.00    +0.000 N 
ATOM     15  C   UNL     1       1.159   2.359  18.748  0.00  0.00    +0.000 A 
ATOM     16  C   UNL     1       1.216   3.742  18.785  0.00  0.00    +0.000 A 
ATOM     17  C   UNL     1       2.430   4.093  18.185  0.00  0.00    +0.000 A 
ATOM     18  C   UNL     1       3.156   5.326  17.882  0.00  0.00    +0.000 A 
ATOM     19  H   UNL     1       2.536   0.918  17.971  0.00  0.00    +0.000 HD
ENDBRANCH   4   7
BRANCH   1  20
ATOM     20  C   UNL     1       0.165  11.073  20.585  0.00  0.00    +0.000 C 
BRANCH  20  21
ATOM     21  N   UNL     1      -0.205  12.069  19.578  0.00  0.00    +0.000 NA
ATOM     22  H   UNL     1       0.215  12.967  19.831  0.00  0.00    +0.000 HD
BRANCH  21  23
ATOM     23  C   UNL     1      -1.658  12.297  19.529  0.00  0.00    +0.000 C 
BRANCH  23  24
ATOM     24  C   UNL     1      -2.340  11.704  18.286  0.00  0.00    +0.000 C 
BRANCH  24  25
ATOM     25  O   UNL     1      -1.734  12.225  17.104  0.00  0.00    +0.000 OA
ATOM     26  H   UNL     1      -2.356  12.067  16.375  0.00  0.00    +0.000 HD
ENDBRANCH  24  25
ENDBRANCH  23  24
ENDBRANCH  21  23
ENDBRANCH  20  21
ENDBRANCH   1  20
TORSDOF 6
ENDMDL
MODEL 5
REMARK VINA RESULT:      -7.0      1.501      1.906
REMARK  Name = 
REMARK  6 active torsions:
REMARK  status: ('A' for Active; 'I' for Inactive)
REMARK    1  A    between atoms: O_1  and  C_2
REMARK    2  A    between atoms: C_2  and  C_3
REMARK    3  A    between atoms: C_3  and  N_4
REMARK    4  A    between atoms: N_4  and  C_5
REMARK    5  A    between atoms: C_5  and  C_6
REMARK    6  A    between atoms: C_9  and  C_10
REMARK                            x       y       z     vdW  Elec       q    Type
REMARK                         _______ _______ _______ _____ _____    ______ ____
ROOT
ATOM      1  C   UNL     1       0.354   9.916  19.429  0.00  0.00    +0.000 C 
ATOM      2  C   UNL     1       1.405   9.636  18.342  0.00  0.00    +0.000 C 
ATOM      3  C   UNL     1       1.765   8.151  18.295  0.00  0.00    +0.000 C 
ATOM      4  C   UNL     1       2.229   7.592  19.656  0.00  0.00    +0.000 C 
ATOM      5  C   UNL     1       1.261   7.983  20.785  0.00  0.00    +0.000 C 
ATOM      6  C   UNL     1       0.909   9.465  20.787  0.00  0.00    +0.000 C 
ENDROOT
BRANCH   4   7
ATOM      7  C   UNL     1       2.366   6.100  19.621  0.00  0.00    +0.000 A 
ATOM      8  N   UNL     1       1.749   5.320  20.588  0.00  0.00    +0.000 NA
ATOM      9  N   UNL     1       2.071   4.044  20.395  0.00  0.00    +0.000 NA
ATOM     10  N   UNL     1       2.886   4.010  19.331  0.00  0.00    +0.000 N 
ATOM     11  C   UNL     1       3.468   2.846  18.824  0.00  0.00    +0.000 A 
ATOM     12  N   UNL     1       4.273   2.864  17.785  0.00  0.00    +0.000 NA
ATOM     13  C   UNL     1       4.492   4.112  17.265  0.00  0.00    +0.000 A 
ATOM     14  N   UNL     1       5.297   4.343  16.186  0.00  0.00    +0.000 N 
ATOM     15  C   UNL     1       5.326   5.697  15.924  0.00  0.00    +0.000 A 
ATOM     16  C   UNL     1       4.521   6.344  16.847  0.00  0.00    +0.000 A 
ATOM     17  C   UNL     1       3.998   5.341  17.671  0.00  0.00    +0.000 A 
ATOM     18  C   UNL     1       3.097   5.263  18.821  0.00  0.00    +0.000 A 
ATOM     19  H   UNL     1       5.788   3.623  15.676  0.00  0.00    +0.000 HD
ENDBRANCH   4   7
BRANCH   1  20
ATOM     20  C   UNL     1      -0.052  11.397  19.517  0.00  0.00    +0.000 C 
BRANCH  20  21
ATOM     21  N   UNL     1       0.347  12.158  18.333  0.00  0.00    +0.000 NA
ATOM     22  H   UNL     1       1.089  11.649  17.846  0.00  0.00    +0.000 HD
BRANCH  21  23
ATOM     23  C   UNL     1       0.913  13.472  18.680  0.00  0.00    +0.000 C 
BRANCH  23  24
ATOM     24  C   UNL     1       2.364  13.668  18.213  0.00  0.00    +0.000 C 
BRANCH  24  25
ATOM     25  O   UNL     1       2.751  12.588  17.364  0.00  0.00    +0.000 OA
ATOM     26  H   UNL     1       2.752  11.785  17.911  0.00  0.00    +0.000 HD
ENDBRANCH  24  25
ENDBRANCH  23  24
ENDBRANCH  21  23
ENDBRANCH  20  21
ENDBRANCH   1  20
TORSDOF 6
ENDMDL
MODEL 6
REMARK VINA RESULT:      -7.0      1.897      2.102
REMARK  Name = 
REMARK  6 active torsions:
REMARK  status: ('A' for Active; 'I' for Inactive)
REMARK    1  A    between atoms: O_1  and  C_2
REMARK    2  A    between atoms: C_2  and  C_3
REMARK    3  A    between atoms: C_3  and  N_4
REMARK    4  A    between atoms: N_4  and  C_5
REMARK    5  A    between atoms: C_5  and  C_6
REMARK    6  A    between atoms: C_9  and  C_10
REMARK                            x       y       z     vdW  Elec       q    Type
REMARK                         _______ _______ _______ _____ _____    ______ ____
ROOT
ATOM      1  C   UNL     1       0.877   9.690  19.378  0.00  0.00    +0.000 C 
ATOM      2  C   UNL     1       1.921   9.252  18.339  0.00  0.00    +0.000 C 
ATOM      3  C   UNL     1       2.028   7.728  18.276  0.00  0.00    +0.000 C 
ATOM      4  C   UNL     1       2.320   7.079  19.645  0.00  0.00    +0.000 C 
ATOM      5  C   UNL     1       1.373   7.613  20.733  0.00  0.00    +0.000 C 
ATOM      6  C   UNL     1       1.277   9.132  20.752  0.00  0.00    +0.000 C 
ENDROOT
BRANCH   4   7
ATOM      7  C   UNL     1       2.206   5.587  19.583  0.00  0.00    +0.000 A 
ATOM      8  N   UNL     1       1.351   4.916  20.445  0.00  0.00    +0.000 NA
ATOM      9  N   UNL     1       1.475   3.605  20.254  0.00  0.00    +0.000 NA
ATOM     10  N   UNL     1       2.397   3.441  19.295  0.00  0.00    +0.000 N 
ATOM     11  C   UNL     1       2.832   2.199  18.828  0.00  0.00    +0.000 A 
ATOM     12  N   UNL     1       3.749   2.087  17.894  0.00  0.00    +0.000 NA
ATOM     13  C   UNL     1       4.238   3.283  17.441  0.00  0.00    +0.000 A 
ATOM     14  N   UNL     1       5.198   3.382  16.473  0.00  0.00    +0.000 N 
ATOM     15  C   UNL     1       5.487   4.713  16.257  0.00  0.00    +0.000 A 
ATOM     16  C   UNL     1       4.696   5.481  17.096  0.00  0.00    +0.000 A 
ATOM     17  C   UNL     1       3.914   4.576  17.821  0.00  0.00    +0.000 A 
ATOM     18  C   UNL     1       2.878   4.644  18.851  0.00  0.00    +0.000 A 
ATOM     19  H   UNL     1       5.619   2.593  16.004  0.00  0.00    +0.000 HD
ENDBRANCH   4   7
BRANCH   1  20
ATOM     20  C   UNL     1       0.722  11.217  19.481  0.00  0.00    +0.000 C 
BRANCH  20  21
ATOM     21  N   UNL     1      -0.509  11.609  20.169  0.00  0.00    +0.000 NA
ATOM     22  H   UNL     1      -0.975  12.339  19.624  0.00  0.00    +0.000 HD
BRANCH  21  23
ATOM     23  C   UNL     1      -0.245  12.193  21.494  0.00  0.00    +0.000 C 
BRANCH  23  24
ATOM     24  C   UNL     1      -1.109  11.603  22.618  0.00  0.00    +0.000 C 
BRANCH  24  25
ATOM     25  O   UNL     1      -0.344  10.669  23.379  0.00  0.00    +0.000 OA
ATOM     26  H   UNL     1       0.589  10.815  23.151  0.00  0.00    +0.000 HD
ENDBRANCH  24  25
ENDBRANCH  23  24
ENDBRANCH  21  23
ENDBRANCH  20  21
ENDBRANCH   1  20
TORSDOF 6
ENDMDL
MODEL 7
REMARK VINA RESULT:      -7.0      1.669      2.967
REMARK  Name = 
REMARK  6 active torsions:
REMARK  status: ('A' for Active; 'I' for Inactive)
REMARK    1  A    between atoms: O_1  and  C_2
REMARK    2  A    between atoms: C_2  and  C_3
REMARK    3  A    between atoms: C_3  and  N_4
REMARK    4  A    between atoms: N_4  and  C_5
REMARK    5  A    between atoms: C_5  and  C_6
REMARK    6  A    between atoms: C_9  and  C_10
REMARK                            x       y       z     vdW  Elec       q    Type
REMARK                         _______ _______ _______ _____ _____    ______ ____
ROOT
ATOM      1  C   UNL     1       1.042  10.383  19.449  0.00  0.00    +0.000 C 
ATOM      2  C   UNL     1       0.734   9.176  20.349  0.00  0.00    +0.000 C 
ATOM      3  C   UNL     1       1.778   8.075  20.170  0.00  0.00    +0.000 C 
ATOM      4  C   UNL     1       1.950   7.629  18.703  0.00  0.00    +0.000 C 
ATOM      5  C   UNL     1       2.119   8.835  17.764  0.00  0.00    +0.000 C 
ATOM      6  C   UNL     1       1.073   9.919  17.986  0.00  0.00    +0.000 C 
ENDROOT
BRANCH   4   7
ATOM      7  C   UNL     1       3.123   6.711  18.539  0.00  0.00    +0.000 A 
ATOM      8  N   UNL     1       4.131   7.020  17.638  0.00  0.00    +0.000 NA
ATOM      9  N   UNL     1       5.019   6.030  17.615  0.00  0.00    +0.000 NA
ATOM     10  N   UNL     1       4.583   5.101  18.478  0.00  0.00    +0.000 N 
ATOM     11  C   UNL     1       5.229   3.887  18.718  0.00  0.00    +0.000 A 
ATOM     12  N   UNL     1       4.755   3.000  19.565  0.00  0.00    +0.000 NA
ATOM     13  C   UNL     1       3.581   3.369  20.166  0.00  0.00    +0.000 A 
ATOM     14  N   UNL     1       2.928   2.587  21.076  0.00  0.00    +0.000 N 
ATOM     15  C   UNL     1       1.774   3.227  21.478  0.00  0.00    +0.000 A 
ATOM     16  C   UNL     1       1.690   4.443  20.819  0.00  0.00    +0.000 A 
ATOM     17  C   UNL     1       2.830   4.523  20.013  0.00  0.00    +0.000 A 
ATOM     18  C   UNL     1       3.409   5.482  19.072  0.00  0.00    +0.000 A 
ATOM     19  H   UNL     1       3.252   1.683  21.390  0.00  0.00    +0.000 HD
ENDBRANCH   4   7
BRANCH   1  20
ATOM     20  C   UNL     1       0.024  11.527  19.593  0.00  0.00    +0.000 C 
BRANCH  20  21
ATOM     21  N   UNL     1      -1.360  11.053  19.554  0.00  0.00    +0.000 NA
ATOM     22  H   UNL     1      -1.374  10.102  19.173  0.00  0.00    +0.000 HD
BRANCH  21  23
ATOM     23  C   UNL     1      -2.202  11.863  18.658  0.00  0.00    +0.000 C 
BRANCH  23  24
ATOM     24  C   UNL     1      -2.525  11.181  17.321  0.00  0.00    +0.000 C 
BRANCH  24  25
ATOM     25  O   UNL     1      -2.421   9.765  17.460  0.00  0.00    +0.000 OA
ATOM     26  H   UNL     1      -1.511   9.523  17.220  0.00  0.00    +0.000 HD
ENDBRANCH  24  25
ENDBRANCH  23  24
ENDBRANCH  21  23
ENDBRANCH  20  21
ENDBRANCH   1  20
TORSDOF 6
ENDMDL
MODEL 8
REMARK VINA RESULT:      -7.0      1.514      1.695
REMARK  Name = 
REMARK  6 active torsions:
REMARK  status: ('A' for Active; 'I' for Inactive)
REMARK    1  A    between atoms: O_1  and  C_2
REMARK    2  A    between atoms: C_2  and  C_3
REMARK    3  A    between atoms: C_3  and  N_4
REMARK    4  A    between atoms: N_4  and  C_5
REMARK    5  A    between atoms: C_5  and  C_6
REMARK    6  A    between atoms: C_9  and  C_10
REMARK                            x       y       z     vdW  Elec       q    Type
REMARK                         _______ _______ _______ _____ _____    ______ ____
ROOT
ATOM      1  C   UNL     1       0.453   9.857  18.832  0.00  0.00    +0.000 C 
ATOM      2  C   UNL     1       1.642   9.408  17.969  0.00  0.00    +0.000 C 
ATOM      3  C   UNL     1       1.985   7.941  18.226  0.00  0.00    +0.000 C 
ATOM      4  C   UNL     1       2.244   7.625  19.714  0.00  0.00    +0.000 C 
ATOM      5  C   UNL     1       1.131   8.193  20.611  0.00  0.00    +0.000 C 
ATOM      6  C   UNL     1       0.804   9.650  20.312  0.00  0.00    +0.000 C 
ENDROOT
BRANCH   4   7
ATOM      7  C   UNL     1       2.364   6.151  19.952  0.00  0.00    +0.000 A 
ATOM      8  N   UNL     1       1.404   5.485  20.700  0.00  0.00    +0.000 NA
ATOM      9  N   UNL     1       1.760   4.210  20.836  0.00  0.00    +0.000 NA
ATOM     10  N   UNL     1       2.929   4.067  20.196  0.00  0.00    +0.000 N 
ATOM     11  C   UNL     1       3.649   2.872  20.134  0.00  0.00    +0.000 A 
ATOM     12  N   UNL     1       4.799   2.782  19.505  0.00  0.00    +0.000 NA
ATOM     13  C   UNL     1       5.223   3.955  18.939  0.00  0.00    +0.000 A 
ATOM     14  N   UNL     1       6.392   4.071  18.242  0.00  0.00    +0.000 N 
ATOM     15  C   UNL     1       6.540   5.376  17.820  0.00  0.00    +0.000 A 
ATOM     16  C   UNL     1       5.444   6.107  18.247  0.00  0.00    +0.000 A 
ATOM     17  C   UNL     1       4.625   5.205  18.935  0.00  0.00    +0.000 A 
ATOM     18  C   UNL     1       3.341   5.246  19.634  0.00  0.00    +0.000 A 
ATOM     19  H   UNL     1       7.036   3.311  18.076  0.00  0.00    +0.000 HD
ENDBRANCH   4   7
BRANCH   1  20
ATOM     20  C   UNL     1       0.058  11.328  18.610  0.00  0.00    +0.000 C 
BRANCH  20  21
ATOM     21  N   UNL     1      -0.975  11.777  19.543  0.00  0.00    +0.000 NA
ATOM     22  H   UNL     1      -1.889  11.695  19.089  0.00  0.00    +0.000 HD
BRANCH  21  23
ATOM     23  C   UNL     1      -0.823  13.196  19.903  0.00  0.00    +0.000 C 
BRANCH  23  24
ATOM     24  C   UNL     1       0.057  13.994  18.929  0.00  0.00    +0.000 C 
BRANCH  24  25
ATOM     25  O   UNL     1      -0.605  15.201  18.554  0.00  0.00    +0.000 OA
ATOM     26  H   UNL     1      -0.287  15.433  17.666  0.00  0.00    +0.000 HD
ENDBRANCH  24  25
ENDBRANCH  23  24
ENDBRANCH  21  23
ENDBRANCH  20  21
ENDBRANCH   1  20
TORSDOF 6
ENDMDL
MODEL 9
REMARK VINA RESULT:      -7.0      2.411      3.552
REMARK  Name = 
REMARK  6 active torsions:
REMARK  status: ('A' for Active; 'I' for Inactive)
REMARK    1  A    between atoms: O_1  and  C_2
REMARK    2  A    between atoms: C_2  and  C_3
REMARK    3  A    between atoms: C_3  and  N_4
REMARK    4  A    between atoms: N_4  and  C_5
REMARK    5  A    between atoms: C_5  and  C_6
REMARK    6  A    between atoms: C_9  and  C_10
REMARK                            x       y       z     vdW  Elec       q    Type
REMARK                         _______ _______ _______ _____ _____    ______ ____
ROOT
ATOM      1  C   UNL     1       0.997  10.340  19.497  0.00  0.00    +0.000 C 
ATOM      2  C   UNL     1       0.723   9.137  20.414  0.00  0.00    +0.000 C 
ATOM      3  C   UNL     1       1.778   8.047  20.221  0.00  0.00    +0.000 C 
ATOM      4  C   UNL     1       1.924   7.591  18.754  0.00  0.00    +0.000 C 
ATOM      5  C   UNL     1       2.057   8.792  17.802  0.00  0.00    +0.000 C 
ATOM      6  C   UNL     1       1.002   9.865  18.038  0.00  0.00    +0.000 C 
ENDROOT
BRANCH   4   7
ATOM      7  C   UNL     1       3.104   6.686  18.573  0.00  0.00    +0.000 A 
ATOM      8  N   UNL     1       4.100   7.012  17.663  0.00  0.00    +0.000 NA
ATOM      9  N   UNL     1       4.998   6.031  17.625  0.00  0.00    +0.000 NA
ATOM     10  N   UNL     1       4.580   5.093  18.486  0.00  0.00    +0.000 N 
ATOM     11  C   UNL     1       5.241   3.884  18.713  0.00  0.00    +0.000 A 
ATOM     12  N   UNL     1       4.785   2.987  19.558  0.00  0.00    +0.000 NA
ATOM     13  C   UNL     1       3.614   3.340  20.174  0.00  0.00    +0.000 A 
ATOM     14  N   UNL     1       2.978   2.545  21.085  0.00  0.00    +0.000 N 
ATOM     15  C   UNL     1       1.822   3.171  21.503  0.00  0.00    +0.000 A 
ATOM     16  C   UNL     1       1.718   4.390  20.853  0.00  0.00    +0.000 A 
ATOM     17  C   UNL     1       2.849   4.487  20.035  0.00  0.00    +0.000 A 
ATOM     18  C   UNL     1       3.408   5.457  19.095  0.00  0.00    +0.000 A 
ATOM     19  H   UNL     1       3.315   1.643  21.390  0.00  0.00    +0.000 HD
ENDBRANCH   4   7
BRANCH   1  20
ATOM     20  C   UNL     1      -0.032  11.473  19.654  0.00  0.00    +0.000 C 
BRANCH  20  21
ATOM     21  N   UNL     1       0.542  12.668  20.272  0.00  0.00    +0.000 NA
ATOM     22  H   UNL     1       1.544  12.519  20.414  0.00  0.00    +0.000 HD
BRANCH  21  23
ATOM     23  C   UNL     1      -0.024  12.932  21.606  0.00  0.00    +0.000 C 
BRANCH  23  24
ATOM     24  C   UNL     1      -1.042  11.879  22.069  0.00  0.00    +0.000 C 
BRANCH  24  25
ATOM     25  O   UNL     1      -0.544  11.194  23.217  0.00  0.00    +0.000 OA
ATOM     26  H   UNL     1      -0.538  11.835  23.948  0.00  0.00    +0.000 HD
ENDBRANCH  24  25
ENDBRANCH  23  24
ENDBRANCH  21  23
ENDBRANCH  20  21
ENDBRANCH   1  20
TORSDOF 6
ENDMDL
