MODEL 1
REMARK VINA RESULT:      -8.6      0.000      0.000
REMARK  Name = 
REMARK  9 active torsions:
REMARK  status: ('A' for Active; 'I' for Inactive)
REMARK    1  A    between atoms: C_2  and  C_3
REMARK    2  A    between atoms: C_3  and  N_4
REMARK    3  A    between atoms: N_4  and  C_5
REMARK    4  A    between atoms: N_4  and  S_11
REMARK    5  A    between atoms: C_5  and  C_6
REMARK    6  A    between atoms: S_11  and  C_14
REMARK    7  A    between atoms: N_20  and  N_21
REMARK    8  A    between atoms: C_22  and  C_23
REMARK    9  A    between atoms: C_27  and  O_28
REMARK                            x       y       z     vdW  Elec       q    Type
REMARK                         _______ _______ _______ _____ _____    ______ ____
ROOT
ATOM      1  N   UNL     1       6.335   5.298  17.458  0.00  0.00    +0.000 NA
ENDROOT
BRANCH   1   2
ATOM      2  S   UNL     1       4.903   4.571  18.094  0.00  0.00    +0.000 S 
ATOM      3  O   UNL     1       4.311   3.758  17.046  0.00  0.00    +0.000 OA
ATOM      4  O   UNL     1       5.254   3.971  19.365  0.00  0.00    +0.000 OA
BRANCH   2   5
ATOM      5  C   UNL     1       3.763   5.909  18.416  0.00  0.00    +0.000 A 
ATOM      6  C   UNL     1       3.626   6.970  17.517  0.00  0.00    +0.000 A 
ATOM      7  C   UNL     1       2.808   8.053  17.844  0.00  0.00    +0.000 A 
ATOM      8  C   UNL     1       2.094   8.055  19.042  0.00  0.00    +0.000 A 
ATOM      9  C   UNL     1       2.187   6.970  19.913  0.00  0.00    +0.000 A 
ATOM     10  C   UNL     1       3.024   5.897  19.603  0.00  0.00    +0.000 A 
ENDBRANCH   2   5
ENDBRANCH   1   2
BRANCH   1  11
ATOM     11  C   UNL     1       7.033   6.166  18.456  0.00  0.00    +0.000 C 
BRANCH  11  13
ATOM     12  O   UNL     1       7.504   7.840  16.824  0.00  0.00    +0.000 OA
ATOM     13  C   UNL     1       7.686   7.441  17.975  0.00  0.00    +0.000 C 
ATOM     14  N   UNL     1       8.501   8.061  18.908  0.00  0.00    +0.000 N 
ATOM     15  H   UNL     1       8.611   7.668  19.837  0.00  0.00    +0.000 HD
BRANCH  14  16
ATOM     16  N   UNL     1       9.117   9.225  18.564  0.00  0.00    +0.000 NA
ATOM     17  C   UNL     1       9.298  10.093  19.507  0.00  0.00    +0.000 C 
BRANCH  17  18
ATOM     18  C   UNL     1       9.989  11.373  19.242  0.00  0.00    +0.000 A 
ATOM     19  C   UNL     1      10.685  12.036  20.259  0.00  0.00    +0.000 A 
ATOM     20  C   UNL     1      11.304  13.261  19.996  0.00  0.00    +0.000 A 
ATOM     21  C   UNL     1      11.229  13.822  18.720  0.00  0.00    +0.000 A 
ATOM     22  C   UNL     1      10.540  13.147  17.715  0.00  0.00    +0.000 A 
ATOM     23  C   UNL     1       9.920  11.925  17.962  0.00  0.00    +0.000 A 
BRANCH  22  24
ATOM     24  O   UNL     1      10.445  13.659  16.455  0.00  0.00    +0.000 OA
ATOM     25  H   UNL     1       9.725  13.203  15.986  0.00  0.00    +0.000 HD
ENDBRANCH  22  24
ENDBRANCH  17  18
ENDBRANCH  14  16
ENDBRANCH  11  13
ENDBRANCH   1  11
BRANCH   1  26
ATOM     26  C   UNL     1       7.255   4.408  16.686  0.00  0.00    +0.000 C 
BRANCH  26  27
ATOM     27  C   UNL     1       7.050   4.455  15.214  0.00  0.00    +0.000 A 
ATOM     28  C   UNL     1       6.177   3.840  14.340  0.00  0.00    +0.000 A 
ATOM     29  C   UNL     1       6.486   4.335  13.048  0.00  0.00    +0.000 A 
ATOM     30  C   UNL     1       7.524   5.220  13.216  0.00  0.00    +0.000 A 
ATOM     31  O   UNL     1       7.863   5.310  14.526  0.00  0.00    +0.000 OA
ENDBRANCH  26  27
ENDBRANCH   1  26
TORSDOF 9
ENDMDL
MODEL 2
REMARK VINA RESULT:      -8.3      2.201      3.935
REMARK  Name = 
REMARK  9 active torsions:
REMARK  status: ('A' for Active; 'I' for Inactive)
REMARK    1  A    between atoms: C_2  and  C_3
REMARK    2  A    between atoms: C_3  and  N_4
REMARK    3  A    between atoms: N_4  and  C_5
REMARK    4  A    between atoms: N_4  and  S_11
REMARK    5  A    between atoms: C_5  and  C_6
REMARK    6  A    between atoms: S_11  and  C_14
REMARK    7  A    between atoms: N_20  and  N_21
REMARK    8  A    between atoms: C_22  and  C_23
REMARK    9  A    between atoms: C_27  and  O_28
REMARK                            x       y       z     vdW  Elec       q    Type
REMARK                         _______ _______ _______ _____ _____    ______ ____
ROOT
ATOM      1  N   UNL     1       5.128   5.809  17.707  0.00  0.00    +0.000 NA
ENDROOT
BRANCH   1   2
ATOM      2  S   UNL     1       4.954   4.141  18.126  0.00  0.00    +0.000 S 
ATOM      3  O   UNL     1       4.911   3.374  16.894  0.00  0.00    +0.000 OA
ATOM      4  O   UNL     1       5.954   3.845  19.130  0.00  0.00    +0.000 OA
BRANCH   2   5
ATOM      5  C   UNL     1       3.346   3.983  18.890  0.00  0.00    +0.000 A 
ATOM      6  C   UNL     1       3.160   4.275  20.243  0.00  0.00    +0.000 A 
ATOM      7  C   UNL     1       1.919   4.041  20.838  0.00  0.00    +0.000 A 
ATOM      8  C   UNL     1       0.855   3.563  20.073  0.00  0.00    +0.000 A 
ATOM      9  C   UNL     1       1.026   3.325  18.710  0.00  0.00    +0.000 A 
ATOM     10  C   UNL     1       2.272   3.532  18.116  0.00  0.00    +0.000 A 
ENDBRANCH   2   5
ENDBRANCH   1   2
BRANCH   1  11
ATOM     11  C   UNL     1       6.482   6.127  17.157  0.00  0.00    +0.000 C 
BRANCH  11  13
ATOM     12  O   UNL     1       8.011   6.342  18.974  0.00  0.00    +0.000 OA
ATOM     13  C   UNL     1       7.454   6.893  18.024  0.00  0.00    +0.000 C 
ATOM     14  N   UNL     1       7.613   8.225  17.676  0.00  0.00    +0.000 N 
ATOM     15  H   UNL     1       7.111   8.613  16.883  0.00  0.00    +0.000 HD
BRANCH  14  16
ATOM     16  N   UNL     1       8.483   8.986  18.394  0.00  0.00    +0.000 NA
ATOM     17  C   UNL     1       8.800  10.139  17.898  0.00  0.00    +0.000 C 
BRANCH  17  18
ATOM     18  C   UNL     1       9.709  11.054  18.619  0.00  0.00    +0.000 A 
ATOM     19  C   UNL     1      10.754  11.703  17.950  0.00  0.00    +0.000 A 
ATOM     20  C   UNL     1      11.623  12.539  18.656  0.00  0.00    +0.000 A 
ATOM     21  C   UNL     1      11.448  12.728  20.028  0.00  0.00    +0.000 A 
ATOM     22  C   UNL     1      10.399  12.084  20.680  0.00  0.00    +0.000 A 
ATOM     23  C   UNL     1       9.525  11.249  19.989  0.00  0.00    +0.000 A 
BRANCH  22  24
ATOM     24  O   UNL     1      10.192  12.244  22.019  0.00  0.00    +0.000 OA
ATOM     25  H   UNL     1       9.742  13.093  22.165  0.00  0.00    +0.000 HD
ENDBRANCH  22  24
ENDBRANCH  17  18
ENDBRANCH  14  16
ENDBRANCH  11  13
ENDBRANCH   1  11
BRANCH   1  26
ATOM     26  C   UNL     1       4.005   6.430  16.941  0.00  0.00    +0.000 C 
BRANCH  26  27
ATOM     27  C   UNL     1       3.155   7.345  17.747  0.00  0.00    +0.000 A 
ATOM     28  C   UNL     1       2.680   7.331  19.043  0.00  0.00    +0.000 A 
ATOM     29  C   UNL     1       1.933   8.524  19.211  0.00  0.00    +0.000 A 
ATOM     30  C   UNL     1       2.002   9.190  18.010  0.00  0.00    +0.000 A 
ATOM     31  O   UNL     1       2.752   8.491  17.123  0.00  0.00    +0.000 OA
ENDBRANCH  26  27
ENDBRANCH   1  26
TORSDOF 9
ENDMDL
MODEL 3
REMARK VINA RESULT:      -8.3      2.255      4.232
REMARK  Name = 
REMARK  9 active torsions:
REMARK  status: ('A' for Active; 'I' for Inactive)
REMARK    1  A    between atoms: C_2  and  C_3
REMARK    2  A    between atoms: C_3  and  N_4
REMARK    3  A    between atoms: N_4  and  C_5
REMARK    4  A    between atoms: N_4  and  S_11
REMARK    5  A    between atoms: C_5  and  C_6
REMARK    6  A    between atoms: S_11  and  C_14
REMARK    7  A    between atoms: N_20  and  N_21
REMARK    8  A    between atoms: C_22  and  C_23
REMARK    9  A    between atoms: C_27  and  O_28
REMARK                            x       y       z     vdW  Elec       q    Type
REMARK                         _______ _______ _______ _____ _____    ______ ____
ROOT
ATOM      1  N   UNL     1       4.588   5.805  17.840  0.00  0.00    +0.000 NA
ENDROOT
BRANCH   1   2
ATOM      2  S   UNL     1       4.770   4.173  18.379  0.00  0.00    +0.000 S 
ATOM      3  O   UNL     1       5.012   3.343  17.213  0.00  0.00    +0.000 OA
ATOM      4  O   UNL     1       5.722   4.186  19.470  0.00  0.00    +0.000 OA
BRANCH   2   5
ATOM      5  C   UNL     1       3.184   3.685  19.041  0.00  0.00    +0.000 A 
ATOM      6  C   UNL     1       2.251   3.009  18.251  0.00  0.00    +0.000 A 
ATOM      7  C   UNL     1       0.981   2.735  18.762  0.00  0.00    +0.000 A 
ATOM      8  C   UNL     1       0.660   3.091  20.071  0.00  0.00    +0.000 A 
ATOM      9  C   UNL     1       1.611   3.715  20.878  0.00  0.00    +0.000 A 
ATOM     10  C   UNL     1       2.873   4.016  20.364  0.00  0.00    +0.000 A 
ENDBRANCH   2   5
ENDBRANCH   1   2
BRANCH   1  11
ATOM     11  C   UNL     1       5.704   6.246  16.948  0.00  0.00    +0.000 C 
BRANCH  11  13
ATOM     12  O   UNL     1       7.699   6.111  18.247  0.00  0.00    +0.000 OA
ATOM     13  C   UNL     1       6.949   6.824  17.578  0.00  0.00    +0.000 C 
ATOM     14  N   UNL     1       7.129   8.181  17.365  0.00  0.00    +0.000 N 
ATOM     15  H   UNL     1       6.462   8.708  16.809  0.00  0.00    +0.000 HD
BRANCH  14  16
ATOM     16  N   UNL     1       8.234   8.782  17.884  0.00  0.00    +0.000 NA
ATOM     17  C   UNL     1       8.188  10.067  18.031  0.00  0.00    +0.000 C 
BRANCH  17  18
ATOM     18  C   UNL     1       9.324  10.808  18.618  0.00  0.00    +0.000 A 
ATOM     19  C   UNL     1      10.432  11.161  17.838  0.00  0.00    +0.000 A 
ATOM     20  C   UNL     1      11.510  11.832  18.420  0.00  0.00    +0.000 A 
ATOM     21  C   UNL     1      11.482  12.152  19.779  0.00  0.00    +0.000 A 
ATOM     22  C   UNL     1      10.371  11.803  20.541  0.00  0.00    +0.000 A 
ATOM     23  C   UNL     1       9.289  11.135  19.975  0.00  0.00    +0.000 A 
BRANCH  22  24
ATOM     24  O   UNL     1      10.303  12.098  21.871  0.00  0.00    +0.000 OA
ATOM     25  H   UNL     1       9.420  11.857  22.199  0.00  0.00    +0.000 HD
ENDBRANCH  22  24
ENDBRANCH  17  18
ENDBRANCH  14  16
ENDBRANCH  11  13
ENDBRANCH   1  11
BRANCH   1  26
ATOM     26  C   UNL     1       3.232   6.204  17.353  0.00  0.00    +0.000 C 
BRANCH  26  27
ATOM     27  C   UNL     1       2.624   7.331  18.109  0.00  0.00    +0.000 A 
ATOM     28  C   UNL     1       2.236   8.614  17.782  0.00  0.00    +0.000 A 
ATOM     29  C   UNL     1       1.694   9.183  18.962  0.00  0.00    +0.000 A 
ATOM     30  C   UNL     1       1.783   8.211  19.931  0.00  0.00    +0.000 A 
ATOM     31  O   UNL     1       2.331   7.082  19.419  0.00  0.00    +0.000 OA
ENDBRANCH  26  27
ENDBRANCH   1  26
TORSDOF 9
ENDMDL
MODEL 4
REMARK VINA RESULT:      -8.3      1.922      2.545
REMARK  Name = 
REMARK  9 active torsions:
REMARK  status: ('A' for Active; 'I' for Inactive)
REMARK    1  A    between atoms: C_2  and  C_3
REMARK    2  A    between atoms: C_3  and  N_4
REMARK    3  A    between atoms: N_4  and  C_5
REMARK    4  A    between atoms: N_4  and  S_11
REMARK    5  A    between atoms: C_5  and  C_6
REMARK    6  A    between atoms: S_11  and  C_14
REMARK    7  A    between atoms: N_20  and  N_21
REMARK    8  A    between atoms: C_22  and  C_23
REMARK    9  A    between atoms: C_27  and  O_28
REMARK                            x       y       z     vdW  Elec       q    Type
REMARK                         _______ _______ _______ _____ _____    ______ ____
ROOT
ATOM      1  N   UNL     1       5.978   4.945  17.011  0.00  0.00    +0.000 NA
ENDROOT
BRANCH   1   2
ATOM      2  S   UNL     1       4.609   5.639  17.804  0.00  0.00    +0.000 S 
ATOM      3  O   UNL     1       5.026   6.060  19.129  0.00  0.00    +0.000 OA
ATOM      4  O   UNL     1       4.025   6.598  16.889  0.00  0.00    +0.000 OA
BRANCH   2   5
ATOM      5  C   UNL     1       3.435   4.311  18.028  0.00  0.00    +0.000 A 
ATOM      6  C   UNL     1       2.076   4.497  17.759  0.00  0.00    +0.000 A 
ATOM      7  C   UNL     1       1.167   3.477  18.044  0.00  0.00    +0.000 A 
ATOM      8  C   UNL     1       1.619   2.259  18.552  0.00  0.00    +0.000 A 
ATOM      9  C   UNL     1       2.981   2.053  18.767  0.00  0.00    +0.000 A 
ATOM     10  C   UNL     1       3.891   3.079  18.509  0.00  0.00    +0.000 A 
ENDBRANCH   2   5
ENDBRANCH   1   2
BRANCH   1  11
ATOM     11  C   UNL     1       7.078   4.594  17.962  0.00  0.00    +0.000 C 
BRANCH  11  13
ATOM     12  O   UNL     1       8.364   5.513  19.748  0.00  0.00    +0.000 OA
ATOM     13  C   UNL     1       7.810   5.712  18.665  0.00  0.00    +0.000 C 
ATOM     14  N   UNL     1       7.763   6.934  18.014  0.00  0.00    +0.000 N 
ATOM     15  H   UNL     1       7.278   7.026  17.127  0.00  0.00    +0.000 HD
BRANCH  14  16
ATOM     16  N   UNL     1       8.411   7.995  18.570  0.00  0.00    +0.000 NA
ATOM     17  C   UNL     1       8.264   9.141  17.988  0.00  0.00    +0.000 C 
BRANCH  17  18
ATOM     18  C   UNL     1       8.898  10.359  18.534  0.00  0.00    +0.000 A 
ATOM     19  C   UNL     1       9.482  10.356  19.807  0.00  0.00    +0.000 A 
ATOM     20  C   UNL     1      10.046  11.527  20.319  0.00  0.00    +0.000 A 
ATOM     21  C   UNL     1      10.030  12.699  19.561  0.00  0.00    +0.000 A 
ATOM     22  C   UNL     1       9.454  12.686  18.293  0.00  0.00    +0.000 A 
ATOM     23  C   UNL     1       8.889  11.527  17.769  0.00  0.00    +0.000 A 
BRANCH  22  24
ATOM     24  O   UNL     1       9.420  13.809  17.519  0.00  0.00    +0.000 OA
ATOM     25  H   UNL     1       9.675  13.570  16.611  0.00  0.00    +0.000 HD
ENDBRANCH  22  24
ENDBRANCH  17  18
ENDBRANCH  14  16
ENDBRANCH  11  13
ENDBRANCH   1  11
BRANCH   1  26
ATOM     26  C   UNL     1       5.700   3.886  15.993  0.00  0.00    +0.000 C 
BRANCH  26  27
ATOM     27  C   UNL     1       6.302   4.152  14.661  0.00  0.00    +0.000 A 
ATOM     28  C   UNL     1       6.017   3.746  13.373  0.00  0.00    +0.000 A 
ATOM     29  C   UNL     1       6.964   4.381  12.532  0.00  0.00    +0.000 A 
ATOM     30  C   UNL     1       7.764   5.135  13.357  0.00  0.00    +0.000 A 
ATOM     31  O   UNL     1       7.362   5.014  14.646  0.00  0.00    +0.000 OA
ENDBRANCH  26  27
ENDBRANCH   1  26
TORSDOF 9
ENDMDL
MODEL 5
REMARK VINA RESULT:      -8.1      1.304      1.505
REMARK  Name = 
REMARK  9 active torsions:
REMARK  status: ('A' for Active; 'I' for Inactive)
REMARK    1  A    between atoms: C_2  and  C_3
REMARK    2  A    between atoms: C_3  and  N_4
REMARK    3  A    between atoms: N_4  and  C_5
REMARK    4  A    between atoms: N_4  and  S_11
REMARK    5  A    between atoms: C_5  and  C_6
REMARK    6  A    between atoms: S_11  and  C_14
REMARK    7  A    between atoms: N_20  and  N_21
REMARK    8  A    between atoms: C_22  and  C_23
REMARK    9  A    between atoms: C_27  and  O_28
REMARK                            x       y       z     vdW  Elec       q    Type
REMARK                         _______ _______ _______ _____ _____    ______ ____
ROOT
ATOM      1  N   UNL     1       5.226   6.387  17.278  0.00  0.00    +0.000 NA
ENDROOT
BRANCH   1   2
ATOM      2  S   UNL     1       3.947   5.702  18.217  0.00  0.00    +0.000 S 
ATOM      3  O   UNL     1       3.199   4.799  17.362  0.00  0.00    +0.000 OA
ATOM      4  O   UNL     1       4.533   5.215  19.449  0.00  0.00    +0.000 OA
BRANCH   2   5
ATOM      5  C   UNL     1       2.851   7.052  18.629  0.00  0.00    +0.000 A 
ATOM      6  C   UNL     1       2.579   8.066  17.706  0.00  0.00    +0.000 A 
ATOM      7  C   UNL     1       1.805   9.162  18.090  0.00  0.00    +0.000 A 
ATOM      8  C   UNL     1       1.264   9.223  19.374  0.00  0.00    +0.000 A 
ATOM      9  C   UNL     1       1.489   8.183  20.276  0.00  0.00    +0.000 A 
ATOM     10  C   UNL     1       2.284   7.098  19.907  0.00  0.00    +0.000 A 
ENDBRANCH   2   5
ENDBRANCH   1   2
BRANCH   1  11
ATOM     11  C   UNL     1       6.562   5.808  17.616  0.00  0.00    +0.000 C 
BRANCH  11  13
ATOM     12  O   UNL     1       8.218   6.246  19.276  0.00  0.00    +0.000 OA
ATOM     13  C   UNL     1       7.572   6.682  18.322  0.00  0.00    +0.000 C 
ATOM     14  N   UNL     1       7.661   7.975  17.832  0.00  0.00    +0.000 N 
ATOM     15  H   UNL     1       7.088   8.269  17.046  0.00  0.00    +0.000 HD
BRANCH  14  16
ATOM     16  N   UNL     1       8.558   8.827  18.399  0.00  0.00    +0.000 NA
ATOM     17  C   UNL     1       8.552  10.050  17.977  0.00  0.00    +0.000 C 
BRANCH  17  18
ATOM     18  C   UNL     1       9.463  11.061  18.555  0.00  0.00    +0.000 A 
ATOM     19  C   UNL     1      10.085  10.844  19.790  0.00  0.00    +0.000 A 
ATOM     20  C   UNL     1      10.916  11.825  20.335  0.00  0.00    +0.000 A 
ATOM     21  C   UNL     1      11.128  13.021  19.647  0.00  0.00    +0.000 A 
ATOM     22  C   UNL     1      10.511  13.221  18.415  0.00  0.00    +0.000 A 
ATOM     23  C   UNL     1       9.681  12.252  17.859  0.00  0.00    +0.000 A 
BRANCH  22  24
ATOM     24  O   UNL     1      10.694  14.374  17.709  0.00  0.00    +0.000 OA
ATOM     25  H   UNL     1       9.858  14.871  17.703  0.00  0.00    +0.000 HD
ENDBRANCH  22  24
ENDBRANCH  17  18
ENDBRANCH  14  16
ENDBRANCH  11  13
ENDBRANCH   1  11
BRANCH   1  26
ATOM     26  C   UNL     1       4.981   6.524  15.810  0.00  0.00    +0.000 C 
BRANCH  26  27
ATOM     27  C   UNL     1       5.593   5.446  14.989  0.00  0.00    +0.000 A 
ATOM     28  C   UNL     1       5.164   4.215  14.537  0.00  0.00    +0.000 A 
ATOM     29  C   UNL     1       6.227   3.676  13.770  0.00  0.00    +0.000 A 
ATOM     30  C   UNL     1       7.233   4.612  13.800  0.00  0.00    +0.000 A 
ATOM     31  O   UNL     1       6.853   5.693  14.524  0.00  0.00    +0.000 OA
ENDBRANCH  26  27
ENDBRANCH   1  26
TORSDOF 9
ENDMDL
MODEL 6
REMARK VINA RESULT:      -8.1      4.450      7.258
REMARK  Name = 
REMARK  9 active torsions:
REMARK  status: ('A' for Active; 'I' for Inactive)
REMARK    1  A    between atoms: C_2  and  C_3
REMARK    2  A    between atoms: C_3  and  N_4
REMARK    3  A    between atoms: N_4  and  C_5
REMARK    4  A    between atoms: N_4  and  S_11
REMARK    5  A    between atoms: C_5  and  C_6
REMARK    6  A    between atoms: S_11  and  C_14
REMARK    7  A    between atoms: N_20  and  N_21
REMARK    8  A    between atoms: C_22  and  C_23
REMARK    9  A    between atoms: C_27  and  O_28
REMARK                            x       y       z     vdW  Elec       q    Type
REMARK                         _______ _______ _______ _____ _____    ______ ____
ROOT
ATOM      1  N   UNL     1       3.662   5.113  17.468  0.00  0.00    +0.000 NA
ENDROOT
BRANCH   1   2
ATOM      2  S   UNL     1       2.480   3.858  17.581  0.00  0.00    +0.000 S 
ATOM      3  O   UNL     1       1.185   4.436  17.274  0.00  0.00    +0.000 OA
ATOM      4  O   UNL     1       2.973   2.734  16.813  0.00  0.00    +0.000 OA
BRANCH   2   5
ATOM      5  C   UNL     1       2.433   3.370  19.300  0.00  0.00    +0.000 A 
ATOM      6  C   UNL     1       3.516   2.715  19.892  0.00  0.00    +0.000 A 
ATOM      7  C   UNL     1       3.411   2.251  21.205  0.00  0.00    +0.000 A 
ATOM      8  C   UNL     1       2.247   2.481  21.938  0.00  0.00    +0.000 A 
ATOM      9  C   UNL     1       1.188   3.184  21.365  0.00  0.00    +0.000 A 
ATOM     10  C   UNL     1       1.277   3.627  20.045  0.00  0.00    +0.000 A 
ENDBRANCH   2   5
ENDBRANCH   1   2
BRANCH   1  11
ATOM     11  C   UNL     1       3.722   5.962  18.698  0.00  0.00    +0.000 C 
BRANCH  11  13
ATOM     12  O   UNL     1       2.612   7.882  17.822  0.00  0.00    +0.000 OA
ATOM     13  C   UNL     1       2.802   7.156  18.799  0.00  0.00    +0.000 C 
ATOM     14  N   UNL     1       2.253   7.358  20.054  0.00  0.00    +0.000 N 
ATOM     15  H   UNL     1       2.463   6.722  20.817  0.00  0.00    +0.000 HD
BRANCH  14  16
ATOM     16  N   UNL     1       1.398   8.403  20.231  0.00  0.00    +0.000 NA
ATOM     17  C   UNL     1       1.080   8.699  21.450  0.00  0.00    +0.000 C 
BRANCH  17  18
ATOM     18  C   UNL     1       0.187   9.839  21.749  0.00  0.00    +0.000 A 
ATOM     19  C   UNL     1      -0.498   9.914  22.968  0.00  0.00    +0.000 A 
ATOM     20  C   UNL     1      -1.363  10.982  23.217  0.00  0.00    +0.000 A 
ATOM     21  C   UNL     1      -1.543  11.975  22.252  0.00  0.00    +0.000 A 
ATOM     22  C   UNL     1      -0.849  11.892  21.048  0.00  0.00    +0.000 A 
ATOM     23  C   UNL     1       0.016  10.834  20.785  0.00  0.00    +0.000 A 
BRANCH  22  24
ATOM     24  O   UNL     1      -0.996  12.842  20.079  0.00  0.00    +0.000 OA
ATOM     25  H   UNL     1      -0.373  13.567  20.257  0.00  0.00    +0.000 HD
ENDBRANCH  22  24
ENDBRANCH  17  18
ENDBRANCH  14  16
ENDBRANCH  11  13
ENDBRANCH   1  11
BRANCH   1  26
ATOM     26  C   UNL     1       5.005   4.725  16.936  0.00  0.00    +0.000 C 
BRANCH  26  27
ATOM     27  C   UNL     1       6.138   5.460  17.558  0.00  0.00    +0.000 A 
ATOM     28  C   UNL     1       6.777   6.654  17.291  0.00  0.00    +0.000 A 
ATOM     29  C   UNL     1       7.780   6.802  18.281  0.00  0.00    +0.000 A 
ATOM     30  C   UNL     1       7.689   5.693  19.088  0.00  0.00    +0.000 A 
ATOM     31  O   UNL     1       6.688   4.882  18.667  0.00  0.00    +0.000 OA
ENDBRANCH  26  27
ENDBRANCH   1  26
TORSDOF 9
ENDMDL
MODEL 7
REMARK VINA RESULT:      -8.1      4.308      7.151
REMARK  Name = 
REMARK  9 active torsions:
REMARK  status: ('A' for Active; 'I' for Inactive)
REMARK    1  A    between atoms: C_2  and  C_3
REMARK    2  A    between atoms: C_3  and  N_4
REMARK    3  A    between atoms: N_4  and  C_5
REMARK    4  A    between atoms: N_4  and  S_11
REMARK    5  A    between atoms: C_5  and  C_6
REMARK    6  A    between atoms: S_11  and  C_14
REMARK    7  A    between atoms: N_20  and  N_21
REMARK    8  A    between atoms: C_22  and  C_23
REMARK    9  A    between atoms: C_27  and  O_28
REMARK                            x       y       z     vdW  Elec       q    Type
REMARK                         _______ _______ _______ _____ _____    ______ ____
ROOT
ATOM      1  N   UNL     1       3.467   5.208  17.401  0.00  0.00    +0.000 NA
ENDROOT
BRANCH   1   2
ATOM      2  S   UNL     1       2.287   3.947  17.469  0.00  0.00    +0.000 S 
ATOM      3  O   UNL     1       0.984   4.542  17.231  0.00  0.00    +0.000 OA
ATOM      4  O   UNL     1       2.760   2.873  16.621  0.00  0.00    +0.000 OA
BRANCH   2   5
ATOM      5  C   UNL     1       2.285   3.355  19.155  0.00  0.00    +0.000 A 
ATOM      6  C   UNL     1       1.152   3.484  19.962  0.00  0.00    +0.000 A 
ATOM      7  C   UNL     1       1.212   3.109  21.305  0.00  0.00    +0.000 A 
ATOM      8  C   UNL     1       2.385   2.563  21.828  0.00  0.00    +0.000 A 
ATOM      9  C   UNL     1       3.497   2.382  21.008  0.00  0.00    +0.000 A 
ATOM     10  C   UNL     1       3.451   2.780  19.671  0.00  0.00    +0.000 A 
ENDBRANCH   2   5
ENDBRANCH   1   2
BRANCH   1  11
ATOM     11  C   UNL     1       3.574   5.967  18.685  0.00  0.00    +0.000 C 
BRANCH  11  13
ATOM     12  O   UNL     1       2.652   8.029  17.920  0.00  0.00    +0.000 OA
ATOM     13  C   UNL     1       2.759   7.228  18.850  0.00  0.00    +0.000 C 
ATOM     14  N   UNL     1       2.205   7.399  20.108  0.00  0.00    +0.000 N 
ATOM     15  H   UNL     1       2.344   6.700  20.832  0.00  0.00    +0.000 HD
BRANCH  14  16
ATOM     16  N   UNL     1       1.441   8.502  20.340  0.00  0.00    +0.000 NA
ATOM     17  C   UNL     1       1.092   8.724  21.566  0.00  0.00    +0.000 C 
BRANCH  17  18
ATOM     18  C   UNL     1       0.292   9.915  21.926  0.00  0.00    +0.000 A 
ATOM     19  C   UNL     1      -0.633   9.868  22.976  0.00  0.00    +0.000 A 
ATOM     20  C   UNL     1      -1.403  10.994  23.279  0.00  0.00    +0.000 A 
ATOM     21  C   UNL     1      -1.248  12.165  22.536  0.00  0.00    +0.000 A 
ATOM     22  C   UNL     1      -0.318  12.201  21.500  0.00  0.00    +0.000 A 
ATOM     23  C   UNL     1       0.456  11.088  21.187  0.00  0.00    +0.000 A 
BRANCH  22  24
ATOM     24  O   UNL     1      -0.135  13.327  20.751  0.00  0.00    +0.000 OA
ATOM     25  H   UNL     1      -0.139  14.099  21.342  0.00  0.00    +0.000 HD
ENDBRANCH  22  24
ENDBRANCH  17  18
ENDBRANCH  14  16
ENDBRANCH  11  13
ENDBRANCH   1  11
BRANCH   1  26
ATOM     26  C   UNL     1       4.788   4.860  16.794  0.00  0.00    +0.000 C 
BRANCH  26  27
ATOM     27  C   UNL     1       5.932   5.630  17.349  0.00  0.00    +0.000 A 
ATOM     28  C   UNL     1       6.813   5.433  18.393  0.00  0.00    +0.000 A 
ATOM     29  C   UNL     1       7.700   6.538  18.384  0.00  0.00    +0.000 A 
ATOM     30  C   UNL     1       7.308   7.336  17.335  0.00  0.00    +0.000 A 
ATOM     31  O   UNL     1       6.247   6.786  16.694  0.00  0.00    +0.000 OA
ENDBRANCH  26  27
ENDBRANCH   1  26
TORSDOF 9
ENDMDL
MODEL 8
REMARK VINA RESULT:      -7.9      1.963      2.434
REMARK  Name = 
REMARK  9 active torsions:
REMARK  status: ('A' for Active; 'I' for Inactive)
REMARK    1  A    between atoms: C_2  and  C_3
REMARK    2  A    between atoms: C_3  and  N_4
REMARK    3  A    between atoms: N_4  and  C_5
REMARK    4  A    between atoms: N_4  and  S_11
REMARK    5  A    between atoms: C_5  and  C_6
REMARK    6  A    between atoms: S_11  and  C_14
REMARK    7  A    between atoms: N_20  and  N_21
REMARK    8  A    between atoms: C_22  and  C_23
REMARK    9  A    between atoms: C_27  and  O_28
REMARK                            x       y       z     vdW  Elec       q    Type
REMARK                         _______ _______ _______ _____ _____    ______ ____
ROOT
ATOM      1  N   UNL     1       6.482   5.675  17.335  0.00  0.00    +0.000 NA
ENDROOT
BRANCH   1   2
ATOM      2  S   UNL     1       5.169   5.734  18.456  0.00  0.00    +0.000 S 
ATOM      3  O   UNL     1       5.725   5.717  19.797  0.00  0.00    +0.000 OA
ATOM      4  O   UNL     1       4.302   6.819  18.045  0.00  0.00    +0.000 OA
BRANCH   2   5
ATOM      5  C   UNL     1       4.267   4.205  18.251  0.00  0.00    +0.000 A 
ATOM      6  C   UNL     1       3.333   4.052  17.223  0.00  0.00    +0.000 A 
ATOM      7  C   UNL     1       2.568   2.887  17.151  0.00  0.00    +0.000 A 
ATOM      8  C   UNL     1       2.767   1.860  18.073  0.00  0.00    +0.000 A 
ATOM      9  C   UNL     1       3.738   1.990  19.065  0.00  0.00    +0.000 A 
ATOM     10  C   UNL     1       4.487   3.163  19.158  0.00  0.00    +0.000 A 
ENDBRANCH   2   5
ENDBRANCH   1   2
BRANCH   1  11
ATOM     11  C   UNL     1       7.699   6.385  17.835  0.00  0.00    +0.000 C 
BRANCH  11  13
ATOM     12  O   UNL     1       7.037   8.498  16.951  0.00  0.00    +0.000 OA
ATOM     13  C   UNL     1       7.738   7.893  17.764  0.00  0.00    +0.000 C 
ATOM     14  N   UNL     1       8.627   8.491  18.642  0.00  0.00    +0.000 N 
ATOM     15  H   UNL     1       9.181   7.926  19.279  0.00  0.00    +0.000 HD
BRANCH  14  16
ATOM     16  N   UNL     1       8.715   9.849  18.657  0.00  0.00    +0.000 NA
ATOM     17  C   UNL     1       9.772  10.374  18.125  0.00  0.00    +0.000 C 
BRANCH  17  18
ATOM     18  C   UNL     1       9.944  11.841  18.060  0.00  0.00    +0.000 A 
ATOM     19  C   UNL     1       8.991  12.701  18.617  0.00  0.00    +0.000 A 
ATOM     20  C   UNL     1       9.156  14.085  18.516  0.00  0.00    +0.000 A 
ATOM     21  C   UNL     1      10.272  14.609  17.862  0.00  0.00    +0.000 A 
ATOM     22  C   UNL     1      11.218  13.742  17.321  0.00  0.00    +0.000 A 
ATOM     23  C   UNL     1      11.067  12.361  17.414  0.00  0.00    +0.000 A 
BRANCH  22  24
ATOM     24  O   UNL     1      12.324  14.213  16.676  0.00  0.00    +0.000 OA
ATOM     25  H   UNL     1      12.669  14.978  17.167  0.00  0.00    +0.000 HD
ENDBRANCH  22  24
ENDBRANCH  17  18
ENDBRANCH  14  16
ENDBRANCH  11  13
ENDBRANCH   1  11
BRANCH   1  26
ATOM     26  C   UNL     1       6.771   4.349  16.709  0.00  0.00    +0.000 C 
BRANCH  26  27
ATOM     27  C   UNL     1       6.809   4.375  15.223  0.00  0.00    +0.000 A 
ATOM     28  C   UNL     1       6.138   3.695  14.227  0.00  0.00    +0.000 A 
ATOM     29  C   UNL     1       6.619   4.206  12.996  0.00  0.00    +0.000 A 
ATOM     30  C   UNL     1       7.550   5.165  13.318  0.00  0.00    +0.000 A 
ATOM     31  O   UNL     1       7.661   5.285  14.664  0.00  0.00    +0.000 OA
ENDBRANCH  26  27
ENDBRANCH   1  26
TORSDOF 9
ENDMDL
MODEL 9
REMARK VINA RESULT:      -7.8      2.500      4.174
REMARK  Name = 
REMARK  9 active torsions:
REMARK  status: ('A' for Active; 'I' for Inactive)
REMARK    1  A    between atoms: C_2  and  C_3
REMARK    2  A    between atoms: C_3  and  N_4
REMARK    3  A    between atoms: N_4  and  C_5
REMARK    4  A    between atoms: N_4  and  S_11
REMARK    5  A    between atoms: C_5  and  C_6
REMARK    6  A    between atoms: S_11  and  C_14
REMARK    7  A    between atoms: N_20  and  N_21
REMARK    8  A    between atoms: C_22  and  C_23
REMARK    9  A    between atoms: C_27  and  O_28
REMARK                            x       y       z     vdW  Elec       q    Type
REMARK                         _______ _______ _______ _____ _____    ______ ____
ROOT
ATOM      1  N   UNL     1       4.749   5.094  18.043  0.00  0.00    +0.000 NA
ENDROOT
BRANCH   1   2
ATOM      2  S   UNL     1       3.860   3.634  17.793  0.00  0.00    +0.000 S 
ATOM      3  O   UNL     1       2.919   3.864  16.712  0.00  0.00    +0.000 OA
ATOM      4  O   UNL     1       4.824   2.557  17.699  0.00  0.00    +0.000 OA
BRANCH   2   5
ATOM      5  C   UNL     1       2.894   3.377  19.274  0.00  0.00    +0.000 A 
ATOM      6  C   UNL     1       3.484   2.894  20.445  0.00  0.00    +0.000 A 
ATOM      7  C   UNL     1       2.687   2.603  21.553  0.00  0.00    +0.000 A 
ATOM      8  C   UNL     1       1.313   2.838  21.509  0.00  0.00    +0.000 A 
ATOM      9  C   UNL     1       0.733   3.373  20.360  0.00  0.00    +0.000 A 
ATOM     10  C   UNL     1       1.520   3.641  19.240  0.00  0.00    +0.000 A 
ENDBRANCH   2   5
ENDBRANCH   1   2
BRANCH   1  11
ATOM     11  C   UNL     1       6.225   4.865  18.120  0.00  0.00    +0.000 C 
BRANCH  11  13
ATOM     12  O   UNL     1       7.414   5.895  19.912  0.00  0.00    +0.000 OA
ATOM     13  C   UNL     1       7.095   5.943  18.723  0.00  0.00    +0.000 C 
ATOM     14  N   UNL     1       7.446   6.959  17.850  0.00  0.00    +0.000 N 
ATOM     15  H   UNL     1       7.137   6.937  16.882  0.00  0.00    +0.000 HD
BRANCH  14  16
ATOM     16  N   UNL     1       8.242   7.964  18.305  0.00  0.00    +0.000 NA
ATOM     17  C   UNL     1       7.979   9.158  17.882  0.00  0.00    +0.000 C 
BRANCH  17  18
ATOM     18  C   UNL     1       8.764  10.322  18.345  0.00  0.00    +0.000 A 
ATOM     19  C   UNL     1       8.949  11.438  17.521  0.00  0.00    +0.000 A 
ATOM     20  C   UNL     1       9.722  12.513  17.965  0.00  0.00    +0.000 A 
ATOM     21  C   UNL     1      10.308  12.476  19.232  0.00  0.00    +0.000 A 
ATOM     22  C   UNL     1      10.108  11.364  20.045  0.00  0.00    +0.000 A 
ATOM     23  C   UNL     1       9.340  10.285  19.617  0.00  0.00    +0.000 A 
BRANCH  22  24
ATOM     24  O   UNL     1      10.661  11.288  21.290  0.00  0.00    +0.000 OA
ATOM     25  H   UNL     1      10.681  10.356  21.567  0.00  0.00    +0.000 HD
ENDBRANCH  22  24
ENDBRANCH  17  18
ENDBRANCH  14  16
ENDBRANCH  11  13
ENDBRANCH   1  11
BRANCH   1  26
ATOM     26  C   UNL     1       4.364   6.268  17.202  0.00  0.00    +0.000 C 
BRANCH  26  27
ATOM     27  C   UNL     1       3.329   7.141  17.816  0.00  0.00    +0.000 A 
ATOM     28  C   UNL     1       2.654   7.139  19.020  0.00  0.00    +0.000 A 
ATOM     29  C   UNL     1       1.804   8.273  19.006  0.00  0.00    +0.000 A 
ATOM     30  C   UNL     1       2.016   8.895  17.799  0.00  0.00    +0.000 A 
ATOM     31  O   UNL     1       2.948   8.226  17.078  0.00  0.00    +0.000 OA
ENDBRANCH  26  27
ENDBRANCH   1  26
TORSDOF 9
ENDMDL
