MODEL 1
REMARK VINA RESULT:      -7.5      0.000      0.000
REMARK  Name = 
REMARK  8 active torsions:
REMARK  status: ('A' for Active; 'I' for Inactive)
REMARK    1  A    between atoms: C_1  and  O_2
REMARK    2  A    between atoms: O_2  and  C_3
REMARK    3  A    between atoms: C_6  and  C_7
REMARK    4  A    between atoms: C_7  and  C_8
REMARK    5  A    between atoms: C_21  and  C_22
REMARK    6  A    between atoms: C_22  and  O_24
REMARK    7  A    between atoms: C_25  and  O_26
REMARK    8  A    between atoms: O_26  and  C_27
REMARK                            x       y       z     vdW  Elec       q    Type
REMARK                         _______ _______ _______ _____ _____    ______ ____
ROOT
ATOM      1  C   UNL     1       2.193   7.384  20.339  0.00  0.00    +0.000 C 
ENDROOT
BRANCH   1   2
ATOM      2  C   UNL     1       1.863   5.994  19.694  0.00  0.00    +0.000 C 
ATOM      3  N   UNL     1       1.341   5.151  20.797  0.00  0.00    +0.000 NA
ATOM      4  C   UNL     1       1.232   3.737  20.464  0.00  0.00    +0.000 C 
ATOM      5  C   UNL     1       2.513   3.093  19.928  0.00  0.00    +0.000 C 
ATOM      6  C   UNL     1       3.503   4.060  19.337  0.00  0.00    +0.000 A 
ATOM      7  C   UNL     1       4.815   3.625  19.070  0.00  0.00    +0.000 A 
ATOM      8  C   UNL     1       5.699   4.546  18.559  0.00  0.00    +0.000 A 
ATOM      9  C   UNL     1       5.290   5.795  18.163  0.00  0.00    +0.000 A 
ATOM     10  C   UNL     1       3.998   6.224  18.335  0.00  0.00    +0.000 A 
ATOM     11  C   UNL     1       3.129   5.403  19.076  0.00  0.00    +0.000 A 
ATOM     12  O   UNL     1       6.323   6.564  17.724  0.00  0.00    +0.000 OA
ATOM     13  C   UNL     1       7.418   5.780  18.234  0.00  0.00    +0.000 C 
ATOM     14  O   UNL     1       7.049   4.399  18.443  0.00  0.00    +0.000 OA
ATOM     15  H   UNL     1       0.424   5.503  21.066  0.00  0.00    +0.000 HD
ENDBRANCH   1   2
BRANCH   1  19
ATOM     16  C   UNL     1      -0.134  10.690  18.765  0.00  0.00    +0.000 A 
ATOM     17  C   UNL     1       0.638   9.863  17.943  0.00  0.00    +0.000 A 
ATOM     18  C   UNL     1       1.372   8.821  18.481  0.00  0.00    +0.000 A 
ATOM     19  C   UNL     1       1.360   8.558  19.861  0.00  0.00    +0.000 A 
ATOM     20  C   UNL     1       0.591   9.397  20.707  0.00  0.00    +0.000 A 
ATOM     21  C   UNL     1      -0.114  10.505  20.160  0.00  0.00    +0.000 A 
BRANCH  16  23
ATOM     22  C   UNL     1      -2.218  11.334  17.837  0.00  0.00    +0.000 C 
ATOM     23  O   UNL     1      -0.892  11.694  18.222  0.00  0.00    +0.000 OA
ENDBRANCH  16  23
BRANCH  20  24
ATOM     24  C   UNL     1       0.445   9.056  22.165  0.00  0.00    +0.000 C 
ATOM     25  O   UNL     1       1.272   9.331  23.018  0.00  0.00    +0.000 OA
BRANCH  24  26
ATOM     26  O   UNL     1      -0.724   8.459  22.492  0.00  0.00    +0.000 OA
ATOM     27  H   UNL     1      -1.360   9.097  22.877  0.00  0.00    +0.000 HD
ENDBRANCH  24  26
ENDBRANCH  20  24
BRANCH  21  28
ATOM     28  O   UNL     1      -0.738  11.305  21.092  0.00  0.00    +0.000 OA
ATOM     29  C   UNL     1      -0.158  12.546  21.476  0.00  0.00    +0.000 C 
ENDBRANCH  21  28
ENDBRANCH   1  19
TORSDOF 6
ENDMDL
MODEL 2
REMARK VINA RESULT:      -7.4      1.480      2.753
REMARK  Name = 
REMARK  8 active torsions:
REMARK  status: ('A' for Active; 'I' for Inactive)
REMARK    1  A    between atoms: C_1  and  O_2
REMARK    2  A    between atoms: O_2  and  C_3
REMARK    3  A    between atoms: C_6  and  C_7
REMARK    4  A    between atoms: C_7  and  C_8
REMARK    5  A    between atoms: C_21  and  C_22
REMARK    6  A    between atoms: C_22  and  O_24
REMARK    7  A    between atoms: C_25  and  O_26
REMARK    8  A    between atoms: O_26  and  C_27
REMARK                            x       y       z     vdW  Elec       q    Type
REMARK                         _______ _______ _______ _____ _____    ______ ____
ROOT
ATOM      1  C   UNL     1       2.493   7.381  19.862  0.00  0.00    +0.000 C 
ENDROOT
BRANCH   1   2
ATOM      2  C   UNL     1       1.915   6.098  19.170  0.00  0.00    +0.000 C 
ATOM      3  N   UNL     1       1.562   5.170  20.271  0.00  0.00    +0.000 NA
ATOM      4  C   UNL     1       1.262   3.814  19.831  0.00  0.00    +0.000 C 
ATOM      5  C   UNL     1       2.342   3.154  18.969  0.00  0.00    +0.000 C 
ATOM      6  C   UNL     1       3.269   4.117  18.277  0.00  0.00    +0.000 A 
ATOM      7  C   UNL     1       4.453   3.631  17.691  0.00  0.00    +0.000 A 
ATOM      8  C   UNL     1       5.289   4.546  17.095  0.00  0.00    +0.000 A 
ATOM      9  C   UNL     1       4.918   5.856  16.922  0.00  0.00    +0.000 A 
ATOM     10  C   UNL     1       3.733   6.345  17.411  0.00  0.00    +0.000 A 
ATOM     11  C   UNL     1       2.969   5.503  18.237  0.00  0.00    +0.000 A 
ATOM     12  O   UNL     1       5.901   6.602  16.348  0.00  0.00    +0.000 OA
ATOM     13  C   UNL     1       7.005   5.694  16.529  0.00  0.00    +0.000 C 
ATOM     14  O   UNL     1       6.567   4.325  16.676  0.00  0.00    +0.000 OA
ATOM     15  H   UNL     1       0.755   5.547  20.765  0.00  0.00    +0.000 HD
ENDBRANCH   1   2
BRANCH   1  19
ATOM     16  C   UNL     1      -0.404  10.314  21.211  0.00  0.00    +0.000 A 
ATOM     17  C   UNL     1       0.032   9.266  22.028  0.00  0.00    +0.000 A 
ATOM     18  C   UNL     1       0.952   8.346  21.562  0.00  0.00    +0.000 A 
ATOM     19  C   UNL     1       1.483   8.438  20.263  0.00  0.00    +0.000 A 
ATOM     20  C   UNL     1       1.040   9.489  19.421  0.00  0.00    +0.000 A 
ATOM     21  C   UNL     1       0.046  10.399  19.881  0.00  0.00    +0.000 A 
BRANCH  16  23
ATOM     22  C   UNL     1      -1.433  11.291  23.110  0.00  0.00    +0.000 C 
ATOM     23  O   UNL     1      -1.285  11.247  21.692  0.00  0.00    +0.000 OA
ENDBRANCH  16  23
BRANCH  20  24
ATOM     24  C   UNL     1       1.691   9.699  18.081  0.00  0.00    +0.000 C 
ATOM     25  O   UNL     1       1.658   8.888  17.171  0.00  0.00    +0.000 OA
BRANCH  24  26
ATOM     26  O   UNL     1       2.284  10.903  17.923  0.00  0.00    +0.000 OA
ATOM     27  H   UNL     1       3.211  10.894  18.240  0.00  0.00    +0.000 HD
ENDBRANCH  24  26
ENDBRANCH  20  24
BRANCH  21  28
ATOM     28  O   UNL     1      -0.377  11.310  18.939  0.00  0.00    +0.000 OA
ATOM     29  C   UNL     1      -1.601  11.108  18.243  0.00  0.00    +0.000 C 
ENDBRANCH  21  28
ENDBRANCH   1  19
TORSDOF 6
ENDMDL
MODEL 3
REMARK VINA RESULT:      -7.1      1.948      7.596
REMARK  Name = 
REMARK  8 active torsions:
REMARK  status: ('A' for Active; 'I' for Inactive)
REMARK    1  A    between atoms: C_1  and  O_2
REMARK    2  A    between atoms: O_2  and  C_3
REMARK    3  A    between atoms: C_6  and  C_7
REMARK    4  A    between atoms: C_7  and  C_8
REMARK    5  A    between atoms: C_21  and  C_22
REMARK    6  A    between atoms: C_22  and  O_24
REMARK    7  A    between atoms: C_25  and  O_26
REMARK    8  A    between atoms: O_26  and  C_27
REMARK                            x       y       z     vdW  Elec       q    Type
REMARK                         _______ _______ _______ _____ _____    ______ ____
ROOT
ATOM      1  C   UNL     1       1.460   7.360  18.895  0.00  0.00    +0.000 C 
ENDROOT
BRANCH   1   2
ATOM      2  C   UNL     1       1.667   8.601  19.830  0.00  0.00    +0.000 C 
ATOM      3  N   UNL     1       1.565   8.084  21.216  0.00  0.00    +0.000 NA
ATOM      4  C   UNL     1       1.457   9.123  22.231  0.00  0.00    +0.000 C 
ATOM      5  C   UNL     1       0.332  10.138  22.009  0.00  0.00    +0.000 C 
ATOM      6  C   UNL     1      -0.141  10.250  20.584  0.00  0.00    +0.000 A 
ATOM      7  C   UNL     1      -1.340  10.933  20.309  0.00  0.00    +0.000 A 
ATOM      8  C   UNL     1      -1.756  10.988  18.999  0.00  0.00    +0.000 A 
ATOM      9  C   UNL     1      -0.960  10.544  17.972  0.00  0.00    +0.000 A 
ATOM     10  C   UNL     1       0.253   9.944  18.200  0.00  0.00    +0.000 A 
ATOM     11  C   UNL     1       0.596   9.650  19.531  0.00  0.00    +0.000 A 
ATOM     12  O   UNL     1      -1.571  10.650  16.761  0.00  0.00    +0.000 OA
ATOM     13  C   UNL     1      -2.923  10.860  17.209  0.00  0.00    +0.000 C 
ATOM     14  O   UNL     1      -2.976  11.395  18.550  0.00  0.00    +0.000 OA
ATOM     15  H   UNL     1       2.385   7.512  21.409  0.00  0.00    +0.000 HD
ENDBRANCH   1   2
BRANCH   1  19
ATOM     16  C   UNL     1       5.038   5.052  18.061  0.00  0.00    +0.000 A 
ATOM     17  C   UNL     1       4.801   6.299  17.473  0.00  0.00    +0.000 A 
ATOM     18  C   UNL     1       3.645   7.004  17.758  0.00  0.00    +0.000 A 
ATOM     19  C   UNL     1       2.682   6.497  18.648  0.00  0.00    +0.000 A 
ATOM     20  C   UNL     1       2.906   5.229  19.241  0.00  0.00    +0.000 A 
ATOM     21  C   UNL     1       4.065   4.477  18.899  0.00  0.00    +0.000 A 
BRANCH  16  23
ATOM     22  C   UNL     1       7.402   5.143  17.916  0.00  0.00    +0.000 C 
ATOM     23  O   UNL     1       6.203   4.378  17.808  0.00  0.00    +0.000 OA
ENDBRANCH  16  23
BRANCH  20  24
ATOM     24  C   UNL     1       1.967   4.723  20.302  0.00  0.00    +0.000 C 
ATOM     25  O   UNL     1       0.950   4.091  20.071  0.00  0.00    +0.000 OA
BRANCH  24  26
ATOM     26  O   UNL     1       2.361   4.972  21.571  0.00  0.00    +0.000 OA
ATOM     27  H   UNL     1       1.713   4.635  22.224  0.00  0.00    +0.000 HD
ENDBRANCH  24  26
ENDBRANCH  20  24
BRANCH  21  28
ATOM     28  O   UNL     1       4.119   3.219  19.458  0.00  0.00    +0.000 OA
ATOM     29  C   UNL     1       3.711   2.081  18.708  0.00  0.00    +0.000 C 
ENDBRANCH  21  28
ENDBRANCH   1  19
TORSDOF 6
ENDMDL
MODEL 4
REMARK VINA RESULT:      -7.0      2.844      4.186
REMARK  Name = 
REMARK  8 active torsions:
REMARK  status: ('A' for Active; 'I' for Inactive)
REMARK    1  A    between atoms: C_1  and  O_2
REMARK    2  A    between atoms: O_2  and  C_3
REMARK    3  A    between atoms: C_6  and  C_7
REMARK    4  A    between atoms: C_7  and  C_8
REMARK    5  A    between atoms: C_21  and  C_22
REMARK    6  A    between atoms: C_22  and  O_24
REMARK    7  A    between atoms: C_25  and  O_26
REMARK    8  A    between atoms: O_26  and  C_27
REMARK                            x       y       z     vdW  Elec       q    Type
REMARK                         _______ _______ _______ _____ _____    ______ ____
ROOT
ATOM      1  C   UNL     1       3.358   4.709  17.895  0.00  0.00    +0.000 C 
ENDROOT
BRANCH   1   2
ATOM      2  C   UNL     1       4.816   4.370  18.362  0.00  0.00    +0.000 C 
ATOM      3  N   UNL     1       5.200   5.451  19.303  0.00  0.00    +0.000 NA
ATOM      4  C   UNL     1       6.616   5.470  19.640  0.00  0.00    +0.000 C 
ATOM      5  C   UNL     1       7.571   5.509  18.443  0.00  0.00    +0.000 C 
ATOM      6  C   UNL     1       6.982   5.005  17.153  0.00  0.00    +0.000 A 
ATOM      7  C   UNL     1       7.661   5.249  15.945  0.00  0.00    +0.000 A 
ATOM      8  C   UNL     1       7.077   4.800  14.784  0.00  0.00    +0.000 A 
ATOM      9  C   UNL     1       5.962   4.000  14.802  0.00  0.00    +0.000 A 
ATOM     10  C   UNL     1       5.319   3.675  15.970  0.00  0.00    +0.000 A 
ATOM     11  C   UNL     1       5.742   4.316  17.148  0.00  0.00    +0.000 A 
ATOM     12  O   UNL     1       5.520   3.699  13.550  0.00  0.00    +0.000 OA
ATOM     13  C   UNL     1       6.261   4.685  12.808  0.00  0.00    +0.000 C 
ATOM     14  O   UNL     1       7.445   5.122  13.512  0.00  0.00    +0.000 OA
ATOM     15  H   UNL     1       4.654   5.344  20.157  0.00  0.00    +0.000 HD
ENDBRANCH   1   2
BRANCH   1  19
ATOM     16  C   UNL     1       1.854   8.635  18.962  0.00  0.00    +0.000 A 
ATOM     17  C   UNL     1       2.532   8.397  17.762  0.00  0.00    +0.000 A 
ATOM     18  C   UNL     1       3.003   7.132  17.458  0.00  0.00    +0.000 A 
ATOM     19  C   UNL     1       2.810   6.051  18.335  0.00  0.00    +0.000 A 
ATOM     20  C   UNL     1       2.134   6.283  19.560  0.00  0.00    +0.000 A 
ATOM     21  C   UNL     1       1.704   7.597  19.899  0.00  0.00    +0.000 A 
BRANCH  16  23
ATOM     22  C   UNL     1       0.203  10.270  18.489  0.00  0.00    +0.000 C 
ATOM     23  O   UNL     1       1.353   9.880  19.239  0.00  0.00    +0.000 OA
ENDBRANCH  16  23
BRANCH  20  24
ATOM     24  C   UNL     1       1.787   5.123  20.454  0.00  0.00    +0.000 C 
ATOM     25  O   UNL     1       0.820   4.399  20.289  0.00  0.00    +0.000 OA
BRANCH  24  26
ATOM     26  O   UNL     1       2.673   4.891  21.449  0.00  0.00    +0.000 OA
ATOM     27  H   UNL     1       3.095   4.012  21.359  0.00  0.00    +0.000 HD
ENDBRANCH  24  26
ENDBRANCH  20  24
BRANCH  21  28
ATOM     28  O   UNL     1       1.155   7.714  21.157  0.00  0.00    +0.000 OA
ATOM     29  C   UNL     1       1.448   8.847  21.967  0.00  0.00    +0.000 C 
ENDBRANCH  21  28
ENDBRANCH   1  19
TORSDOF 6
ENDMDL
MODEL 5
REMARK VINA RESULT:      -6.9      1.007      1.176
REMARK  Name = 
REMARK  8 active torsions:
REMARK  status: ('A' for Active; 'I' for Inactive)
REMARK    1  A    between atoms: C_1  and  O_2
REMARK    2  A    between atoms: O_2  and  C_3
REMARK    3  A    between atoms: C_6  and  C_7
REMARK    4  A    between atoms: C_7  and  C_8
REMARK    5  A    between atoms: C_21  and  C_22
REMARK    6  A    between atoms: C_22  and  O_24
REMARK    7  A    between atoms: C_25  and  O_26
REMARK    8  A    between atoms: O_26  and  C_27
REMARK                            x       y       z     vdW  Elec       q    Type
REMARK                         _______ _______ _______ _____ _____    ______ ____
ROOT
ATOM      1  C   UNL     1       2.289   8.213  19.460  0.00  0.00    +0.000 C 
ENDROOT
BRANCH   1   2
ATOM      2  C   UNL     1       2.083   6.665  19.323  0.00  0.00    +0.000 C 
ATOM      3  N   UNL     1       1.822   6.170  20.696  0.00  0.00    +0.000 NA
ATOM      4  C   UNL     1       1.874   4.720  20.825  0.00  0.00    +0.000 C 
ATOM      5  C   UNL     1       3.159   4.064  20.309  0.00  0.00    +0.000 C 
ATOM      6  C   UNL     1       3.924   4.885  19.306  0.00  0.00    +0.000 A 
ATOM      7  C   UNL     1       5.241   4.516  18.977  0.00  0.00    +0.000 A 
ATOM      8  C   UNL     1       5.919   5.308  18.080  0.00  0.00    +0.000 A 
ATOM      9  C   UNL     1       5.292   6.322  17.398  0.00  0.00    +0.000 A 
ATOM     10  C   UNL     1       3.983   6.657  17.636  0.00  0.00    +0.000 A 
ATOM     11  C   UNL     1       3.336   6.034  18.717  0.00  0.00    +0.000 A 
ATOM     12  O   UNL     1       6.147   7.007  16.590  0.00  0.00    +0.000 OA
ATOM     13  C   UNL     1       7.395   6.534  17.130  0.00  0.00    +0.000 C 
ATOM     14  O   UNL     1       7.252   5.262  17.800  0.00  0.00    +0.000 OA
ATOM     15  H   UNL     1       0.904   6.499  20.989  0.00  0.00    +0.000 HD
ENDBRANCH   1   2
BRANCH   1  19
ATOM     16  C   UNL     1      -1.157  10.639  18.431  0.00  0.00    +0.000 A 
ATOM     17  C   UNL     1      -0.374  10.006  17.460  0.00  0.00    +0.000 A 
ATOM     18  C   UNL     1       0.722   9.245  17.825  0.00  0.00    +0.000 A 
ATOM     19  C   UNL     1       1.077   9.077  19.175  0.00  0.00    +0.000 A 
ATOM     20  C   UNL     1       0.298   9.724  20.168  0.00  0.00    +0.000 A 
ATOM     21  C   UNL     1      -0.792  10.557  19.787  0.00  0.00    +0.000 A 
BRANCH  16  23
ATOM     22  C   UNL     1      -2.747  11.130  16.743  0.00  0.00    +0.000 C 
ATOM     23  O   UNL     1      -2.265  11.357  18.067  0.00  0.00    +0.000 OA
ENDBRANCH  16  23
BRANCH  20  24
ATOM     24  C   UNL     1       0.565   9.452  21.623  0.00  0.00    +0.000 C 
ATOM     25  O   UNL     1       0.182   8.456  22.214  0.00  0.00    +0.000 OA
BRANCH  24  26
ATOM     26  O   UNL     1       1.329  10.381  22.241  0.00  0.00    +0.000 OA
ATOM     27  H   UNL     1       0.840  10.827  22.964  0.00  0.00    +0.000 HD
ENDBRANCH  24  26
ENDBRANCH  20  24
BRANCH  21  28
ATOM     28  O   UNL     1      -1.405  11.212  20.832  0.00  0.00    +0.000 OA
ATOM     29  C   UNL     1      -1.154  12.593  21.062  0.00  0.00    +0.000 C 
ENDBRANCH  21  28
ENDBRANCH   1  19
TORSDOF 6
ENDMDL
MODEL 6
REMARK VINA RESULT:      -6.9      2.200      7.837
REMARK  Name = 
REMARK  8 active torsions:
REMARK  status: ('A' for Active; 'I' for Inactive)
REMARK    1  A    between atoms: C_1  and  O_2
REMARK    2  A    between atoms: O_2  and  C_3
REMARK    3  A    between atoms: C_6  and  C_7
REMARK    4  A    between atoms: C_7  and  C_8
REMARK    5  A    between atoms: C_21  and  C_22
REMARK    6  A    between atoms: C_22  and  O_24
REMARK    7  A    between atoms: C_25  and  O_26
REMARK    8  A    between atoms: O_26  and  C_27
REMARK                            x       y       z     vdW  Elec       q    Type
REMARK                         _______ _______ _______ _____ _____    ______ ____
ROOT
ATOM      1  C   UNL     1       1.006  10.220  19.034  0.00  0.00    +0.000 C 
ENDROOT
BRANCH   1   2
ATOM      2  C   UNL     1      -0.559  10.151  18.959  0.00  0.00    +0.000 C 
ATOM      3  N   UNL     1      -0.908  10.422  17.543  0.00  0.00    +0.000 NA
ATOM      4  C   UNL     1      -2.325  10.674  17.318  0.00  0.00    +0.000 C 
ATOM      5  C   UNL     1      -2.938  11.775  18.188  0.00  0.00    +0.000 C 
ATOM      6  C   UNL     1      -2.186  12.064  19.459  0.00  0.00    +0.000 A 
ATOM      7  C   UNL     1      -2.491  13.228  20.190  0.00  0.00    +0.000 A 
ATOM      8  C   UNL     1      -1.762  13.474  21.329  0.00  0.00    +0.000 A 
ATOM      9  C   UNL     1      -0.885  12.547  21.837  0.00  0.00    +0.000 A 
ATOM     10  C   UNL     1      -0.623  11.365  21.191  0.00  0.00    +0.000 A 
ATOM     11  C   UNL     1      -1.162  11.190  19.904  0.00  0.00    +0.000 A 
ATOM     12  O   UNL     1      -0.237  13.000  22.945  0.00  0.00    +0.000 OA
ATOM     13  C   UNL     1      -0.549  14.401  22.830  0.00  0.00    +0.000 C 
ATOM     14  O   UNL     1      -1.740  14.632  22.046  0.00  0.00    +0.000 OA
ATOM     15  H   UNL     1      -0.616   9.625  16.981  0.00  0.00    +0.000 HD
ENDBRANCH   1   2
BRANCH   1  19
ATOM     16  C   UNL     1       3.183   6.493  18.597  0.00  0.00    +0.000 A 
ATOM     17  C   UNL     1       3.182   7.477  17.603  0.00  0.00    +0.000 A 
ATOM     18  C   UNL     1       2.471   8.651  17.775  0.00  0.00    +0.000 A 
ATOM     19  C   UNL     1       1.738   8.895  18.949  0.00  0.00    +0.000 A 
ATOM     20  C   UNL     1       1.722   7.900  19.959  0.00  0.00    +0.000 A 
ATOM     21  C   UNL     1       2.403   6.667  19.755  0.00  0.00    +0.000 A 
BRANCH  16  23
ATOM     22  C   UNL     1       5.318   5.539  18.211  0.00  0.00    +0.000 C 
ATOM     23  O   UNL     1       3.923   5.351  18.439  0.00  0.00    +0.000 OA
ENDBRANCH  16  23
BRANCH  20  24
ATOM     24  C   UNL     1       1.066   8.187  21.282  0.00  0.00    +0.000 C 
ATOM     25  O   UNL     1      -0.111   7.975  21.522  0.00  0.00    +0.000 OA
BRANCH  24  26
ATOM     26  O   UNL     1       1.900   8.657  22.236  0.00  0.00    +0.000 OA
ATOM     27  H   UNL     1       2.183   7.947  22.850  0.00  0.00    +0.000 HD
ENDBRANCH  24  26
ENDBRANCH  20  24
BRANCH  21  28
ATOM     28  O   UNL     1       2.228   5.741  20.760  0.00  0.00    +0.000 OA
ATOM     29  C   UNL     1       1.360   4.630  20.570  0.00  0.00    +0.000 C 
ENDBRANCH  21  28
ENDBRANCH   1  19
TORSDOF 6
ENDMDL
MODEL 7
REMARK VINA RESULT:      -6.8      2.500      3.515
REMARK  Name = 
REMARK  8 active torsions:
REMARK  status: ('A' for Active; 'I' for Inactive)
REMARK    1  A    between atoms: C_1  and  O_2
REMARK    2  A    between atoms: O_2  and  C_3
REMARK    3  A    between atoms: C_6  and  C_7
REMARK    4  A    between atoms: C_7  and  C_8
REMARK    5  A    between atoms: C_21  and  C_22
REMARK    6  A    between atoms: C_22  and  O_24
REMARK    7  A    between atoms: C_25  and  O_26
REMARK    8  A    between atoms: O_26  and  C_27
REMARK                            x       y       z     vdW  Elec       q    Type
REMARK                         _______ _______ _______ _____ _____    ______ ____
ROOT
ATOM      1  C   UNL     1       1.696   7.938  18.344  0.00  0.00    +0.000 C 
ENDROOT
BRANCH   1   2
ATOM      2  C   UNL     1       3.145   7.356  18.496  0.00  0.00    +0.000 C 
ATOM      3  N   UNL     1       3.862   7.730  17.252  0.00  0.00    +0.000 NA
ATOM      4  C   UNL     1       5.138   7.051  17.076  0.00  0.00    +0.000 C 
ATOM      5  C   UNL     1       5.082   5.523  17.162  0.00  0.00    +0.000 C 
ATOM      6  C   UNL     1       3.894   4.979  17.909  0.00  0.00    +0.000 A 
ATOM      7  C   UNL     1       3.590   3.608  17.816  0.00  0.00    +0.000 A 
ATOM      8  C   UNL     1       2.480   3.154  18.488  0.00  0.00    +0.000 A 
ATOM      9  C   UNL     1       1.783   3.960  19.353  0.00  0.00    +0.000 A 
ATOM     10  C   UNL     1       2.101   5.283  19.530  0.00  0.00    +0.000 A 
ATOM     11  C   UNL     1       3.071   5.841  18.678  0.00  0.00    +0.000 A 
ATOM     12  O   UNL     1       0.697   3.333  19.884  0.00  0.00    +0.000 OA
ATOM     13  C   UNL     1       0.620   2.215  18.980  0.00  0.00    +0.000 C 
ATOM     14  O   UNL     1       1.889   1.934  18.351  0.00  0.00    +0.000 OA
ATOM     15  H   UNL     1       4.016   8.736  17.258  0.00  0.00    +0.000 HD
ENDBRANCH   1   2
BRANCH   1  19
ATOM     16  C   UNL     1       1.097  12.001  19.739  0.00  0.00    +0.000 A 
ATOM     17  C   UNL     1       1.493  11.713  18.429  0.00  0.00    +0.000 A 
ATOM     18  C   UNL     1       1.680  10.405  18.021  0.00  0.00    +0.000 A 
ATOM     19  C   UNL     1       1.472   9.329  18.902  0.00  0.00    +0.000 A 
ATOM     20  C   UNL     1       1.082   9.609  20.235  0.00  0.00    +0.000 A 
ATOM     21  C   UNL     1       0.950  10.958  20.671  0.00  0.00    +0.000 A 
BRANCH  16  23
ATOM     22  C   UNL     1       0.019  14.061  19.276  0.00  0.00    +0.000 C 
ATOM     23  O   UNL     1       0.872  13.296  20.126  0.00  0.00    +0.000 OA
ENDBRANCH  16  23
BRANCH  20  24
ATOM     24  C   UNL     1       0.715   8.480  21.160  0.00  0.00    +0.000 C 
ATOM     25  O   UNL     1      -0.410   8.021  21.266  0.00  0.00    +0.000 OA
BRANCH  24  26
ATOM     26  O   UNL     1       1.753   7.951  21.846  0.00  0.00    +0.000 OA
ATOM     27  H   UNL     1       1.763   8.254  22.777  0.00  0.00    +0.000 HD
ENDBRANCH  24  26
ENDBRANCH  20  24
BRANCH  21  28
ATOM     28  O   UNL     1       0.669  11.103  22.012  0.00  0.00    +0.000 OA
ATOM     29  C   UNL     1      -0.655  11.402  22.440  0.00  0.00    +0.000 C 
ENDBRANCH  21  28
ENDBRANCH   1  19
TORSDOF 6
ENDMDL
MODEL 8
REMARK VINA RESULT:      -6.8      1.462      1.591
REMARK  Name = 
REMARK  8 active torsions:
REMARK  status: ('A' for Active; 'I' for Inactive)
REMARK    1  A    between atoms: C_1  and  O_2
REMARK    2  A    between atoms: O_2  and  C_3
REMARK    3  A    between atoms: C_6  and  C_7
REMARK    4  A    between atoms: C_7  and  C_8
REMARK    5  A    between atoms: C_21  and  C_22
REMARK    6  A    between atoms: C_22  and  O_24
REMARK    7  A    between atoms: C_25  and  O_26
REMARK    8  A    between atoms: O_26  and  C_27
REMARK                            x       y       z     vdW  Elec       q    Type
REMARK                         _______ _______ _______ _____ _____    ______ ____
ROOT
ATOM      1  C   UNL     1       2.315   7.098  19.580  0.00  0.00    +0.000 C 
ENDROOT
BRANCH   1   2
ATOM      2  C   UNL     1       2.125   6.074  18.407  0.00  0.00    +0.000 C 
ATOM      3  N   UNL     1       1.627   4.827  19.037  0.00  0.00    +0.000 NA
ATOM      4  C   UNL     1       1.645   3.668  18.156  0.00  0.00    +0.000 C 
ATOM      5  C   UNL     1       2.996   3.371  17.497  0.00  0.00    +0.000 C 
ATOM      6  C   UNL     1       3.929   4.550  17.417  0.00  0.00    +0.000 A 
ATOM      7  C   UNL     1       5.281   4.336  17.091  0.00  0.00    +0.000 A 
ATOM      8  C   UNL     1       6.109   5.433  17.059  0.00  0.00    +0.000 A 
ATOM      9  C   UNL     1       5.617   6.710  17.172  0.00  0.00    +0.000 A 
ATOM     10  C   UNL     1       4.289   6.958  17.411  0.00  0.00    +0.000 A 
ATOM     11  C   UNL     1       3.459   5.859  17.695  0.00  0.00    +0.000 A 
ATOM     12  O   UNL     1       6.603   7.648  17.155  0.00  0.00    +0.000 OA
ATOM     13  C   UNL     1       7.736   6.788  17.381  0.00  0.00    +0.000 C 
ATOM     14  O   UNL     1       7.470   5.422  16.989  0.00  0.00    +0.000 OA
ATOM     15  H   UNL     1       0.674   4.987  19.360  0.00  0.00    +0.000 HD
ENDBRANCH   1   2
BRANCH   1  19
ATOM     16  C   UNL     1       0.770  11.059  18.719  0.00  0.00    +0.000 A 
ATOM     17  C   UNL     1       1.457  10.303  17.764  0.00  0.00    +0.000 A 
ATOM     18  C   UNL     1       1.941   9.045  18.076  0.00  0.00    +0.000 A 
ATOM     19  C   UNL     1       1.752   8.487  19.352  0.00  0.00    +0.000 A 
ATOM     20  C   UNL     1       1.068   9.249  20.333  0.00  0.00    +0.000 A 
ATOM     21  C   UNL     1       0.625  10.567  20.029  0.00  0.00    +0.000 A 
BRANCH  16  23
ATOM     22  C   UNL     1       1.165  13.383  18.475  0.00  0.00    +0.000 C 
ATOM     23  O   UNL     1       0.257  12.286  18.392  0.00  0.00    +0.000 OA
ENDBRANCH  16  23
BRANCH  20  24
ATOM     24  C   UNL     1       0.727   8.627  21.659  0.00  0.00    +0.000 C 
ATOM     25  O   UNL     1       1.452   8.665  22.639  0.00  0.00    +0.000 OA
BRANCH  24  26
ATOM     26  O   UNL     1      -0.497   8.054  21.717  0.00  0.00    +0.000 OA
ATOM     27  H   UNL     1      -1.172   8.678  22.056  0.00  0.00    +0.000 HD
ENDBRANCH  24  26
ENDBRANCH  20  24
BRANCH  21  28
ATOM     28  O   UNL     1       0.068  11.244  21.092  0.00  0.00    +0.000 OA
ATOM     29  C   UNL     1      -1.318  11.564  21.092  0.00  0.00    +0.000 C 
ENDBRANCH  21  28
ENDBRANCH   1  19
TORSDOF 6
ENDMDL
MODEL 9
REMARK VINA RESULT:      -6.7      2.371      4.100
REMARK  Name = 
REMARK  8 active torsions:
REMARK  status: ('A' for Active; 'I' for Inactive)
REMARK    1  A    between atoms: C_1  and  O_2
REMARK    2  A    between atoms: O_2  and  C_3
REMARK    3  A    between atoms: C_6  and  C_7
REMARK    4  A    between atoms: C_7  and  C_8
REMARK    5  A    between atoms: C_21  and  C_22
REMARK    6  A    between atoms: C_22  and  O_24
REMARK    7  A    between atoms: C_25  and  O_26
REMARK    8  A    between atoms: O_26  and  C_27
REMARK                            x       y       z     vdW  Elec       q    Type
REMARK                         _______ _______ _______ _____ _____    ______ ____
ROOT
ATOM      1  C   UNL     1       1.944   7.848  18.360  0.00  0.00    +0.000 C 
ENDROOT
BRANCH   1   2
ATOM      2  C   UNL     1       3.370   7.207  18.472  0.00  0.00    +0.000 C 
ATOM      3  N   UNL     1       4.090   7.604  17.237  0.00  0.00    +0.000 NA
ATOM      4  C   UNL     1       5.338   6.885  17.020  0.00  0.00    +0.000 C 
ATOM      5  C   UNL     1       5.224   5.358  17.044  0.00  0.00    +0.000 C 
ATOM      6  C   UNL     1       4.023   4.829  17.781  0.00  0.00    +0.000 A 
ATOM      7  C   UNL     1       3.666   3.476  17.635  0.00  0.00    +0.000 A 
ATOM      8  C   UNL     1       2.545   3.037  18.299  0.00  0.00    +0.000 A 
ATOM      9  C   UNL     1       1.888   3.832  19.205  0.00  0.00    +0.000 A 
ATOM     10  C   UNL     1       2.258   5.133  19.432  0.00  0.00    +0.000 A 
ATOM     11  C   UNL     1       3.240   5.689  18.594  0.00  0.00    +0.000 A 
ATOM     12  O   UNL     1       0.784   3.225  19.721  0.00  0.00    +0.000 OA
ATOM     13  C   UNL     1       0.656   2.149  18.772  0.00  0.00    +0.000 C 
ATOM     14  O   UNL     1       1.908   1.846  18.119  0.00  0.00    +0.000 OA
ATOM     15  H   UNL     1       4.283   8.603  17.283  0.00  0.00    +0.000 HD
ENDBRANCH   1   2
BRANCH   1  19
ATOM     16  C   UNL     1       0.584   9.845  21.963  0.00  0.00    +0.000 A 
ATOM     17  C   UNL     1       0.972   8.502  21.956  0.00  0.00    +0.000 A 
ATOM     18  C   UNL     1       1.395   7.896  20.786  0.00  0.00    +0.000 A 
ATOM     19  C   UNL     1       1.455   8.609  19.576  0.00  0.00    +0.000 A 
ATOM     20  C   UNL     1       1.052   9.968  19.568  0.00  0.00    +0.000 A 
ATOM     21  C   UNL     1       0.559  10.573  20.758  0.00  0.00    +0.000 A 
BRANCH  16  23
ATOM     22  C   UNL     1      -1.196  10.658  23.300  0.00  0.00    +0.000 C 
ATOM     23  O   UNL     1       0.205  10.451  23.131  0.00  0.00    +0.000 OA
ENDBRANCH  16  23
BRANCH  20  24
ATOM     24  C   UNL     1       1.238  10.796  18.325  0.00  0.00    +0.000 C 
ATOM     25  O   UNL     1       2.324  11.088  17.854  0.00  0.00    +0.000 OA
BRANCH  24  26
ATOM     26  O   UNL     1       0.090  11.160  17.711  0.00  0.00    +0.000 OA
ATOM     27  H   UNL     1      -0.654  11.224  18.345  0.00  0.00    +0.000 HD
ENDBRANCH  24  26
ENDBRANCH  20  24
BRANCH  21  28
ATOM     28  O   UNL     1       0.102  11.863  20.601  0.00  0.00    +0.000 OA
ATOM     29  C   UNL     1       0.917  12.965  20.981  0.00  0.00    +0.000 C 
ENDBRANCH  21  28
ENDBRANCH   1  19
TORSDOF 6
ENDMDL
