MODEL 1
REMARK VINA RESULT:      -8.0      0.000      0.000
REMARK  Name = 
REMARK  7 active torsions:
REMARK  status: ('A' for Active; 'I' for Inactive)
REMARK    1  A    between atoms: N_8  and  C_9
REMARK    2  A    between atoms: C_9  and  C_10
REMARK    3  A    between atoms: C_10  and  C_11
REMARK    4  A    between atoms: C_11  and  C_12
REMARK    5  A    between atoms: C_12  and  C_13
REMARK    6  A    between atoms: C_13  and  C_14
REMARK    7  A    between atoms: C_14  and  N_15
REMARK                            x       y       z     vdW  Elec       q    Type
REMARK                         _______ _______ _______ _____ _____    ______ ____
ROOT
ATOM      1  C   UNL     1       1.095   4.088  20.464  0.00  0.00    +0.000 C 
ENDROOT
BRANCH   1   2
ATOM      2  C   UNL     1       2.458   4.758  20.612  0.00  0.00    +0.000 C 
BRANCH   2   3
ATOM      3  C   UNL     1       2.554   6.078  19.859  0.00  0.00    +0.000 C 
BRANCH   3  11
ATOM      4  N   UNL     1      -1.037  10.156  23.422  0.00  0.00    +0.000 N 
ATOM      5  C   UNL     1      -0.182   9.978  22.419  0.00  0.00    +0.000 A 
ATOM      6  N   UNL     1       0.272  11.086  21.778  0.00  0.00    +0.000 NA
ATOM      7  C   UNL     1       0.992  10.587  20.804  0.00  0.00    +0.000 A 
ATOM      8  N   UNL     1       0.970   9.224  20.858  0.00  0.00    +0.000 N 
ATOM      9  C   UNL     1       1.583   8.339  19.971  0.00  0.00    +0.000 C 
ATOM     10  O   UNL     1       1.887   8.708  18.847  0.00  0.00    +0.000 OA
ATOM     11  N   UNL     1       1.825   7.117  20.553  0.00  0.00    +0.000 N 
ATOM     12  N   UNL     1       0.250   8.812  21.944  0.00  0.00    +0.000 NA
ATOM     13  H   UNL     1      -1.430  11.087  23.499  0.00  0.00    +0.000 HD
ATOM     14  H   UNL     1      -1.706   9.417  23.599  0.00  0.00    +0.000 HD
ATOM     15  H   UNL     1       1.566   6.994  21.531  0.00  0.00    +0.000 HD
ENDBRANCH   3  11
ENDBRANCH   2   3
ENDBRANCH   1   2
BRANCH   1  16
ATOM     16  C   UNL     1       1.075   2.864  19.534  0.00  0.00    +0.000 C 
BRANCH  16  17
ATOM     17  C   UNL     1       1.881   3.007  18.244  0.00  0.00    +0.000 C 
BRANCH  17  18
ATOM     18  C   UNL     1       3.223   2.296  18.301  0.00  0.00    +0.000 C 
BRANCH  18  19
ATOM     19  N   UNL     1       4.214   3.036  17.564  0.00  0.00    +0.000 N 
ATOM     20  C   UNL     1       5.199   3.753  18.210  0.00  0.00    +0.000 C 
ATOM     21  O   UNL     1       5.402   3.846  19.412  0.00  0.00    +0.000 OA
ATOM     22  N   UNL     1       5.979   4.494  17.312  0.00  0.00    +0.000 N 
ATOM     23  C   UNL     1       6.744   5.590  17.599  0.00  0.00    +0.000 A 
ATOM     24  N   UNL     1       7.355   6.005  16.514  0.00  0.00    +0.000 NA
ATOM     25  C   UNL     1       6.932   5.123  15.572  0.00  0.00    +0.000 A 
ATOM     26  N   UNL     1       7.448   5.235  14.352  0.00  0.00    +0.000 N 
ATOM     27  N   UNL     1       6.059   4.205  15.981  0.00  0.00    +0.000 NA
ATOM     28  H   UNL     1       4.153   3.132  16.553  0.00  0.00    +0.000 HD
ATOM     29  H   UNL     1       8.255   5.841  14.272  0.00  0.00    +0.000 HD
ATOM     30  H   UNL     1       7.509   4.395  13.793  0.00  0.00    +0.000 HD
ENDBRANCH  18  19
ENDBRANCH  17  18
ENDBRANCH  16  17
ENDBRANCH   1  16
TORSDOF 7
ENDMDL
MODEL 2
REMARK VINA RESULT:      -7.7      1.251      1.742
REMARK  Name = 
REMARK  7 active torsions:
REMARK  status: ('A' for Active; 'I' for Inactive)
REMARK    1  A    between atoms: N_8  and  C_9
REMARK    2  A    between atoms: C_9  and  C_10
REMARK    3  A    between atoms: C_10  and  C_11
REMARK    4  A    between atoms: C_11  and  C_12
REMARK    5  A    between atoms: C_12  and  C_13
REMARK    6  A    between atoms: C_13  and  C_14
REMARK    7  A    between atoms: C_14  and  N_15
REMARK                            x       y       z     vdW  Elec       q    Type
REMARK                         _______ _______ _______ _____ _____    ______ ____
ROOT
ATOM      1  C   UNL     1       1.663   3.712  20.877  0.00  0.00    +0.000 C 
ENDROOT
BRANCH   1   2
ATOM      2  C   UNL     1       2.759   4.773  20.941  0.00  0.00    +0.000 C 
BRANCH   2   3
ATOM      3  C   UNL     1       2.516   5.932  19.983  0.00  0.00    +0.000 C 
BRANCH   3  11
ATOM      4  N   UNL     1      -1.053  10.153  23.400  0.00  0.00    +0.000 N 
ATOM      5  C   UNL     1      -0.180   9.938  22.420  0.00  0.00    +0.000 A 
ATOM      6  N   UNL     1       0.317  11.024  21.775  0.00  0.00    +0.000 NA
ATOM      7  C   UNL     1       1.047  10.493  20.825  0.00  0.00    +0.000 A 
ATOM      8  N   UNL     1       0.989   9.132  20.899  0.00  0.00    +0.000 N 
ATOM      9  C   UNL     1       1.600   8.218  20.039  0.00  0.00    +0.000 C 
ATOM     10  O   UNL     1       1.940   8.562  18.918  0.00  0.00    +0.000 OA
ATOM     11  N   UNL     1       1.798   7.000  20.645  0.00  0.00    +0.000 N 
ATOM     12  N   UNL     1       0.234   8.754  21.973  0.00  0.00    +0.000 NA
ATOM     13  H   UNL     1      -1.424  11.094  23.454  0.00  0.00    +0.000 HD
ATOM     14  H   UNL     1      -1.744   9.433  23.571  0.00  0.00    +0.000 HD
ATOM     15  H   UNL     1       1.513   6.898  21.618  0.00  0.00    +0.000 HD
ENDBRANCH   3  11
ENDBRANCH   2   3
ENDBRANCH   1   2
BRANCH   1  16
ATOM     16  C   UNL     1       1.388   3.151  19.473  0.00  0.00    +0.000 C 
BRANCH  16  17
ATOM     17  C   UNL     1       2.171   1.890  19.106  0.00  0.00    +0.000 C 
BRANCH  17  18
ATOM     18  C   UNL     1       3.040   2.070  17.872  0.00  0.00    +0.000 C 
BRANCH  18  19
ATOM     19  N   UNL     1       4.172   2.906  18.174  0.00  0.00    +0.000 N 
ATOM     20  C   UNL     1       4.645   3.827  17.262  0.00  0.00    +0.000 C 
ATOM     21  O   UNL     1       4.201   4.092  16.155  0.00  0.00    +0.000 OA
ATOM     22  N   UNL     1       5.822   4.443  17.707  0.00  0.00    +0.000 N 
ATOM     23  C   UNL     1       6.761   5.074  16.939  0.00  0.00    +0.000 A 
ATOM     24  N   UNL     1       7.714   5.554  17.701  0.00  0.00    +0.000 NA
ATOM     25  C   UNL     1       7.316   5.192  18.948  0.00  0.00    +0.000 A 
ATOM     26  N   UNL     1       8.053   5.610  19.973  0.00  0.00    +0.000 N 
ATOM     27  N   UNL     1       6.197   4.476  19.019  0.00  0.00    +0.000 NA
ATOM     28  H   UNL     1       4.715   2.768  19.023  0.00  0.00    +0.000 HD
ATOM     29  H   UNL     1       8.739   6.323  19.756  0.00  0.00    +0.000 HD
ATOM     30  H   UNL     1       7.586   5.746  20.859  0.00  0.00    +0.000 HD
ENDBRANCH  18  19
ENDBRANCH  17  18
ENDBRANCH  16  17
ENDBRANCH   1  16
TORSDOF 7
ENDMDL
MODEL 3
REMARK VINA RESULT:      -7.6      0.959      1.216
REMARK  Name = 
REMARK  7 active torsions:
REMARK  status: ('A' for Active; 'I' for Inactive)
REMARK    1  A    between atoms: N_8  and  C_9
REMARK    2  A    between atoms: C_9  and  C_10
REMARK    3  A    between atoms: C_10  and  C_11
REMARK    4  A    between atoms: C_11  and  C_12
REMARK    5  A    between atoms: C_12  and  C_13
REMARK    6  A    between atoms: C_13  and  C_14
REMARK    7  A    between atoms: C_14  and  N_15
REMARK                            x       y       z     vdW  Elec       q    Type
REMARK                         _______ _______ _______ _____ _____    ______ ____
ROOT
ATOM      1  C   UNL     1       1.575   3.764  19.252  0.00  0.00    +0.000 C 
ENDROOT
BRANCH   1   2
ATOM      2  C   UNL     1       1.236   4.652  20.447  0.00  0.00    +0.000 C 
BRANCH   2   3
ATOM      3  C   UNL     1       2.229   5.791  20.637  0.00  0.00    +0.000 C 
BRANCH   3  11
ATOM      4  N   UNL     1      -1.200  10.646  23.264  0.00  0.00    +0.000 N 
ATOM      5  C   UNL     1      -0.292  10.249  22.378  0.00  0.00    +0.000 A 
ATOM      6  N   UNL     1       0.320  11.207  21.636  0.00  0.00    +0.000 NA
ATOM      7  C   UNL     1       1.060  10.510  20.809  0.00  0.00    +0.000 A 
ATOM      8  N   UNL     1       0.897   9.177  21.047  0.00  0.00    +0.000 N 
ATOM      9  C   UNL     1       1.485   8.122  20.349  0.00  0.00    +0.000 C 
ATOM     10  O   UNL     1       1.912   8.295  19.218  0.00  0.00    +0.000 OA
ATOM     11  N   UNL     1       1.556   6.981  21.113  0.00  0.00    +0.000 N 
ATOM     12  N   UNL     1       0.056   8.993  22.109  0.00  0.00    +0.000 NA
ATOM     13  H   UNL     1      -1.502  11.609  23.177  0.00  0.00    +0.000 HD
ATOM     14  H   UNL     1      -1.951  10.003  23.479  0.00  0.00    +0.000 HD
ATOM     15  H   UNL     1       1.211   7.025  22.070  0.00  0.00    +0.000 HD
ENDBRANCH   3  11
ENDBRANCH   2   3
ENDBRANCH   1   2
BRANCH   1  16
ATOM     16  C   UNL     1       2.015   2.336  19.614  0.00  0.00    +0.000 C 
BRANCH  16  17
ATOM     17  C   UNL     1       3.463   1.989  19.271  0.00  0.00    +0.000 C 
BRANCH  17  18
ATOM     18  C   UNL     1       4.385   3.198  19.300  0.00  0.00    +0.000 C 
BRANCH  18  19
ATOM     19  N   UNL     1       4.952   3.427  17.997  0.00  0.00    +0.000 N 
ATOM     20  C   UNL     1       6.097   4.180  17.838  0.00  0.00    +0.000 C 
ATOM     21  O   UNL     1       6.784   4.705  18.702  0.00  0.00    +0.000 OA
ATOM     22  N   UNL     1       6.406   4.381  16.486  0.00  0.00    +0.000 N 
ATOM     23  C   UNL     1       7.188   5.369  15.959  0.00  0.00    +0.000 A 
ATOM     24  N   UNL     1       7.275   5.227  14.657  0.00  0.00    +0.000 NA
ATOM     25  C   UNL     1       6.520   4.122  14.423  0.00  0.00    +0.000 A 
ATOM     26  N   UNL     1       6.472   3.665  13.176  0.00  0.00    +0.000 N 
ATOM     27  N   UNL     1       5.927   3.584  15.486  0.00  0.00    +0.000 NA
ATOM     28  H   UNL     1       4.470   3.128  17.154  0.00  0.00    +0.000 HD
ATOM     29  H   UNL     1       7.153   4.060  12.539  0.00  0.00    +0.000 HD
ATOM     30  H   UNL     1       6.316   2.674  13.047  0.00  0.00    +0.000 HD
ENDBRANCH  18  19
ENDBRANCH  17  18
ENDBRANCH  16  17
ENDBRANCH   1  16
TORSDOF 7
ENDMDL
MODEL 4
REMARK VINA RESULT:      -7.5      1.006      7.445
REMARK  Name = 
REMARK  7 active torsions:
REMARK  status: ('A' for Active; 'I' for Inactive)
REMARK    1  A    between atoms: N_8  and  C_9
REMARK    2  A    between atoms: C_9  and  C_10
REMARK    3  A    between atoms: C_10  and  C_11
REMARK    4  A    between atoms: C_11  and  C_12
REMARK    5  A    between atoms: C_12  and  C_13
REMARK    6  A    between atoms: C_13  and  C_14
REMARK    7  A    between atoms: C_14  and  N_15
REMARK                            x       y       z     vdW  Elec       q    Type
REMARK                         _______ _______ _______ _____ _____    ______ ____
ROOT
ATOM      1  C   UNL     1       1.038   3.290  18.864  0.00  0.00    +0.000 C 
ENDROOT
BRANCH   1   2
ATOM      2  C   UNL     1       1.673   1.903  18.789  0.00  0.00    +0.000 C 
BRANCH   2   3
ATOM      3  C   UNL     1       3.188   1.938  18.932  0.00  0.00    +0.000 C 
BRANCH   3  11
ATOM      4  N   UNL     1       5.339   6.666  15.027  0.00  0.00    +0.000 N 
ATOM      5  C   UNL     1       5.304   6.126  16.242  0.00  0.00    +0.000 A 
ATOM      6  N   UNL     1       5.933   6.794  17.243  0.00  0.00    +0.000 NA
ATOM      7  C   UNL     1       5.812   5.979  18.262  0.00  0.00    +0.000 A 
ATOM      8  N   UNL     1       5.132   4.859  17.884  0.00  0.00    +0.000 N 
ATOM      9  C   UNL     1       4.840   3.747  18.676  0.00  0.00    +0.000 C 
ATOM     10  O   UNL     1       5.495   3.521  19.681  0.00  0.00    +0.000 OA
ATOM     11  N   UNL     1       3.745   3.061  18.208  0.00  0.00    +0.000 N 
ATOM     12  N   UNL     1       4.745   4.966  16.578  0.00  0.00    +0.000 NA
ATOM     13  H   UNL     1       5.996   7.428  14.908  0.00  0.00    +0.000 HD
ATOM     14  H   UNL     1       5.302   6.034  14.238  0.00  0.00    +0.000 HD
ATOM     15  H   UNL     1       3.267   3.425  17.385  0.00  0.00    +0.000 HD
ENDBRANCH   3  11
ENDBRANCH   2   3
ENDBRANCH   1   2
BRANCH   1  16
ATOM     16  C   UNL     1       0.790   3.810  20.290  0.00  0.00    +0.000 C 
BRANCH  16  17
ATOM     17  C   UNL     1       1.965   4.546  20.933  0.00  0.00    +0.000 C 
BRANCH  17  18
ATOM     18  C   UNL     1       2.318   5.839  20.215  0.00  0.00    +0.000 C 
BRANCH  18  19
ATOM     19  N   UNL     1       1.629   6.951  20.817  0.00  0.00    +0.000 N 
ATOM     20  C   UNL     1       1.511   8.159  20.161  0.00  0.00    +0.000 C 
ATOM     21  O   UNL     1       1.905   8.454  19.043  0.00  0.00    +0.000 OA
ATOM     22  N   UNL     1       0.916   9.136  20.971  0.00  0.00    +0.000 N 
ATOM     23  C   UNL     1       1.005  10.491  20.823  0.00  0.00    +0.000 A 
ATOM     24  N   UNL     1       0.297  11.090  21.751  0.00  0.00    +0.000 NA
ATOM     25  C   UNL     1      -0.217  10.050  22.458  0.00  0.00    +0.000 A 
ATOM     26  N   UNL     1      -1.062  10.337  23.443  0.00  0.00    +0.000 N 
ATOM     27  N   UNL     1       0.155   8.835  22.063  0.00  0.00    +0.000 NA
ATOM     28  H   UNL     1       1.302   6.908  21.778  0.00  0.00    +0.000 HD
ATOM     29  H   UNL     1      -1.404  11.290  23.464  0.00  0.00    +0.000 HD
ATOM     30  H   UNL     1      -1.763   9.645  23.673  0.00  0.00    +0.000 HD
ENDBRANCH  18  19
ENDBRANCH  17  18
ENDBRANCH  16  17
ENDBRANCH   1  16
TORSDOF 7
ENDMDL
MODEL 5
REMARK VINA RESULT:      -7.5      1.744      2.337
REMARK  Name = 
REMARK  7 active torsions:
REMARK  status: ('A' for Active; 'I' for Inactive)
REMARK    1  A    between atoms: N_8  and  C_9
REMARK    2  A    between atoms: C_9  and  C_10
REMARK    3  A    between atoms: C_10  and  C_11
REMARK    4  A    between atoms: C_11  and  C_12
REMARK    5  A    between atoms: C_12  and  C_13
REMARK    6  A    between atoms: C_13  and  C_14
REMARK    7  A    between atoms: C_14  and  N_15
REMARK                            x       y       z     vdW  Elec       q    Type
REMARK                         _______ _______ _______ _____ _____    ______ ____
ROOT
ATOM      1  C   UNL     1       2.305   2.813  20.906  0.00  0.00    +0.000 C 
ENDROOT
BRANCH   1   2
ATOM      2  C   UNL     1       2.123   4.308  21.161  0.00  0.00    +0.000 C 
BRANCH   2   3
ATOM      3  C   UNL     1       2.938   5.173  20.209  0.00  0.00    +0.000 C 
BRANCH   3  11
ATOM      4  N   UNL     1      -0.127  10.902  20.315  0.00  0.00    +0.000 N 
ATOM      5  C   UNL     1       0.742  10.092  19.718  0.00  0.00    +0.000 A 
ATOM      6  N   UNL     1       1.408  10.573  18.637  0.00  0.00    +0.000 NA
ATOM      7  C   UNL     1       2.090   9.533  18.225  0.00  0.00    +0.000 A 
ATOM      8  N   UNL     1       1.841   8.462  19.032  0.00  0.00    +0.000 N 
ATOM      9  C   UNL     1       2.348   7.170  18.893  0.00  0.00    +0.000 C 
ATOM     10  O   UNL     1       2.772   6.790  17.812  0.00  0.00    +0.000 OA
ATOM     11  N   UNL     1       2.352   6.491  20.088  0.00  0.00    +0.000 N 
ATOM     12  N   UNL     1       1.002   8.828  20.047  0.00  0.00    +0.000 NA
ATOM     13  H   UNL     1      -0.364  11.741  19.799  0.00  0.00    +0.000 HD
ATOM     14  H   UNL     1      -0.917  10.474  20.780  0.00  0.00    +0.000 HD
ATOM     15  H   UNL     1       2.022   6.981  20.917  0.00  0.00    +0.000 HD
ENDBRANCH   3  11
ENDBRANCH   2   3
ENDBRANCH   1   2
BRANCH   1  16
ATOM     16  C   UNL     1       1.460   2.248  19.753  0.00  0.00    +0.000 C 
BRANCH  16  17
ATOM     17  C   UNL     1       1.949   2.599  18.348  0.00  0.00    +0.000 C 
BRANCH  17  18
ATOM     18  C   UNL     1       3.263   1.922  17.992  0.00  0.00    +0.000 C 
BRANCH  18  19
ATOM     19  N   UNL     1       4.369   2.809  18.245  0.00  0.00    +0.000 N 
ATOM     20  C   UNL     1       4.748   3.761  17.322  0.00  0.00    +0.000 C 
ATOM     21  O   UNL     1       4.235   4.015  16.242  0.00  0.00    +0.000 OA
ATOM     22  N   UNL     1       5.917   4.429  17.712  0.00  0.00    +0.000 N 
ATOM     23  C   UNL     1       6.782   5.111  16.904  0.00  0.00    +0.000 A 
ATOM     24  N   UNL     1       7.750   5.630  17.622  0.00  0.00    +0.000 NA
ATOM     25  C   UNL     1       7.436   5.237  18.883  0.00  0.00    +0.000 A 
ATOM     26  N   UNL     1       8.205   5.681  19.873  0.00  0.00    +0.000 N 
ATOM     27  N   UNL     1       6.357   4.467  19.003  0.00  0.00    +0.000 NA
ATOM     28  H   UNL     1       4.961   2.690  19.063  0.00  0.00    +0.000 HD
ATOM     29  H   UNL     1       8.843   6.428  19.630  0.00  0.00    +0.000 HD
ATOM     30  H   UNL     1       7.778   5.785  20.784  0.00  0.00    +0.000 HD
ENDBRANCH  18  19
ENDBRANCH  17  18
ENDBRANCH  16  17
ENDBRANCH   1  16
TORSDOF 7
ENDMDL
MODEL 6
REMARK VINA RESULT:      -7.5      1.302      1.578
REMARK  Name = 
REMARK  7 active torsions:
REMARK  status: ('A' for Active; 'I' for Inactive)
REMARK    1  A    between atoms: N_8  and  C_9
REMARK    2  A    between atoms: C_9  and  C_10
REMARK    3  A    between atoms: C_10  and  C_11
REMARK    4  A    between atoms: C_11  and  C_12
REMARK    5  A    between atoms: C_12  and  C_13
REMARK    6  A    between atoms: C_13  and  C_14
REMARK    7  A    between atoms: C_14  and  N_15
REMARK                            x       y       z     vdW  Elec       q    Type
REMARK                         _______ _______ _______ _____ _____    ______ ____
ROOT
ATOM      1  C   UNL     1       1.763   3.987  17.628  0.00  0.00    +0.000 C 
ENDROOT
BRANCH   1   2
ATOM      2  C   UNL     1       1.925   4.946  18.804  0.00  0.00    +0.000 C 
BRANCH   2   3
ATOM      3  C   UNL     1       2.686   6.212  18.435  0.00  0.00    +0.000 C 
BRANCH   3  11
ATOM      4  N   UNL     1      -0.122  10.863  22.000  0.00  0.00    +0.000 N 
ATOM      5  C   UNL     1       0.554  10.525  20.906  0.00  0.00    +0.000 A 
ATOM      6  N   UNL     1       0.944  11.527  20.076  0.00  0.00    +0.000 NA
ATOM      7  C   UNL     1       1.479  10.882  19.069  0.00  0.00    +0.000 A 
ATOM      8  N   UNL     1       1.411   9.537  19.287  0.00  0.00    +0.000 N 
ATOM      9  C   UNL     1       1.838   8.525  18.426  0.00  0.00    +0.000 C 
ATOM     10  O   UNL     1       1.973   8.749  17.234  0.00  0.00    +0.000 OA
ATOM     11  N   UNL     1       2.120   7.363  19.105  0.00  0.00    +0.000 N 
ATOM     12  N   UNL     1       0.857   9.290  20.511  0.00  0.00    +0.000 NA
ATOM     13  H   UNL     1      -0.460  11.818  22.026  0.00  0.00    +0.000 HD
ATOM     14  H   UNL     1      -0.783  10.188  22.364  0.00  0.00    +0.000 HD
ATOM     15  H   UNL     1       2.016   7.364  20.119  0.00  0.00    +0.000 HD
ENDBRANCH   3  11
ENDBRANCH   2   3
ENDBRANCH   1   2
BRANCH   1  16
ATOM     16  C   UNL     1       2.743   2.802  17.621  0.00  0.00    +0.000 C 
BRANCH  16  17
ATOM     17  C   UNL     1       3.058   2.204  18.992  0.00  0.00    +0.000 C 
BRANCH  17  18
ATOM     18  C   UNL     1       4.415   2.632  19.527  0.00  0.00    +0.000 C 
BRANCH  18  19
ATOM     19  N   UNL     1       5.159   3.327  18.509  0.00  0.00    +0.000 N 
ATOM     20  C   UNL     1       5.914   4.441  18.811  0.00  0.00    +0.000 C 
ATOM     21  O   UNL     1       6.094   4.961  19.902  0.00  0.00    +0.000 OA
ATOM     22  N   UNL     1       6.454   5.032  17.659  0.00  0.00    +0.000 N 
ATOM     23  C   UNL     1       6.890   6.319  17.524  0.00  0.00    +0.000 A 
ATOM     24  N   UNL     1       7.356   6.510  16.312  0.00  0.00    +0.000 NA
ATOM     25  C   UNL     1       7.183   5.296  15.728  0.00  0.00    +0.000 A 
ATOM     26  N   UNL     1       7.640   5.142  14.489  0.00  0.00    +0.000 N 
ATOM     27  N   UNL     1       6.599   4.364  16.478  0.00  0.00    +0.000 NA
ATOM     28  H   UNL     1       5.066   3.077  17.528  0.00  0.00    +0.000 HD
ATOM     29  H   UNL     1       8.248   5.877  14.152  0.00  0.00    +0.000 HD
ATOM     30  H   UNL     1       7.924   4.212  14.209  0.00  0.00    +0.000 HD
ENDBRANCH  18  19
ENDBRANCH  17  18
ENDBRANCH  16  17
ENDBRANCH   1  16
TORSDOF 7
ENDMDL
MODEL 7
REMARK VINA RESULT:      -7.5      0.848      8.307
REMARK  Name = 
REMARK  7 active torsions:
REMARK  status: ('A' for Active; 'I' for Inactive)
REMARK    1  A    between atoms: N_8  and  C_9
REMARK    2  A    between atoms: C_9  and  C_10
REMARK    3  A    between atoms: C_10  and  C_11
REMARK    4  A    between atoms: C_11  and  C_12
REMARK    5  A    between atoms: C_12  and  C_13
REMARK    6  A    between atoms: C_13  and  C_14
REMARK    7  A    between atoms: C_14  and  N_15
REMARK                            x       y       z     vdW  Elec       q    Type
REMARK                         _______ _______ _______ _____ _____    ______ ____
ROOT
ATOM      1  C   UNL     1       1.760   2.168  19.765  0.00  0.00    +0.000 C 
ENDROOT
BRANCH   1   2
ATOM      2  C   UNL     1       2.813   2.078  18.664  0.00  0.00    +0.000 C 
BRANCH   2   3
ATOM      3  C   UNL     1       4.017   2.973  18.922  0.00  0.00    +0.000 C 
BRANCH   3  11
ATOM      4  N   UNL     1       6.631   3.811  13.032  0.00  0.00    +0.000 N 
ATOM      5  C   UNL     1       6.563   4.185  14.306  0.00  0.00    +0.000 A 
ATOM      6  N   UNL     1       7.299   5.261  14.683  0.00  0.00    +0.000 NA
ATOM      7  C   UNL     1       7.106   5.310  15.978  0.00  0.00    +0.000 A 
ATOM      8  N   UNL     1       6.281   4.295  16.365  0.00  0.00    +0.000 N 
ATOM      9  C   UNL     1       5.874   3.993  17.666  0.00  0.00    +0.000 C 
ATOM     10  O   UNL     1       6.524   4.392  18.620  0.00  0.00    +0.000 OA
ATOM     11  N   UNL     1       4.689   3.297  17.682  0.00  0.00    +0.000 N 
ATOM     12  N   UNL     1       5.873   3.583  15.273  0.00  0.00    +0.000 NA
ATOM     13  H   UNL     1       7.374   4.238  12.491  0.00  0.00    +0.000 HD
ATOM     14  H   UNL     1       6.493   2.829  12.828  0.00  0.00    +0.000 HD
ATOM     15  H   UNL     1       4.238   3.101  16.790  0.00  0.00    +0.000 HD
ENDBRANCH   3  11
ENDBRANCH   2   3
ENDBRANCH   1   2
BRANCH   1  16
ATOM     16  C   UNL     1       1.025   3.516  19.847  0.00  0.00    +0.000 C 
BRANCH  16  17
ATOM     17  C   UNL     1       1.554   4.489  20.900  0.00  0.00    +0.000 C 
BRANCH  17  18
ATOM     18  C   UNL     1       2.112   5.768  20.298  0.00  0.00    +0.000 C 
BRANCH  18  19
ATOM     19  N   UNL     1       1.459   6.917  20.869  0.00  0.00    +0.000 N 
ATOM     20  C   UNL     1       1.470   8.138  20.227  0.00  0.00    +0.000 C 
ATOM     21  O   UNL     1       1.961   8.419  19.144  0.00  0.00    +0.000 OA
ATOM     22  N   UNL     1       0.886   9.144  21.010  0.00  0.00    +0.000 N 
ATOM     23  C   UNL     1       1.077  10.492  20.891  0.00  0.00    +0.000 A 
ATOM     24  N   UNL     1       0.347  11.127  21.778  0.00  0.00    +0.000 NA
ATOM     25  C   UNL     1      -0.285  10.116  22.430  0.00  0.00    +0.000 A 
ATOM     26  N   UNL     1      -1.176  10.449  23.359  0.00  0.00    +0.000 N 
ATOM     27  N   UNL     1       0.032   8.883  22.042  0.00  0.00    +0.000 NA
ATOM     28  H   UNL     1       1.063   6.885  21.805  0.00  0.00    +0.000 HD
ATOM     29  H   UNL     1      -1.452  11.422  23.371  0.00  0.00    +0.000 HD
ATOM     30  H   UNL     1      -1.936   9.803  23.528  0.00  0.00    +0.000 HD
ENDBRANCH  18  19
ENDBRANCH  17  18
ENDBRANCH  16  17
ENDBRANCH   1  16
TORSDOF 7
ENDMDL
MODEL 8
REMARK VINA RESULT:      -7.5      1.547      2.061
REMARK  Name = 
REMARK  7 active torsions:
REMARK  status: ('A' for Active; 'I' for Inactive)
REMARK    1  A    between atoms: N_8  and  C_9
REMARK    2  A    between atoms: C_9  and  C_10
REMARK    3  A    between atoms: C_10  and  C_11
REMARK    4  A    between atoms: C_11  and  C_12
REMARK    5  A    between atoms: C_12  and  C_13
REMARK    6  A    between atoms: C_13  and  C_14
REMARK    7  A    between atoms: C_14  and  N_15
REMARK                            x       y       z     vdW  Elec       q    Type
REMARK                         _______ _______ _______ _____ _____    ______ ____
ROOT
ATOM      1  C   UNL     1       1.646   4.573  17.787  0.00  0.00    +0.000 C 
ENDROOT
BRANCH   1   2
ATOM      2  C   UNL     1       2.194   5.512  18.859  0.00  0.00    +0.000 C 
BRANCH   2   3
ATOM      3  C   UNL     1       2.940   6.705  18.276  0.00  0.00    +0.000 C 
BRANCH   3  11
ATOM      4  N   UNL     1      -0.320  12.322  18.052  0.00  0.00    +0.000 N 
ATOM      5  C   UNL     1      -0.029  11.205  18.712  0.00  0.00    +0.000 A 
ATOM      6  N   UNL     1      -0.679  10.982  19.883  0.00  0.00    +0.000 NA
ATOM      7  C   UNL     1      -0.114   9.887  20.329  0.00  0.00    +0.000 A 
ATOM      8  N   UNL     1       0.844   9.467  19.453  0.00  0.00    +0.000 N 
ATOM      9  C   UNL     1       1.687   8.364  19.597  0.00  0.00    +0.000 C 
ATOM     10  O   UNL     1       1.893   7.889  20.703  0.00  0.00    +0.000 OA
ATOM     11  N   UNL     1       2.142   7.907  18.382  0.00  0.00    +0.000 N 
ATOM     12  N   UNL     1       0.873  10.290  18.362  0.00  0.00    +0.000 NA
ATOM     13  H   UNL     1      -0.855  13.008  18.570  0.00  0.00    +0.000 HD
ATOM     14  H   UNL     1       0.410  12.725  17.478  0.00  0.00    +0.000 HD
ATOM     15  H   UNL     1       1.817   8.382  17.541  0.00  0.00    +0.000 HD
ENDBRANCH   3  11
ENDBRANCH   2   3
ENDBRANCH   1   2
BRANCH   1  16
ATOM     16  C   UNL     1       1.386   3.134  18.260  0.00  0.00    +0.000 C 
BRANCH  16  17
ATOM     17  C   UNL     1       2.429   2.103  17.829  0.00  0.00    +0.000 C 
BRANCH  17  18
ATOM     18  C   UNL     1       3.767   2.286  18.528  0.00  0.00    +0.000 C 
BRANCH  18  19
ATOM     19  N   UNL     1       4.660   3.059  17.705  0.00  0.00    +0.000 N 
ATOM     20  C   UNL     1       5.535   3.970  18.259  0.00  0.00    +0.000 C 
ATOM     21  O   UNL     1       5.711   4.228  19.440  0.00  0.00    +0.000 OA
ATOM     22  N   UNL     1       6.221   4.698  17.277  0.00  0.00    +0.000 N 
ATOM     23  C   UNL     1       6.831   5.911  17.430  0.00  0.00    +0.000 A 
ATOM     24  N   UNL     1       7.394   6.274  16.302  0.00  0.00    +0.000 NA
ATOM     25  C   UNL     1       7.101   5.241  15.471  0.00  0.00    +0.000 A 
ATOM     26  N   UNL     1       7.612   5.278  14.244  0.00  0.00    +0.000 N 
ATOM     27  N   UNL     1       6.352   4.270  15.988  0.00  0.00    +0.000 NA
ATOM     28  H   UNL     1       4.598   3.029  16.690  0.00  0.00    +0.000 HD
ATOM     29  H   UNL     1       8.332   5.972  14.090  0.00  0.00    +0.000 HD
ATOM     30  H   UNL     1       7.788   4.394  13.786  0.00  0.00    +0.000 HD
ENDBRANCH  18  19
ENDBRANCH  17  18
ENDBRANCH  16  17
ENDBRANCH   1  16
TORSDOF 7
ENDMDL
MODEL 9
REMARK VINA RESULT:      -7.5      1.179      8.359
REMARK  Name = 
REMARK  7 active torsions:
REMARK  status: ('A' for Active; 'I' for Inactive)
REMARK    1  A    between atoms: N_8  and  C_9
REMARK    2  A    between atoms: C_9  and  C_10
REMARK    3  A    between atoms: C_10  and  C_11
REMARK    4  A    between atoms: C_11  and  C_12
REMARK    5  A    between atoms: C_12  and  C_13
REMARK    6  A    between atoms: C_13  and  C_14
REMARK    7  A    between atoms: C_14  and  N_15
REMARK                            x       y       z     vdW  Elec       q    Type
REMARK                         _______ _______ _______ _____ _____    ______ ____
ROOT
ATOM      1  C   UNL     1       1.902   4.721  19.825  0.00  0.00    +0.000 C 
ENDROOT
BRANCH   1   2
ATOM      2  C   UNL     1       2.180   3.594  18.834  0.00  0.00    +0.000 C 
BRANCH   2   3
ATOM      3  C   UNL     1       3.591   3.035  18.954  0.00  0.00    +0.000 C 
BRANCH   3  11
ATOM      4  N   UNL     1       6.759   4.030  13.368  0.00  0.00    +0.000 N 
ATOM      5  C   UNL     1       6.579   4.359  14.644  0.00  0.00    +0.000 A 
ATOM      6  N   UNL     1       7.294   5.406  15.128  0.00  0.00    +0.000 NA
ATOM      7  C   UNL     1       6.981   5.413  16.400  0.00  0.00    +0.000 A 
ATOM      8  N   UNL     1       6.106   4.401  16.670  0.00  0.00    +0.000 N 
ATOM      9  C   UNL     1       5.574   4.061  17.915  0.00  0.00    +0.000 C 
ATOM     10  O   UNL     1       6.138   4.412  18.940  0.00  0.00    +0.000 OA
ATOM     11  N   UNL     1       4.381   3.389  17.794  0.00  0.00    +0.000 N 
ATOM     12  N   UNL     1       5.791   3.737  15.519  0.00  0.00    +0.000 NA
ATOM     13  H   UNL     1       7.557   4.460  12.916  0.00  0.00    +0.000 HD
ATOM     14  H   UNL     1       6.624   3.059  13.116  0.00  0.00    +0.000 HD
ATOM     15  H   UNL     1       4.013   3.234  16.858  0.00  0.00    +0.000 HD
ENDBRANCH   3  11
ENDBRANCH   2   3
ENDBRANCH   1   2
BRANCH   1  16
ATOM     16  C   UNL     1       2.691   6.016  19.566  0.00  0.00    +0.000 C 
BRANCH  16  17
ATOM     17  C   UNL     1       2.712   6.492  18.114  0.00  0.00    +0.000 C 
BRANCH  17  18
ATOM     18  C   UNL     1       2.424   7.978  17.972  0.00  0.00    +0.000 C 
BRANCH  18  19
ATOM     19  N   UNL     1       1.768   8.475  19.153  0.00  0.00    +0.000 N 
ATOM     20  C   UNL     1       1.224   9.742  19.189  0.00  0.00    +0.000 C 
ATOM     21  O   UNL     1       1.178  10.572  18.293  0.00  0.00    +0.000 OA
ATOM     22  N   UNL     1       0.746  10.069  20.466  0.00  0.00    +0.000 N 
ATOM     23  C   UNL     1       0.528  11.322  20.966  0.00  0.00    +0.000 A 
ATOM     24  N   UNL     1       0.054  11.240  22.187  0.00  0.00    +0.000 NA
ATOM     25  C   UNL     1      -0.004   9.900  22.400  0.00  0.00    +0.000 A 
ATOM     26  N   UNL     1      -0.529   9.485  23.548  0.00  0.00    +0.000 N 
ATOM     27  N   UNL     1       0.443   9.131  21.410  0.00  0.00    +0.000 NA
ATOM     28  H   UNL     1       1.778   7.947  20.022  0.00  0.00    +0.000 HD
ATOM     29  H   UNL     1      -1.018  10.189  24.087  0.00  0.00    +0.000 HD
ATOM     30  H   UNL     1      -0.978   8.578  23.555  0.00  0.00    +0.000 HD
ENDBRANCH  18  19
ENDBRANCH  17  18
ENDBRANCH  16  17
ENDBRANCH   1  16
TORSDOF 7
ENDMDL
