MODEL 1
REMARK VINA RESULT:      -6.6      0.000      0.000
REMARK  Name = 
REMARK  5 active torsions:
REMARK  status: ('A' for Active; 'I' for Inactive)
REMARK    1  A    between atoms: C_1  and  O_2
REMARK    2  A    between atoms: O_2  and  C_3
REMARK    3  A    between atoms: C_6  and  C_7
REMARK    4  A    between atoms: N_9  and  C_10
REMARK    5  A    between atoms: C_14  and  C_15
REMARK                            x       y       z     vdW  Elec       q    Type
REMARK                         _______ _______ _______ _____ _____    ______ ____
ROOT
ATOM      1  C   UNL     1       8.442   9.568  18.296  0.00  0.00    +0.000 C 
ATOM      2  O   UNL     1       7.993  10.414  17.527  0.00  0.00    +0.000 OA
ATOM      3  N   UNL     1       9.322   9.792  19.338  0.00  0.00    +0.000 N 
ATOM      4  H   UNL     1       9.870   8.999  19.659  0.00  0.00    +0.000 HD
ENDROOT
BRANCH   3   5
ATOM      5  C   UNL     1       9.764  11.045  19.684  0.00  0.00    +0.000 A 
ATOM      6  S   UNL     1       8.982  11.668  21.058  0.00  0.00    +0.000 S 
ATOM      7  C   UNL     1       9.923  13.079  21.013  0.00  0.00    +0.000 A 
ATOM      8  C   UNL     1      10.747  13.135  19.903  0.00  0.00    +0.000 A 
ATOM      9  C   UNL     1      10.669  11.923  19.117  0.00  0.00    +0.000 A 
ATOM     10  C   UNL     1      11.386  11.715  17.819  0.00  0.00    +0.000 C 
ATOM     11  C   UNL     1      11.539  14.374  19.578  0.00  0.00    +0.000 C 
ATOM     12  C   UNL     1      11.619  15.355  20.759  0.00  0.00    +0.000 C 
ATOM     13  C   UNL     1      10.278  15.487  21.495  0.00  0.00    +0.000 C 
ATOM     14  C   UNL     1       9.818  14.140  22.063  0.00  0.00    +0.000 C 
ENDBRANCH   3   5
BRANCH   1  18
ATOM     15  C   UNL     1       7.494   5.562  17.538  0.00  0.00    +0.000 A 
ATOM     16  C   UNL     1       7.977   5.870  18.796  0.00  0.00    +0.000 A 
ATOM     17  C   UNL     1       8.280   7.198  19.076  0.00  0.00    +0.000 A 
ATOM     18  C   UNL     1       8.080   8.143  18.079  0.00  0.00    +0.000 A 
ATOM     19  N   UNL     1       7.581   7.815  16.862  0.00  0.00    +0.000 NA
ATOM     20  N   UNL     1       7.289   6.506  16.591  0.00  0.00    +0.000 NA
BRANCH  15  22
ATOM     21  C   UNL     1       6.268   4.051  16.245  0.00  0.00    +0.000 C 
ATOM     22  O   UNL     1       7.235   4.233  17.277  0.00  0.00    +0.000 OA
ENDBRANCH  15  22
ENDBRANCH   1  18
TORSDOF 3
ENDMDL
MODEL 2
REMARK VINA RESULT:      -6.6      1.005      1.819
REMARK  Name = 
REMARK  5 active torsions:
REMARK  status: ('A' for Active; 'I' for Inactive)
REMARK    1  A    between atoms: C_1  and  O_2
REMARK    2  A    between atoms: O_2  and  C_3
REMARK    3  A    between atoms: C_6  and  C_7
REMARK    4  A    between atoms: N_9  and  C_10
REMARK    5  A    between atoms: C_14  and  C_15
REMARK                            x       y       z     vdW  Elec       q    Type
REMARK                         _______ _______ _______ _____ _____    ______ ____
ROOT
ATOM      1  C   UNL     1       8.369   9.528  18.210  0.00  0.00    +0.000 C 
ATOM      2  O   UNL     1       7.904  10.368  17.445  0.00  0.00    +0.000 OA
ATOM      3  N   UNL     1       9.290   9.754  19.216  0.00  0.00    +0.000 N 
ATOM      4  H   UNL     1       9.839   8.958  19.528  0.00  0.00    +0.000 HD
ENDROOT
BRANCH   3   5
ATOM      5  C   UNL     1       9.762  11.006  19.527  0.00  0.00    +0.000 A 
ATOM      6  S   UNL     1      10.906  11.578  18.409  0.00  0.00    +0.000 S 
ATOM      7  C   UNL     1      11.045  13.054  19.236  0.00  0.00    +0.000 A 
ATOM      8  C   UNL     1      10.318  13.076  20.413  0.00  0.00    +0.000 A 
ATOM      9  C   UNL     1       9.540  11.868  20.584  0.00  0.00    +0.000 A 
ATOM     10  C   UNL     1       8.712  11.567  21.794  0.00  0.00    +0.000 C 
ATOM     11  C   UNL     1      10.435  14.222  21.383  0.00  0.00    +0.000 C 
ATOM     12  C   UNL     1      11.112  15.456  20.766  0.00  0.00    +0.000 C 
ATOM     13  C   UNL     1      12.317  15.082  19.891  0.00  0.00    +0.000 C 
ATOM     14  C   UNL     1      11.901  14.172  18.729  0.00  0.00    +0.000 C 
ENDBRANCH   3   5
BRANCH   1  18
ATOM     15  C   UNL     1       7.322   5.530  17.543  0.00  0.00    +0.000 A 
ATOM     16  C   UNL     1       7.976   5.823  18.725  0.00  0.00    +0.000 A 
ATOM     17  C   UNL     1       8.316   7.148  18.976  0.00  0.00    +0.000 A 
ATOM     18  C   UNL     1       7.980   8.105  18.029  0.00  0.00    +0.000 A 
ATOM     19  N   UNL     1       7.315   7.792  16.889  0.00  0.00    +0.000 NA
ATOM     20  N   UNL     1       6.988   6.485  16.645  0.00  0.00    +0.000 NA
BRANCH  15  22
ATOM     21  C   UNL     1       6.241   4.016  16.130  0.00  0.00    +0.000 C 
ATOM     22  O   UNL     1       7.028   4.204  17.304  0.00  0.00    +0.000 OA
ENDBRANCH  15  22
ENDBRANCH   1  18
TORSDOF 3
ENDMDL
MODEL 3
REMARK VINA RESULT:      -6.5      7.659     10.355
REMARK  Name = 
REMARK  5 active torsions:
REMARK  status: ('A' for Active; 'I' for Inactive)
REMARK    1  A    between atoms: C_1  and  O_2
REMARK    2  A    between atoms: O_2  and  C_3
REMARK    3  A    between atoms: C_6  and  C_7
REMARK    4  A    between atoms: N_9  and  C_10
REMARK    5  A    between atoms: C_14  and  C_15
REMARK                            x       y       z     vdW  Elec       q    Type
REMARK                         _______ _______ _______ _____ _____    ______ ____
ROOT
ATOM      1  C   UNL     1       1.511   8.552  19.420  0.00  0.00    +0.000 C 
ATOM      2  O   UNL     1       1.312   8.937  18.270  0.00  0.00    +0.000 OA
ATOM      3  N   UNL     1       2.249   7.446  19.798  0.00  0.00    +0.000 N 
ATOM      4  H   UNL     1       2.050   7.048  20.711  0.00  0.00    +0.000 HD
ENDROOT
BRANCH   3   5
ATOM      5  C   UNL     1       2.922   6.656  18.899  0.00  0.00    +0.000 A 
ATOM      6  S   UNL     1       3.958   7.541  17.884  0.00  0.00    +0.000 S 
ATOM      7  C   UNL     1       4.494   6.126  17.117  0.00  0.00    +0.000 A 
ATOM      8  C   UNL     1       3.814   4.998  17.543  0.00  0.00    +0.000 A 
ATOM      9  C   UNL     1       2.890   5.303  18.613  0.00  0.00    +0.000 A 
ATOM     10  C   UNL     1       1.958   4.306  19.229  0.00  0.00    +0.000 C 
ATOM     11  C   UNL     1       4.012   3.665  16.871  0.00  0.00    +0.000 C 
ATOM     12  C   UNL     1       5.262   3.630  15.977  0.00  0.00    +0.000 C 
ATOM     13  C   UNL     1       5.427   4.918  15.160  0.00  0.00    +0.000 C 
ATOM     14  C   UNL     1       5.564   6.144  16.071  0.00  0.00    +0.000 C 
ENDBRANCH   3   5
BRANCH   1  18
ATOM     15  C   UNL     1      -0.384  10.710  22.464  0.00  0.00    +0.000 A 
ATOM     16  C   UNL     1      -0.484   9.332  22.511  0.00  0.00    +0.000 A 
ATOM     17  C   UNL     1       0.155   8.594  21.520  0.00  0.00    +0.000 A 
ATOM     18  C   UNL     1       0.858   9.279  20.539  0.00  0.00    +0.000 A 
ATOM     19  N   UNL     1       0.960  10.632  20.533  0.00  0.00    +0.000 NA
ATOM     20  N   UNL     1       0.325  11.353  21.509  0.00  0.00    +0.000 NA
BRANCH  15  22
ATOM     21  C   UNL     1      -1.293  12.775  23.073  0.00  0.00    +0.000 C 
ATOM     22  O   UNL     1      -1.056  11.418  23.439  0.00  0.00    +0.000 OA
ENDBRANCH  15  22
ENDBRANCH   1  18
TORSDOF 3
ENDMDL
MODEL 4
REMARK VINA RESULT:      -6.5      7.219      7.983
REMARK  Name = 
REMARK  5 active torsions:
REMARK  status: ('A' for Active; 'I' for Inactive)
REMARK    1  A    between atoms: C_1  and  O_2
REMARK    2  A    between atoms: O_2  and  C_3
REMARK    3  A    between atoms: C_6  and  C_7
REMARK    4  A    between atoms: N_9  and  C_10
REMARK    5  A    between atoms: C_14  and  C_15
REMARK                            x       y       z     vdW  Elec       q    Type
REMARK                         _______ _______ _______ _____ _____    ______ ____
ROOT
ATOM      1  C   UNL     1       4.533   6.240  17.615  0.00  0.00    +0.000 C 
ATOM      2  O   UNL     1       5.237   6.393  18.609  0.00  0.00    +0.000 OA
ATOM      3  N   UNL     1       3.211   6.624  17.478  0.00  0.00    +0.000 N 
ATOM      4  H   UNL     1       2.661   6.143  16.773  0.00  0.00    +0.000 HD
ENDROOT
BRANCH   3   5
ATOM      5  C   UNL     1       2.528   7.304  18.456  0.00  0.00    +0.000 A 
ATOM      6  S   UNL     1       2.207   8.919  18.040  0.00  0.00    +0.000 S 
ATOM      7  C   UNL     1       1.368   9.176  19.492  0.00  0.00    +0.000 A 
ATOM      8  C   UNL     1       1.424   8.085  20.341  0.00  0.00    +0.000 A 
ATOM      9  C   UNL     1       2.098   6.963  19.726  0.00  0.00    +0.000 A 
ATOM     10  C   UNL     1       2.381   5.667  20.421  0.00  0.00    +0.000 C 
ATOM     11  C   UNL     1       0.893   8.160  21.748  0.00  0.00    +0.000 C 
ATOM     12  C   UNL     1      -0.008   9.384  21.979  0.00  0.00    +0.000 C 
ATOM     13  C   UNL     1       0.552  10.650  21.315  0.00  0.00    +0.000 C 
ATOM     14  C   UNL     1       0.684  10.472  19.798  0.00  0.00    +0.000 C 
ENDBRANCH   3   5
BRANCH   1  18
ATOM     15  C   UNL     1       6.250   4.299  14.328  0.00  0.00    +0.000 A 
ATOM     16  C   UNL     1       5.652   3.505  15.288  0.00  0.00    +0.000 A 
ATOM     17  C   UNL     1       5.057   4.130  16.379  0.00  0.00    +0.000 A 
ATOM     18  C   UNL     1       5.096   5.516  16.445  0.00  0.00    +0.000 A 
ATOM     19  N   UNL     1       5.668   6.271  15.475  0.00  0.00    +0.000 NA
ATOM     20  N   UNL     1       6.256   5.650  14.406  0.00  0.00    +0.000 NA
BRANCH  15  22
ATOM     21  C   UNL     1       5.946   3.283  12.246  0.00  0.00    +0.000 C 
ATOM     22  O   UNL     1       6.862   3.652  13.275  0.00  0.00    +0.000 OA
ENDBRANCH  15  22
ENDBRANCH   1  18
TORSDOF 3
ENDMDL
MODEL 5
REMARK VINA RESULT:      -6.3      4.523      6.639
REMARK  Name = 
REMARK  5 active torsions:
REMARK  status: ('A' for Active; 'I' for Inactive)
REMARK    1  A    between atoms: C_1  and  O_2
REMARK    2  A    between atoms: O_2  and  C_3
REMARK    3  A    between atoms: C_6  and  C_7
REMARK    4  A    between atoms: N_9  and  C_10
REMARK    5  A    between atoms: C_14  and  C_15
REMARK                            x       y       z     vdW  Elec       q    Type
REMARK                         _______ _______ _______ _____ _____    ______ ____
ROOT
ATOM      1  C   UNL     1       7.728  12.618  22.630  0.00  0.00    +0.000 C 
ATOM      2  O   UNL     1       7.161  13.511  22.006  0.00  0.00    +0.000 OA
ATOM      3  N   UNL     1       8.882  11.958  22.249  0.00  0.00    +0.000 N 
ATOM      4  H   UNL     1       9.043  11.039  22.652  0.00  0.00    +0.000 HD
ENDROOT
BRANCH   3   5
ATOM      5  C   UNL     1       9.587  12.281  21.116  0.00  0.00    +0.000 A 
ATOM      6  S   UNL     1      10.217  13.859  21.155  0.00  0.00    +0.000 S 
ATOM      7  C   UNL     1      10.961  13.650  19.645  0.00  0.00    +0.000 A 
ATOM      8  C   UNL     1      10.645  12.438  19.057  0.00  0.00    +0.000 A 
ATOM      9  C   UNL     1       9.842  11.612  19.933  0.00  0.00    +0.000 A 
ATOM     10  C   UNL     1       9.281  10.278  19.550  0.00  0.00    +0.000 C 
ATOM     11  C   UNL     1      11.059  12.120  17.645  0.00  0.00    +0.000 C 
ATOM     12  C   UNL     1      12.135  13.080  17.112  0.00  0.00    +0.000 C 
ATOM     13  C   UNL     1      11.861  14.538  17.509  0.00  0.00    +0.000 C 
ATOM     14  C   UNL     1      11.830  14.703  19.033  0.00  0.00    +0.000 C 
ENDBRANCH   3   5
BRANCH   1  18
ATOM     15  C   UNL     1       5.942  11.091  26.093  0.00  0.00    +0.000 A 
ATOM     16  C   UNL     1       7.196  11.657  26.226  0.00  0.00    +0.000 A 
ATOM     17  C   UNL     1       7.800  12.188  25.092  0.00  0.00    +0.000 A 
ATOM     18  C   UNL     1       7.112  12.123  23.888  0.00  0.00    +0.000 A 
ATOM     19  N   UNL     1       5.871  11.584  23.793  0.00  0.00    +0.000 NA
ATOM     20  N   UNL     1       5.284  11.059  24.912  0.00  0.00    +0.000 NA
BRANCH  15  22
ATOM     21  C   UNL     1       4.025  10.145  27.037  0.00  0.00    +0.000 C 
ATOM     22  O   UNL     1       5.381  10.541  27.227  0.00  0.00    +0.000 OA
ENDBRANCH  15  22
ENDBRANCH   1  18
TORSDOF 3
ENDMDL
MODEL 6
REMARK VINA RESULT:      -6.2      7.729      8.362
REMARK  Name = 
REMARK  5 active torsions:
REMARK  status: ('A' for Active; 'I' for Inactive)
REMARK    1  A    between atoms: C_1  and  O_2
REMARK    2  A    between atoms: O_2  and  C_3
REMARK    3  A    between atoms: C_6  and  C_7
REMARK    4  A    between atoms: N_9  and  C_10
REMARK    5  A    between atoms: C_14  and  C_15
REMARK                            x       y       z     vdW  Elec       q    Type
REMARK                         _______ _______ _______ _____ _____    ______ ____
ROOT
ATOM      1  C   UNL     1       2.490   6.201  18.753  0.00  0.00    +0.000 C 
ATOM      2  O   UNL     1       1.683   5.516  19.376  0.00  0.00    +0.000 OA
ATOM      3  N   UNL     1       2.580   7.580  18.768  0.00  0.00    +0.000 N 
ATOM      4  H   UNL     1       3.031   8.023  17.973  0.00  0.00    +0.000 HD
ENDROOT
BRANCH   3   5
ATOM      5  C   UNL     1       1.785   8.370  19.562  0.00  0.00    +0.000 A 
ATOM      6  S   UNL     1       1.788   7.889  21.191  0.00  0.00    +0.000 S 
ATOM      7  C   UNL     1       0.766   9.173  21.622  0.00  0.00    +0.000 A 
ATOM      8  C   UNL     1       0.330   9.897  20.527  0.00  0.00    +0.000 A 
ATOM      9  C   UNL     1       0.944   9.437  19.301  0.00  0.00    +0.000 A 
ATOM     10  C   UNL     1       0.615   9.974  17.942  0.00  0.00    +0.000 C 
ATOM     11  C   UNL     1      -0.717  10.971  20.666  0.00  0.00    +0.000 C 
ATOM     12  C   UNL     1      -0.939  11.399  22.126  0.00  0.00    +0.000 C 
ATOM     13  C   UNL     1      -0.953  10.202  23.086  0.00  0.00    +0.000 C 
ATOM     14  C   UNL     1       0.374   9.436  23.042  0.00  0.00    +0.000 C 
ENDBRANCH   3   5
BRANCH   1  18
ATOM     15  C   UNL     1       5.278   4.391  16.208  0.00  0.00    +0.000 A 
ATOM     16  C   UNL     1       4.385   3.561  16.860  0.00  0.00    +0.000 A 
ATOM     17  C   UNL     1       3.438   4.142  17.695  0.00  0.00    +0.000 A 
ATOM     18  C   UNL     1       3.437   5.524  17.829  0.00  0.00    +0.000 A 
ATOM     19  N   UNL     1       4.310   6.316  17.157  0.00  0.00    +0.000 NA
ATOM     20  N   UNL     1       5.243   5.737  16.340  0.00  0.00    +0.000 NA
BRANCH  15  22
ATOM     21  C   UNL     1       6.048   4.064  14.027  0.00  0.00    +0.000 C 
ATOM     22  O   UNL     1       6.228   3.785  15.414  0.00  0.00    +0.000 OA
ENDBRANCH  15  22
ENDBRANCH   1  18
TORSDOF 3
ENDMDL
MODEL 7
REMARK VINA RESULT:      -6.2      1.075      1.208
REMARK  Name = 
REMARK  5 active torsions:
REMARK  status: ('A' for Active; 'I' for Inactive)
REMARK    1  A    between atoms: C_1  and  O_2
REMARK    2  A    between atoms: O_2  and  C_3
REMARK    3  A    between atoms: C_6  and  C_7
REMARK    4  A    between atoms: N_9  and  C_10
REMARK    5  A    between atoms: C_14  and  C_15
REMARK                            x       y       z     vdW  Elec       q    Type
REMARK                         _______ _______ _______ _____ _____    ______ ____
ROOT
ATOM      1  C   UNL     1       8.546   9.655  18.363  0.00  0.00    +0.000 C 
ATOM      2  O   UNL     1       8.160  10.455  17.514  0.00  0.00    +0.000 OA
ATOM      3  N   UNL     1       9.390   9.928  19.423  0.00  0.00    +0.000 N 
ATOM      4  H   UNL     1       9.896   9.144  19.825  0.00  0.00    +0.000 HD
ENDROOT
BRANCH   3   5
ATOM      5  C   UNL     1       9.862  11.189  19.695  0.00  0.00    +0.000 A 
ATOM      6  S   UNL     1       9.105  11.905  21.037  0.00  0.00    +0.000 S 
ATOM      7  C   UNL     1      10.077  13.290  20.906  0.00  0.00    +0.000 A 
ATOM      8  C   UNL     1      10.892  13.265  19.789  0.00  0.00    +0.000 A 
ATOM      9  C   UNL     1      10.782  12.013  19.073  0.00  0.00    +0.000 A 
ATOM     10  C   UNL     1      11.484  11.716  17.784  0.00  0.00    +0.000 C 
ATOM     11  C   UNL     1      11.709  14.466  19.389  0.00  0.00    +0.000 C 
ATOM     12  C   UNL     1      11.819  15.510  20.513  0.00  0.00    +0.000 C 
ATOM     13  C   UNL     1      10.487  15.713  21.248  0.00  0.00    +0.000 C 
ATOM     14  C   UNL     1      10.002  14.410  21.895  0.00  0.00    +0.000 C 
ENDBRANCH   3   5
BRANCH   1  18
ATOM     15  C   UNL     1       7.378   5.641  18.167  0.00  0.00    +0.000 A 
ATOM     16  C   UNL     1       6.951   6.473  17.149  0.00  0.00    +0.000 A 
ATOM     17  C   UNL     1       7.343   7.807  17.184  0.00  0.00    +0.000 A 
ATOM     18  C   UNL     1       8.143   8.231  18.236  0.00  0.00    +0.000 A 
ATOM     19  N   UNL     1       8.568   7.385  19.207  0.00  0.00    +0.000 NA
ATOM     20  N   UNL     1       8.175   6.075  19.170  0.00  0.00    +0.000 NA
BRANCH  15  22
ATOM     21  C   UNL     1       5.557   4.199  18.425  0.00  0.00    +0.000 C 
ATOM     22  O   UNL     1       6.945   4.332  18.126  0.00  0.00    +0.000 OA
ENDBRANCH  15  22
ENDBRANCH   1  18
TORSDOF 3
ENDMDL
MODEL 8
REMARK VINA RESULT:      -6.2      7.925     10.800
REMARK  Name = 
REMARK  5 active torsions:
REMARK  status: ('A' for Active; 'I' for Inactive)
REMARK    1  A    between atoms: C_1  and  O_2
REMARK    2  A    between atoms: O_2  and  C_3
REMARK    3  A    between atoms: C_6  and  C_7
REMARK    4  A    between atoms: N_9  and  C_10
REMARK    5  A    between atoms: C_14  and  C_15
REMARK                            x       y       z     vdW  Elec       q    Type
REMARK                         _______ _______ _______ _____ _____    ______ ____
ROOT
ATOM      1  C   UNL     1       1.283   8.962  21.215  0.00  0.00    +0.000 C 
ATOM      2  O   UNL     1       2.117   8.596  22.039  0.00  0.00    +0.000 OA
ATOM      3  N   UNL     1       1.204   8.560  19.894  0.00  0.00    +0.000 N 
ATOM      4  H   UNL     1       0.715   9.177  19.252  0.00  0.00    +0.000 HD
ENDROOT
BRANCH   3   5
ATOM      5  C   UNL     1       2.046   7.622  19.349  0.00  0.00    +0.000 A 
ATOM      6  S   UNL     1       2.840   8.176  17.952  0.00  0.00    +0.000 S 
ATOM      7  C   UNL     1       3.698   6.720  17.805  0.00  0.00    +0.000 A 
ATOM      8  C   UNL     1       3.308   5.774  18.737  0.00  0.00    +0.000 A 
ATOM      9  C   UNL     1       2.338   6.309  19.668  0.00  0.00    +0.000 A 
ATOM     10  C   UNL     1       1.673   5.506  20.742  0.00  0.00    +0.000 C 
ATOM     11  C   UNL     1       3.819   4.359  18.676  0.00  0.00    +0.000 C 
ATOM     12  C   UNL     1       5.040   4.207  17.755  0.00  0.00    +0.000 C 
ATOM     13  C   UNL     1       4.892   5.012  16.457  0.00  0.00    +0.000 C 
ATOM     14  C   UNL     1       4.732   6.510  16.744  0.00  0.00    +0.000 C 
ENDBRANCH   3   5
BRANCH   1  18
ATOM     15  C   UNL     1      -1.427  11.898  22.460  0.00  0.00    +0.000 A 
ATOM     16  C   UNL     1      -1.290  11.702  21.099  0.00  0.00    +0.000 A 
ATOM     17  C   UNL     1      -0.409  10.718  20.663  0.00  0.00    +0.000 A 
ATOM     18  C   UNL     1       0.283   9.985  21.617  0.00  0.00    +0.000 A 
ATOM     19  N   UNL     1       0.109  10.182  22.947  0.00  0.00    +0.000 NA
ATOM     20  N   UNL     1      -0.756  11.155  23.370  0.00  0.00    +0.000 NA
BRANCH  15  22
ATOM     21  C   UNL     1      -3.644  12.630  22.548  0.00  0.00    +0.000 C 
ATOM     22  O   UNL     1      -2.281  12.903  22.863  0.00  0.00    +0.000 OA
ENDBRANCH  15  22
ENDBRANCH   1  18
TORSDOF 3
ENDMDL
MODEL 9
REMARK VINA RESULT:      -6.1      1.992      2.136
REMARK  Name = 
REMARK  5 active torsions:
REMARK  status: ('A' for Active; 'I' for Inactive)
REMARK    1  A    between atoms: C_1  and  O_2
REMARK    2  A    between atoms: O_2  and  C_3
REMARK    3  A    between atoms: C_6  and  C_7
REMARK    4  A    between atoms: N_9  and  C_10
REMARK    5  A    between atoms: C_14  and  C_15
REMARK                            x       y       z     vdW  Elec       q    Type
REMARK                         _______ _______ _______ _____ _____    ______ ____
ROOT
ATOM      1  C   UNL     1       8.782   9.819  18.627  0.00  0.00    +0.000 C 
ATOM      2  O   UNL     1       9.266   9.952  19.748  0.00  0.00    +0.000 OA
ATOM      3  N   UNL     1       8.669  10.802  17.661  0.00  0.00    +0.000 N 
ATOM      4  H   UNL     1       7.961  10.667  16.946  0.00  0.00    +0.000 HD
ENDROOT
BRANCH   3   5
ATOM      5  C   UNL     1       9.160  12.073  17.830  0.00  0.00    +0.000 A 
ATOM      6  S   UNL     1       7.957  13.268  17.722  0.00  0.00    +0.000 S 
ATOM      7  C   UNL     1       9.082  14.497  18.048  0.00  0.00    +0.000 A 
ATOM      8  C   UNL     1      10.380  14.024  18.127  0.00  0.00    +0.000 A 
ATOM      9  C   UNL     1      10.432  12.583  18.015  0.00  0.00    +0.000 A 
ATOM     10  C   UNL     1      11.700  11.787  17.989  0.00  0.00    +0.000 C 
ATOM     11  C   UNL     1      11.550  14.966  18.240  0.00  0.00    +0.000 C 
ATOM     12  C   UNL     1      11.128  16.393  18.623  0.00  0.00    +0.000 C 
ATOM     13  C   UNL     1       9.864  16.846  17.878  0.00  0.00    +0.000 C 
ATOM     14  C   UNL     1       8.675  15.930  18.191  0.00  0.00    +0.000 C 
ENDBRANCH   3   5
BRANCH   1  18
ATOM     15  C   UNL     1       7.156   6.154  17.426  0.00  0.00    +0.000 A 
ATOM     16  C   UNL     1       7.888   6.166  18.599  0.00  0.00    +0.000 A 
ATOM     17  C   UNL     1       8.421   7.377  19.027  0.00  0.00    +0.000 A 
ATOM     18  C   UNL     1       8.189   8.508  18.256  0.00  0.00    +0.000 A 
ATOM     19  N   UNL     1       7.445   8.470  17.123  0.00  0.00    +0.000 NA
ATOM     20  N   UNL     1       6.928   7.275  16.704  0.00  0.00    +0.000 NA
BRANCH  15  22
ATOM     21  C   UNL     1       5.335   5.012  16.512  0.00  0.00    +0.000 C 
ATOM     22  O   UNL     1       6.669   4.934  17.007  0.00  0.00    +0.000 OA
ENDBRANCH  15  22
ENDBRANCH   1  18
TORSDOF 3
ENDMDL
