MODEL 1
REMARK VINA RESULT:      -6.3      0.000      0.000
REMARK  Name = 
REMARK  10 active torsions:
REMARK  status: ('A' for Active; 'I' for Inactive)
REMARK    1  A    between atoms: C_1  and  C_2
REMARK    2  A    between atoms: C_2  and  O_3
REMARK    3  A    between atoms: O_3  and  C_4
REMARK    4  A    between atoms: C_10  and  C_12
REMARK    5  A    between atoms: C_14  and  O_15
REMARK    6  A    between atoms: O_15  and  C_16
REMARK    7  A    between atoms: C_17  and  O_18
REMARK    8  A    between atoms: O_18  and  C_19
REMARK    9  A    between atoms: C_20  and  O_21
REMARK   10  A    between atoms: O_21  and  C_22
REMARK                            x       y       z     vdW  Elec       q    Type
REMARK                         _______ _______ _______ _____ _____    ______ ____
ROOT
ATOM      1  C   UNL     1      -0.735  11.300  20.874  0.00  0.00    +0.000 C 
ATOM      2  O   UNL     1      -1.019  12.381  20.375  0.00  0.00    +0.000 OA
ATOM      3  N   UNL     1      -0.339  10.195  20.151  0.00  0.00    +0.000 N 
ATOM      4  C   UNL     1      -0.147  10.305  18.702  0.00  0.00    +0.000 C 
ATOM      5  C   UNL     1       1.310  10.011  18.299  0.00  0.00    +0.000 C 
ATOM      6  N   UNL     1       1.784   8.760  18.907  0.00  0.00    +0.000 N 
ATOM      7  C   UNL     1       2.503   7.866  18.114  0.00  0.00    +0.000 C 
ATOM      8  O   UNL     1       2.855   8.131  16.966  0.00  0.00    +0.000 OA
ATOM      9  C   UNL     1       1.636   8.730  20.374  0.00  0.00    +0.000 C 
ATOM     10  C   UNL     1       0.165   8.959  20.762  0.00  0.00    +0.000 C 
ENDROOT
BRANCH   7  11
ATOM     11  C   UNL     1       2.850   6.515  18.629  0.00  0.00    +0.000 A 
ATOM     12  C   UNL     1       1.850   5.578  18.905  0.00  0.00    +0.000 A 
ATOM     13  C   UNL     1       2.191   4.335  19.448  0.00  0.00    +0.000 A 
ATOM     14  C   UNL     1       3.546   3.991  19.631  0.00  0.00    +0.000 A 
ATOM     15  C   UNL     1       4.557   4.901  19.259  0.00  0.00    +0.000 A 
ATOM     16  C   UNL     1       4.196   6.157  18.754  0.00  0.00    +0.000 A 
BRANCH  13  17
ATOM     17  O   UNL     1       1.249   3.414  19.841  0.00  0.00    +0.000 OA
ATOM     18  C   UNL     1       0.664   2.610  18.820  0.00  0.00    +0.000 C 
ENDBRANCH  13  17
BRANCH  14  19
ATOM     19  O   UNL     1       3.771   2.785  20.259  0.00  0.00    +0.000 OA
ATOM     20  C   UNL     1       4.221   1.716  19.437  0.00  0.00    +0.000 C 
ENDBRANCH  14  19
BRANCH  15  21
ATOM     21  O   UNL     1       5.863   4.524  19.449  0.00  0.00    +0.000 OA
ATOM     22  C   UNL     1       6.875   5.520  19.344  0.00  0.00    +0.000 C 
ENDBRANCH  15  21
ENDBRANCH   7  11
BRANCH   1  23
ATOM     23  O   UNL     1      -0.706  11.068  22.214  0.00  0.00    +0.000 OA
BRANCH  23  25
ATOM     24  C   UNL     1      -2.646  11.879  23.340  0.00  0.00    +0.000 C 
ATOM     25  C   UNL     1      -1.182  12.140  23.037  0.00  0.00    +0.000 C 
ENDBRANCH  23  25
ENDBRANCH   1  23
TORSDOF 6
ENDMDL
MODEL 2
REMARK VINA RESULT:      -6.2      0.234      2.565
REMARK  Name = 
REMARK  10 active torsions:
REMARK  status: ('A' for Active; 'I' for Inactive)
REMARK    1  A    between atoms: C_1  and  C_2
REMARK    2  A    between atoms: C_2  and  O_3
REMARK    3  A    between atoms: O_3  and  C_4
REMARK    4  A    between atoms: C_10  and  C_12
REMARK    5  A    between atoms: C_14  and  O_15
REMARK    6  A    between atoms: O_15  and  C_16
REMARK    7  A    between atoms: C_17  and  O_18
REMARK    8  A    between atoms: O_18  and  C_19
REMARK    9  A    between atoms: C_20  and  O_21
REMARK   10  A    between atoms: O_21  and  C_22
REMARK                            x       y       z     vdW  Elec       q    Type
REMARK                         _______ _______ _______ _____ _____    ______ ____
ROOT
ATOM      1  C   UNL     1      -0.895  11.226  20.810  0.00  0.00    +0.000 C 
ATOM      2  O   UNL     1      -1.222  12.282  20.283  0.00  0.00    +0.000 OA
ATOM      3  N   UNL     1      -0.440  10.125  20.116  0.00  0.00    +0.000 N 
ATOM      4  C   UNL     1      -0.237  10.211  18.668  0.00  0.00    +0.000 C 
ATOM      5  C   UNL     1       1.237   9.975  18.287  0.00  0.00    +0.000 C 
ATOM      6  N   UNL     1       1.760   8.761  18.928  0.00  0.00    +0.000 N 
ATOM      7  C   UNL     1       2.528   7.883  18.164  0.00  0.00    +0.000 C 
ATOM      8  O   UNL     1       2.881   8.138  17.014  0.00  0.00    +0.000 OA
ATOM      9  C   UNL     1       1.597   8.757  20.394  0.00  0.00    +0.000 C 
ATOM     10  C   UNL     1       0.113   8.927  20.761  0.00  0.00    +0.000 C 
ENDROOT
BRANCH   7  11
ATOM     11  C   UNL     1       2.931   6.561  18.713  0.00  0.00    +0.000 A 
ATOM     12  C   UNL     1       4.279   6.201  18.791  0.00  0.00    +0.000 A 
ATOM     13  C   UNL     1       4.635   4.930  19.250  0.00  0.00    +0.000 A 
ATOM     14  C   UNL     1       3.644   4.044  19.721  0.00  0.00    +0.000 A 
ATOM     15  C   UNL     1       2.292   4.448  19.734  0.00  0.00    +0.000 A 
ATOM     16  C   UNL     1       1.950   5.710  19.231  0.00  0.00    +0.000 A 
BRANCH  13  17
ATOM     17  O   UNL     1       5.934   4.477  19.250  0.00  0.00    +0.000 OA
ATOM     18  C   UNL     1       6.961   5.454  19.398  0.00  0.00    +0.000 C 
ENDBRANCH  13  17
BRANCH  14  19
ATOM     19  O   UNL     1       4.088   2.785  20.062  0.00  0.00    +0.000 OA
ATOM     20  C   UNL     1       3.912   1.765  19.087  0.00  0.00    +0.000 C 
ENDBRANCH  14  19
BRANCH  15  21
ATOM     21  O   UNL     1       1.360   3.558  20.205  0.00  0.00    +0.000 OA
ATOM     22  C   UNL     1       0.572   2.843  19.260  0.00  0.00    +0.000 C 
ENDBRANCH  15  21
ENDBRANCH   7  11
BRANCH   1  23
ATOM     23  O   UNL     1      -0.871  11.026  22.155  0.00  0.00    +0.000 OA
BRANCH  23  25
ATOM     24  C   UNL     1      -2.650  12.097  23.327  0.00  0.00    +0.000 C 
ATOM     25  C   UNL     1      -1.180  12.173  22.955  0.00  0.00    +0.000 C 
ENDBRANCH  23  25
ENDBRANCH   1  23
TORSDOF 6
ENDMDL
MODEL 3
REMARK VINA RESULT:      -5.8      1.655      7.640
REMARK  Name = 
REMARK  10 active torsions:
REMARK  status: ('A' for Active; 'I' for Inactive)
REMARK    1  A    between atoms: C_1  and  C_2
REMARK    2  A    between atoms: C_2  and  O_3
REMARK    3  A    between atoms: O_3  and  C_4
REMARK    4  A    between atoms: C_10  and  C_12
REMARK    5  A    between atoms: C_14  and  O_15
REMARK    6  A    between atoms: O_15  and  C_16
REMARK    7  A    between atoms: C_17  and  O_18
REMARK    8  A    between atoms: O_18  and  C_19
REMARK    9  A    between atoms: C_20  and  O_21
REMARK   10  A    between atoms: O_21  and  C_22
REMARK                            x       y       z     vdW  Elec       q    Type
REMARK                         _______ _______ _______ _____ _____    ______ ____
ROOT
ATOM      1  C   UNL     1       4.071   3.855  19.265  0.00  0.00    +0.000 C 
ATOM      2  O   UNL     1       4.935   3.367  18.549  0.00  0.00    +0.000 OA
ATOM      3  N   UNL     1       3.816   5.207  19.357  0.00  0.00    +0.000 N 
ATOM      4  C   UNL     1       4.543   6.144  18.496  0.00  0.00    +0.000 C 
ATOM      5  C   UNL     1       3.589   6.911  17.561  0.00  0.00    +0.000 C 
ATOM      6  N   UNL     1       2.463   7.484  18.311  0.00  0.00    +0.000 N 
ATOM      7  C   UNL     1       2.079   8.796  18.036  0.00  0.00    +0.000 C 
ATOM      8  O   UNL     1       2.566   9.452  17.116  0.00  0.00    +0.000 OA
ATOM      9  C   UNL     1       1.720   6.487  19.104  0.00  0.00    +0.000 C 
ATOM     10  C   UNL     1       2.671   5.772  20.080  0.00  0.00    +0.000 C 
ENDROOT
BRANCH   7  11
ATOM     11  C   UNL     1       1.067   9.479  18.885  0.00  0.00    +0.000 A 
ATOM     12  C   UNL     1      -0.148   9.907  18.342  0.00  0.00    +0.000 A 
ATOM     13  C   UNL     1      -1.060  10.603  19.140  0.00  0.00    +0.000 A 
ATOM     14  C   UNL     1      -0.798  10.794  20.513  0.00  0.00    +0.000 A 
ATOM     15  C   UNL     1       0.384  10.273  21.080  0.00  0.00    +0.000 A 
ATOM     16  C   UNL     1       1.305   9.614  20.256  0.00  0.00    +0.000 A 
BRANCH  13  17
ATOM     17  O   UNL     1      -2.222  11.144  18.641  0.00  0.00    +0.000 OA
ATOM     18  C   UNL     1      -2.191  11.619  17.298  0.00  0.00    +0.000 C 
ENDBRANCH  13  17
BRANCH  14  19
ATOM     19  O   UNL     1      -1.714  11.572  21.188  0.00  0.00    +0.000 OA
ATOM     20  C   UNL     1      -1.388  12.948  21.337  0.00  0.00    +0.000 C 
ENDBRANCH  14  19
BRANCH  15  21
ATOM     21  O   UNL     1       0.597  10.476  22.420  0.00  0.00    +0.000 OA
ATOM     22  C   UNL     1      -0.020   9.586  23.343  0.00  0.00    +0.000 C 
ENDBRANCH  15  21
ENDBRANCH   7  11
BRANCH   1  23
ATOM     23  O   UNL     1       3.201   3.122  20.010  0.00  0.00    +0.000 OA
BRANCH  23  25
ATOM     24  C   UNL     1       0.940   2.654  19.412  0.00  0.00    +0.000 C 
ATOM     25  C   UNL     1       2.383   2.202  19.277  0.00  0.00    +0.000 C 
ENDBRANCH  23  25
ENDBRANCH   1  23
TORSDOF 6
ENDMDL
MODEL 4
REMARK VINA RESULT:      -5.7      4.446      8.261
REMARK  Name = 
REMARK  10 active torsions:
REMARK  status: ('A' for Active; 'I' for Inactive)
REMARK    1  A    between atoms: C_1  and  C_2
REMARK    2  A    between atoms: C_2  and  O_3
REMARK    3  A    between atoms: O_3  and  C_4
REMARK    4  A    between atoms: C_10  and  C_12
REMARK    5  A    between atoms: C_14  and  O_15
REMARK    6  A    between atoms: O_15  and  C_16
REMARK    7  A    between atoms: C_17  and  O_18
REMARK    8  A    between atoms: O_18  and  C_19
REMARK    9  A    between atoms: C_20  and  O_21
REMARK   10  A    between atoms: O_21  and  C_22
REMARK                            x       y       z     vdW  Elec       q    Type
REMARK                         _______ _______ _______ _____ _____    ______ ____
ROOT
ATOM      1  C   UNL     1       6.551   3.594  12.806  0.00  0.00    +0.000 C 
ATOM      2  O   UNL     1       7.185   4.197  11.949  0.00  0.00    +0.000 OA
ATOM      3  N   UNL     1       6.491   3.971  14.130  0.00  0.00    +0.000 N 
ATOM      4  C   UNL     1       7.140   5.212  14.563  0.00  0.00    +0.000 C 
ATOM      5  C   UNL     1       6.120   6.216  15.133  0.00  0.00    +0.000 C 
ATOM      6  N   UNL     1       5.249   5.576  16.129  0.00  0.00    +0.000 N 
ATOM      7  C   UNL     1       4.985   6.257  17.317  0.00  0.00    +0.000 C 
ATOM      8  O   UNL     1       5.354   7.413  17.516  0.00  0.00    +0.000 OA
ATOM      9  C   UNL     1       4.563   4.374  15.620  0.00  0.00    +0.000 C 
ATOM     10  C   UNL     1       5.595   3.351  15.114  0.00  0.00    +0.000 C 
ENDROOT
BRANCH   7  11
ATOM     11  C   UNL     1       4.258   5.583  18.426  0.00  0.00    +0.000 A 
ATOM     12  C   UNL     1       4.627   4.302  18.845  0.00  0.00    +0.000 A 
ATOM     13  C   UNL     1       3.893   3.658  19.846  0.00  0.00    +0.000 A 
ATOM     14  C   UNL     1       2.839   4.334  20.495  0.00  0.00    +0.000 A 
ATOM     15  C   UNL     1       2.532   5.664  20.137  0.00  0.00    +0.000 A 
ATOM     16  C   UNL     1       3.253   6.278  19.104  0.00  0.00    +0.000 A 
BRANCH  13  17
ATOM     17  O   UNL     1       4.137   2.360  20.228  0.00  0.00    +0.000 OA
ATOM     18  C   UNL     1       4.035   1.358  19.220  0.00  0.00    +0.000 C 
ENDBRANCH  13  17
BRANCH  14  19
ATOM     19  O   UNL     1       2.119   3.580  21.397  0.00  0.00    +0.000 OA
ATOM     20  C   UNL     1       1.005   2.866  20.880  0.00  0.00    +0.000 C 
ENDBRANCH  14  19
BRANCH  15  21
ATOM     21  O   UNL     1       1.503   6.286  20.797  0.00  0.00    +0.000 OA
ATOM     22  C   UNL     1       1.485   7.708  20.830  0.00  0.00    +0.000 C 
ENDBRANCH  15  21
ENDBRANCH   7  11
BRANCH   1  23
ATOM     23  O   UNL     1       5.765   2.515  12.547  0.00  0.00    +0.000 OA
BRANCH  23  25
ATOM     24  C   UNL     1       3.926   3.321  11.260  0.00  0.00    +0.000 C 
ATOM     25  C   UNL     1       5.184   2.472  11.238  0.00  0.00    +0.000 C 
ENDBRANCH  23  25
ENDBRANCH   1  23
TORSDOF 6
ENDMDL
MODEL 5
REMARK VINA RESULT:      -5.7      2.260      3.952
REMARK  Name = 
REMARK  10 active torsions:
REMARK  status: ('A' for Active; 'I' for Inactive)
REMARK    1  A    between atoms: C_1  and  C_2
REMARK    2  A    between atoms: C_2  and  O_3
REMARK    3  A    between atoms: O_3  and  C_4
REMARK    4  A    between atoms: C_10  and  C_12
REMARK    5  A    between atoms: C_14  and  O_15
REMARK    6  A    between atoms: O_15  and  C_16
REMARK    7  A    between atoms: C_17  and  O_18
REMARK    8  A    between atoms: O_18  and  C_19
REMARK    9  A    between atoms: C_20  and  O_21
REMARK   10  A    between atoms: O_21  and  C_22
REMARK                            x       y       z     vdW  Elec       q    Type
REMARK                         _______ _______ _______ _____ _____    ______ ____
ROOT
ATOM      1  C   UNL     1      -0.017  11.786  19.695  0.00  0.00    +0.000 C 
ATOM      2  O   UNL     1      -0.624  12.216  20.668  0.00  0.00    +0.000 OA
ATOM      3  N   UNL     1       0.952  10.808  19.760  0.00  0.00    +0.000 N 
ATOM      4  C   UNL     1       1.241  10.155  21.040  0.00  0.00    +0.000 C 
ATOM      5  C   UNL     1       0.951   8.643  20.983  0.00  0.00    +0.000 C 
ATOM      6  N   UNL     1       1.578   8.030  19.804  0.00  0.00    +0.000 N 
ATOM      7  C   UNL     1       2.248   6.817  19.962  0.00  0.00    +0.000 C 
ATOM      8  O   UNL     1       2.238   6.185  21.017  0.00  0.00    +0.000 OA
ATOM      9  C   UNL     1       1.197   8.678  18.535  0.00  0.00    +0.000 C 
ATOM     10  C   UNL     1       1.551  10.175  18.579  0.00  0.00    +0.000 C 
ENDROOT
BRANCH   7  11
ATOM     11  C   UNL     1       3.045   6.246  18.844  0.00  0.00    +0.000 A 
ATOM     12  C   UNL     1       4.137   6.943  18.318  0.00  0.00    +0.000 A 
ATOM     13  C   UNL     1       4.836   6.420  17.226  0.00  0.00    +0.000 A 
ATOM     14  C   UNL     1       4.500   5.150  16.713  0.00  0.00    +0.000 A 
ATOM     15  C   UNL     1       3.461   4.406  17.309  0.00  0.00    +0.000 A 
ATOM     16  C   UNL     1       2.745   4.963  18.377  0.00  0.00    +0.000 A 
BRANCH  13  17
ATOM     17  O   UNL     1       5.849   7.105  16.596  0.00  0.00    +0.000 OA
ATOM     18  C   UNL     1       7.054   7.301  17.331  0.00  0.00    +0.000 C 
ENDBRANCH  13  17
BRANCH  14  19
ATOM     19  O   UNL     1       5.185   4.770  15.579  0.00  0.00    +0.000 OA
ATOM     20  C   UNL     1       6.218   3.810  15.755  0.00  0.00    +0.000 C 
ENDBRANCH  14  19
BRANCH  15  21
ATOM     21  O   UNL     1       3.170   3.173  16.782  0.00  0.00    +0.000 OA
ATOM     22  C   UNL     1       2.491   2.231  17.605  0.00  0.00    +0.000 C 
ENDBRANCH  15  21
ENDBRANCH   7  11
BRANCH   1  23
ATOM     23  O   UNL     1      -0.270  12.167  18.415  0.00  0.00    +0.000 OA
BRANCH  23  25
ATOM     24  C   UNL     1      -1.885  10.696  17.457  0.00  0.00    +0.000 C 
ATOM     25  C   UNL     1      -1.641  12.090  18.007  0.00  0.00    +0.000 C 
ENDBRANCH  23  25
ENDBRANCH   1  23
TORSDOF 6
ENDMDL
MODEL 6
REMARK VINA RESULT:      -5.7      4.583      8.294
REMARK  Name = 
REMARK  10 active torsions:
REMARK  status: ('A' for Active; 'I' for Inactive)
REMARK    1  A    between atoms: C_1  and  C_2
REMARK    2  A    between atoms: C_2  and  O_3
REMARK    3  A    between atoms: O_3  and  C_4
REMARK    4  A    between atoms: C_10  and  C_12
REMARK    5  A    between atoms: C_14  and  O_15
REMARK    6  A    between atoms: O_15  and  C_16
REMARK    7  A    between atoms: C_17  and  O_18
REMARK    8  A    between atoms: O_18  and  C_19
REMARK    9  A    between atoms: C_20  and  O_21
REMARK   10  A    between atoms: O_21  and  C_22
REMARK                            x       y       z     vdW  Elec       q    Type
REMARK                         _______ _______ _______ _____ _____    ______ ____
ROOT
ATOM      1  C   UNL     1       6.477   3.736  12.469  0.00  0.00    +0.000 C 
ATOM      2  O   UNL     1       7.308   4.236  11.721  0.00  0.00    +0.000 OA
ATOM      3  N   UNL     1       6.483   3.884  13.840  0.00  0.00    +0.000 N 
ATOM      4  C   UNL     1       7.475   4.758  14.473  0.00  0.00    +0.000 C 
ATOM      5  C   UNL     1       6.806   5.926  15.220  0.00  0.00    +0.000 C 
ATOM      6  N   UNL     1       5.733   5.444  16.101  0.00  0.00    +0.000 N 
ATOM      7  C   UNL     1       5.648   5.965  17.393  0.00  0.00    +0.000 C 
ATOM      8  O   UNL     1       6.358   6.889  17.784  0.00  0.00    +0.000 OA
ATOM      9  C   UNL     1       4.721   4.631  15.401  0.00  0.00    +0.000 C 
ATOM     10  C   UNL     1       5.393   3.430  14.712  0.00  0.00    +0.000 C 
ENDROOT
BRANCH   7  11
ATOM     11  C   UNL     1       4.696   5.385  18.377  0.00  0.00    +0.000 A 
ATOM     12  C   UNL     1       3.687   6.171  18.941  0.00  0.00    +0.000 A 
ATOM     13  C   UNL     1       2.841   5.626  19.912  0.00  0.00    +0.000 A 
ATOM     14  C   UNL     1       2.945   4.262  20.256  0.00  0.00    +0.000 A 
ATOM     15  C   UNL     1       3.900   3.448  19.613  0.00  0.00    +0.000 A 
ATOM     16  C   UNL     1       4.766   4.020  18.672  0.00  0.00    +0.000 A 
BRANCH  13  17
ATOM     17  O   UNL     1       1.901   6.373  20.581  0.00  0.00    +0.000 OA
ATOM     18  C   UNL     1       1.775   7.743  20.206  0.00  0.00    +0.000 C 
ENDBRANCH  13  17
BRANCH  14  19
ATOM     19  O   UNL     1       2.131   3.849  21.289  0.00  0.00    +0.000 OA
ATOM     20  C   UNL     1       1.052   2.992  20.941  0.00  0.00    +0.000 C 
ENDBRANCH  14  19
BRANCH  15  21
ATOM     21  O   UNL     1       3.964   2.125  19.974  0.00  0.00    +0.000 OA
ATOM     22  C   UNL     1       3.843   1.141  18.953  0.00  0.00    +0.000 C 
ENDBRANCH  15  21
ENDBRANCH   7  11
BRANCH   1  23
ATOM     23  O   UNL     1       5.400   3.027  12.038  0.00  0.00    +0.000 OA
BRANCH  23  25
ATOM     24  C   UNL     1       3.467   2.917  10.644  0.00  0.00    +0.000 C 
ATOM     25  C   UNL     1       4.304   3.807  11.545  0.00  0.00    +0.000 C 
ENDBRANCH  23  25
ENDBRANCH   1  23
TORSDOF 6
ENDMDL
MODEL 7
REMARK VINA RESULT:      -5.7      1.130      2.735
REMARK  Name = 
REMARK  10 active torsions:
REMARK  status: ('A' for Active; 'I' for Inactive)
REMARK    1  A    between atoms: C_1  and  C_2
REMARK    2  A    between atoms: C_2  and  O_3
REMARK    3  A    between atoms: O_3  and  C_4
REMARK    4  A    between atoms: C_10  and  C_12
REMARK    5  A    between atoms: C_14  and  O_15
REMARK    6  A    between atoms: O_15  and  C_16
REMARK    7  A    between atoms: C_17  and  O_18
REMARK    8  A    between atoms: O_18  and  C_19
REMARK    9  A    between atoms: C_20  and  O_21
REMARK   10  A    between atoms: O_21  and  C_22
REMARK                            x       y       z     vdW  Elec       q    Type
REMARK                         _______ _______ _______ _____ _____    ______ ____
ROOT
ATOM      1  C   UNL     1       0.236  11.214  20.609  0.00  0.00    +0.000 C 
ATOM      2  O   UNL     1      -0.049  12.304  20.130  0.00  0.00    +0.000 OA
ATOM      3  N   UNL     1       0.503  10.087  19.861  0.00  0.00    +0.000 N 
ATOM      4  C   UNL     1       0.546  10.179  18.399  0.00  0.00    +0.000 C 
ATOM      5  C   UNL     1       1.938   9.814  17.849  0.00  0.00    +0.000 C 
ATOM      6  N   UNL     1       2.414   8.546  18.418  0.00  0.00    +0.000 N 
ATOM      7  C   UNL     1       3.005   7.614  17.565  0.00  0.00    +0.000 C 
ATOM      8  O   UNL     1       3.246   7.855  16.383  0.00  0.00    +0.000 OA
ATOM      9  C   UNL     1       2.421   8.532  19.893  0.00  0.00    +0.000 C 
ATOM     10  C   UNL     1       1.011   8.833  20.430  0.00  0.00    +0.000 C 
ENDROOT
BRANCH   7  11
ATOM     11  C   UNL     1       3.341   6.251  18.055  0.00  0.00    +0.000 A 
ATOM     12  C   UNL     1       4.672   5.876  18.261  0.00  0.00    +0.000 A 
ATOM     13  C   UNL     1       4.973   4.570  18.662  0.00  0.00    +0.000 A 
ATOM     14  C   UNL     1       3.934   3.660  18.947  0.00  0.00    +0.000 A 
ATOM     15  C   UNL     1       2.590   4.073  18.833  0.00  0.00    +0.000 A 
ATOM     16  C   UNL     1       2.308   5.372  18.391  0.00  0.00    +0.000 A 
BRANCH  13  17
ATOM     17  O   UNL     1       6.263   4.109  18.778  0.00  0.00    +0.000 OA
ATOM     18  C   UNL     1       7.233   4.666  17.894  0.00  0.00    +0.000 C 
ENDBRANCH  13  17
BRANCH  14  19
ATOM     19  O   UNL     1       4.337   2.376  19.241  0.00  0.00    +0.000 OA
ATOM     20  C   UNL     1       4.432   2.041  20.619  0.00  0.00    +0.000 C 
ENDBRANCH  14  19
BRANCH  15  21
ATOM     21  O   UNL     1       1.610   3.158  19.125  0.00  0.00    +0.000 OA
ATOM     22  C   UNL     1       0.933   3.270  20.372  0.00  0.00    +0.000 C 
ENDBRANCH  15  21
ENDBRANCH   7  11
BRANCH   1  23
ATOM     23  O   UNL     1       0.394  10.990  21.941  0.00  0.00    +0.000 OA
BRANCH  23  25
ATOM     24  C   UNL     1      -0.764   9.488  23.388  0.00  0.00    +0.000 C 
ATOM     25  C   UNL     1      -0.817  10.835  22.690  0.00  0.00    +0.000 C 
ENDBRANCH  23  25
ENDBRANCH   1  23
TORSDOF 6
ENDMDL
MODEL 8
REMARK VINA RESULT:      -5.6      1.641      7.830
REMARK  Name = 
REMARK  10 active torsions:
REMARK  status: ('A' for Active; 'I' for Inactive)
REMARK    1  A    between atoms: C_1  and  C_2
REMARK    2  A    between atoms: C_2  and  O_3
REMARK    3  A    between atoms: O_3  and  C_4
REMARK    4  A    between atoms: C_10  and  C_12
REMARK    5  A    between atoms: C_14  and  O_15
REMARK    6  A    between atoms: O_15  and  C_16
REMARK    7  A    between atoms: C_17  and  O_18
REMARK    8  A    between atoms: O_18  and  C_19
REMARK    9  A    between atoms: C_20  and  O_21
REMARK   10  A    between atoms: O_21  and  C_22
REMARK                            x       y       z     vdW  Elec       q    Type
REMARK                         _______ _______ _______ _____ _____    ______ ____
ROOT
ATOM      1  C   UNL     1       3.592   4.005  19.674  0.00  0.00    +0.000 C 
ATOM      2  O   UNL     1       4.425   3.435  18.981  0.00  0.00    +0.000 OA
ATOM      3  N   UNL     1       3.415   5.372  19.703  0.00  0.00    +0.000 N 
ATOM      4  C   UNL     1       4.190   6.224  18.797  0.00  0.00    +0.000 C 
ATOM      5  C   UNL     1       3.278   7.000  17.829  0.00  0.00    +0.000 C 
ATOM      6  N   UNL     1       2.190   7.671  18.552  0.00  0.00    +0.000 N 
ATOM      7  C   UNL     1       1.880   8.989  18.215  0.00  0.00    +0.000 C 
ATOM      8  O   UNL     1       2.400   9.571  17.265  0.00  0.00    +0.000 OA
ATOM      9  C   UNL     1       1.394   6.756  19.392  0.00  0.00    +0.000 C 
ATOM     10  C   UNL     1       2.306   6.035  20.399  0.00  0.00    +0.000 C 
ENDROOT
BRANCH   7  11
ATOM     11  C   UNL     1       0.912   9.767  19.033  0.00  0.00    +0.000 A 
ATOM     12  C   UNL     1       1.101   9.921  20.409  0.00  0.00    +0.000 A 
ATOM     13  C   UNL     1       0.148  10.602  21.172  0.00  0.00    +0.000 A 
ATOM     14  C   UNL     1      -0.957  11.212  20.542  0.00  0.00    +0.000 A 
ATOM     15  C   UNL     1      -1.093  11.140  19.140  0.00  0.00    +0.000 A 
ATOM     16  C   UNL     1      -0.149  10.418  18.397  0.00  0.00    +0.000 A 
BRANCH  13  17
ATOM     17  O   UNL     1       0.221  10.694  22.542  0.00  0.00    +0.000 OA
ATOM     18  C   UNL     1      -0.062   9.512  23.287  0.00  0.00    +0.000 C 
ENDBRANCH  13  17
BRANCH  14  19
ATOM     19  O   UNL     1      -1.885  11.775  21.391  0.00  0.00    +0.000 OA
ATOM     20  C   UNL     1      -1.798  13.180  21.585  0.00  0.00    +0.000 C 
ENDBRANCH  14  19
BRANCH  15  21
ATOM     21  O   UNL     1      -2.180  11.752  18.568  0.00  0.00    +0.000 OA
ATOM     22  C   UNL     1      -3.127  10.941  17.882  0.00  0.00    +0.000 C 
ENDBRANCH  15  21
ENDBRANCH   7  11
BRANCH   1  23
ATOM     23  O   UNL     1       2.685   3.358  20.454  0.00  0.00    +0.000 OA
BRANCH  23  25
ATOM     24  C   UNL     1       0.889   2.687  19.036  0.00  0.00    +0.000 C 
ATOM     25  C   UNL     1       2.069   2.208  19.862  0.00  0.00    +0.000 C 
ENDBRANCH  23  25
ENDBRANCH   1  23
TORSDOF 6
ENDMDL
MODEL 9
REMARK VINA RESULT:      -5.6      3.718      5.236
REMARK  Name = 
REMARK  10 active torsions:
REMARK  status: ('A' for Active; 'I' for Inactive)
REMARK    1  A    between atoms: C_1  and  C_2
REMARK    2  A    between atoms: C_2  and  O_3
REMARK    3  A    between atoms: O_3  and  C_4
REMARK    4  A    between atoms: C_10  and  C_12
REMARK    5  A    between atoms: C_14  and  O_15
REMARK    6  A    between atoms: O_15  and  C_16
REMARK    7  A    between atoms: C_17  and  O_18
REMARK    8  A    between atoms: O_18  and  C_19
REMARK    9  A    between atoms: C_20  and  O_21
REMARK   10  A    between atoms: O_21  and  C_22
REMARK                            x       y       z     vdW  Elec       q    Type
REMARK                         _______ _______ _______ _____ _____    ______ ____
ROOT
ATOM      1  C   UNL     1       1.233   7.755  20.609  0.00  0.00    +0.000 C 
ATOM      2  O   UNL     1       0.327   7.408  21.356  0.00  0.00    +0.000 OA
ATOM      3  N   UNL     1       2.202   6.903  20.121  0.00  0.00    +0.000 N 
ATOM      4  C   UNL     1       2.126   5.470  20.418  0.00  0.00    +0.000 C 
ATOM      5  C   UNL     1       1.975   4.632  19.135  0.00  0.00    +0.000 C 
ATOM      6  N   UNL     1       2.976   5.019  18.131  0.00  0.00    +0.000 N 
ATOM      7  C   UNL     1       3.648   4.011  17.439  0.00  0.00    +0.000 C 
ATOM      8  O   UNL     1       3.358   2.821  17.550  0.00  0.00    +0.000 OA
ATOM      9  C   UNL     1       2.961   6.459  17.813  0.00  0.00    +0.000 C 
ATOM     10  C   UNL     1       3.178   7.285  19.093  0.00  0.00    +0.000 C 
ENDROOT
BRANCH   7  11
ATOM     11  C   UNL     1       4.790   4.343  16.546  0.00  0.00    +0.000 A 
ATOM     12  C   UNL     1       4.972   3.663  15.338  0.00  0.00    +0.000 A 
ATOM     13  C   UNL     1       6.086   3.945  14.541  0.00  0.00    +0.000 A 
ATOM     14  C   UNL     1       6.975   4.976  14.908  0.00  0.00    +0.000 A 
ATOM     15  C   UNL     1       6.734   5.727  16.078  0.00  0.00    +0.000 A 
ATOM     16  C   UNL     1       5.635   5.403  16.885  0.00  0.00    +0.000 A 
BRANCH  13  17
ATOM     17  O   UNL     1       6.378   3.239  13.399  0.00  0.00    +0.000 OA
ATOM     18  C   UNL     1       5.502   3.412  12.288  0.00  0.00    +0.000 C 
ENDBRANCH  13  17
BRANCH  14  19
ATOM     19  O   UNL     1       8.089   5.109  14.108  0.00  0.00    +0.000 OA
ATOM     20  C   UNL     1       7.926   5.864  12.914  0.00  0.00    +0.000 C 
ENDBRANCH  14  19
BRANCH  15  21
ATOM     21  O   UNL     1       7.622   6.724  16.395  0.00  0.00    +0.000 OA
ATOM     22  C   UNL     1       7.598   7.253  17.716  0.00  0.00    +0.000 C 
ENDBRANCH  15  21
ENDBRANCH   7  11
BRANCH   1  23
ATOM     23  O   UNL     1       1.362   9.012  20.108  0.00  0.00    +0.000 OA
BRANCH  23  25
ATOM     24  C   UNL     1       0.243  10.938  20.961  0.00  0.00    +0.000 C 
ATOM     25  C   UNL     1       0.147   9.764  20.004  0.00  0.00    +0.000 C 
ENDBRANCH  23  25
ENDBRANCH   1  23
TORSDOF 6
ENDMDL
