MODEL 1
REMARK VINA RESULT:      -8.2      0.000      0.000
REMARK  Name = 
REMARK  8 active torsions:
REMARK  status: ('A' for Active; 'I' for Inactive)
REMARK    1  A    between atoms: C_1  and  O_2
REMARK    2  A    between atoms: O_2  and  C_3
REMARK    3  A    between atoms: C_5  and  C_6
REMARK    4  A    between atoms: C_6  and  O_8
REMARK    5  A    between atoms: C_11  and  C_12
REMARK    6  A    between atoms: C_12  and  N_13
REMARK    7  A    between atoms: C_19  and  N_20
REMARK    8  A    between atoms: C_21  and  C_23
REMARK                            x       y       z     vdW  Elec       q    Type
REMARK                         _______ _______ _______ _____ _____    ______ ____
ROOT
ATOM      1  N   UNL     1       2.178   5.871  20.588  0.00  0.00    +0.000 N 
ATOM      2  C   UNL     1       2.373   4.798  21.443  0.00  0.00    +0.000 A 
ATOM      3  C   UNL     1       1.651   3.769  20.867  0.00  0.00    +0.000 A 
ATOM      4  C   UNL     1       1.615   4.024  19.468  0.00  0.00    +0.000 A 
ATOM      5  C   UNL     1       1.377   3.154  18.389  0.00  0.00    +0.000 A 
ATOM      6  C   UNL     1       2.207   3.227  17.262  0.00  0.00    +0.000 A 
ATOM      7  C   UNL     1       3.223   4.174  17.154  0.00  0.00    +0.000 A 
ATOM      8  C   UNL     1       3.230   5.254  18.139  0.00  0.00    +0.000 A 
ATOM      9  C   UNL     1       2.304   5.234  19.285  0.00  0.00    +0.000 A 
ENDROOT
BRANCH   7  10
ATOM     10  N   UNL     1       4.295   3.967  16.158  0.00  0.00    +0.000 N 
ATOM     11  C   UNL     1       5.115   4.980  15.575  0.00  0.00    +0.000 C 
ATOM     12  O   UNL     1       5.185   6.141  15.976  0.00  0.00    +0.000 OA
ATOM     13  H   UNL     1       4.363   3.034  15.778  0.00  0.00    +0.000 HD
BRANCH  11  14
ATOM     14  C   UNL     1       6.005   4.685  14.355  0.00  0.00    +0.000 A 
ATOM     15  C   UNL     1       5.550   3.743  13.400  0.00  0.00    +0.000 A 
ATOM     16  C   UNL     1       6.293   3.426  12.239  0.00  0.00    +0.000 A 
ATOM     17  C   UNL     1       7.503   4.066  12.007  0.00  0.00    +0.000 A 
ATOM     18  C   UNL     1       7.947   5.023  12.913  0.00  0.00    +0.000 A 
ATOM     19  C   UNL     1       7.201   5.337  14.080  0.00  0.00    +0.000 A 
ENDBRANCH  11  14
ENDBRANCH   7  10
BRANCH   1  20
ATOM     20  C   UNL     1       1.245   7.022  21.086  0.00  0.00    +0.000 C 
BRANCH  20  26
ATOM     21  C   UNL     1       0.981   9.696  21.092  0.00  0.00    +0.000 A 
ATOM     22  C   UNL     1       0.870  10.952  20.413  0.00  0.00    +0.000 A 
ATOM     23  C   UNL     1       1.167  11.120  19.064  0.00  0.00    +0.000 A 
ATOM     24  C   UNL     1       1.534   9.971  18.376  0.00  0.00    +0.000 A 
ATOM     25  C   UNL     1       1.554   8.693  19.026  0.00  0.00    +0.000 A 
ATOM     26  C   UNL     1       1.212   8.475  20.385  0.00  0.00    +0.000 A 
BRANCH  21  28
ATOM     27  C   UNL     1      -0.417   9.779  23.016  0.00  0.00    +0.000 C 
ATOM     28  O   UNL     1       0.928   9.705  22.476  0.00  0.00    +0.000 OA
ENDBRANCH  21  28
BRANCH  23  29
ATOM     29  C   UNL     1       1.145  12.537  18.556  0.00  0.00    +0.000 C 
ATOM     30  O   UNL     1       2.122  13.268  18.602  0.00  0.00    +0.000 OA
BRANCH  29  31
ATOM     31  O   UNL     1      -0.018  12.966  18.024  0.00  0.00    +0.000 OA
ATOM     32  H   UNL     1      -0.541  12.312  17.544  0.00  0.00    +0.000 HD
ENDBRANCH  29  31
ENDBRANCH  23  29
ENDBRANCH  20  26
ENDBRANCH   1  20
TORSDOF 7
ENDMDL
MODEL 2
REMARK VINA RESULT:      -8.2      2.070      8.461
REMARK  Name = 
REMARK  8 active torsions:
REMARK  status: ('A' for Active; 'I' for Inactive)
REMARK    1  A    between atoms: C_1  and  O_2
REMARK    2  A    between atoms: O_2  and  C_3
REMARK    3  A    between atoms: C_5  and  C_6
REMARK    4  A    between atoms: C_6  and  O_8
REMARK    5  A    between atoms: C_11  and  C_12
REMARK    6  A    between atoms: C_12  and  N_13
REMARK    7  A    between atoms: C_19  and  N_20
REMARK    8  A    between atoms: C_21  and  C_23
REMARK                            x       y       z     vdW  Elec       q    Type
REMARK                         _______ _______ _______ _____ _____    ______ ____
ROOT
ATOM      1  N   UNL     1       2.832   4.323  17.782  0.00  0.00    +0.000 N 
ATOM      2  C   UNL     1       1.681   3.583  18.008  0.00  0.00    +0.000 A 
ATOM      3  C   UNL     1       1.496   3.655  19.377  0.00  0.00    +0.000 A 
ATOM      4  C   UNL     1       2.078   4.879  19.809  0.00  0.00    +0.000 A 
ATOM      5  C   UNL     1       1.852   5.634  20.972  0.00  0.00    +0.000 A 
ATOM      6  C   UNL     1       1.702   7.023  20.861  0.00  0.00    +0.000 A 
ATOM      7  C   UNL     1       1.827   7.685  19.642  0.00  0.00    +0.000 A 
ATOM      8  C   UNL     1       2.375   6.917  18.526  0.00  0.00    +0.000 A 
ATOM      9  C   UNL     1       2.619   5.469  18.654  0.00  0.00    +0.000 A 
ENDROOT
BRANCH   7  10
ATOM     10  N   UNL     1       1.286   9.053  19.507  0.00  0.00    +0.000 N 
ATOM     11  C   UNL     1       1.604   9.990  18.477  0.00  0.00    +0.000 C 
ATOM     12  O   UNL     1       2.212   9.716  17.444  0.00  0.00    +0.000 OA
ATOM     13  H   UNL     1       0.732   9.381  20.284  0.00  0.00    +0.000 HD
BRANCH  11  14
ATOM     14  C   UNL     1       1.195  11.470  18.589  0.00  0.00    +0.000 A 
ATOM     15  C   UNL     1       2.193  12.460  18.420  0.00  0.00    +0.000 A 
ATOM     16  C   UNL     1       1.904  13.843  18.487  0.00  0.00    +0.000 A 
ATOM     17  C   UNL     1       0.597  14.257  18.706  0.00  0.00    +0.000 A 
ATOM     18  C   UNL     1      -0.404  13.300  18.834  0.00  0.00    +0.000 A 
ATOM     19  C   UNL     1      -0.110  11.912  18.772  0.00  0.00    +0.000 A 
ENDBRANCH  11  14
ENDBRANCH   7  10
BRANCH   1  20
ATOM     20  C   UNL     1       4.130   3.533  17.416  0.00  0.00    +0.000 C 
BRANCH  20  26
ATOM     21  C   UNL     1       6.361   4.706  16.484  0.00  0.00    +0.000 A 
ATOM     22  C   UNL     1       7.173   5.191  15.409  0.00  0.00    +0.000 A 
ATOM     23  C   UNL     1       6.949   4.865  14.075  0.00  0.00    +0.000 A 
ATOM     24  C   UNL     1       5.839   4.072  13.822  0.00  0.00    +0.000 A 
ATOM     25  C   UNL     1       4.964   3.662  14.882  0.00  0.00    +0.000 A 
ATOM     26  C   UNL     1       5.133   4.012  16.246  0.00  0.00    +0.000 A 
BRANCH  21  28
ATOM     27  C   UNL     1       7.455   6.155  18.021  0.00  0.00    +0.000 C 
ATOM     28  O   UNL     1       6.836   4.866  17.775  0.00  0.00    +0.000 OA
ENDBRANCH  21  28
BRANCH  23  29
ATOM     29  C   UNL     1       7.993   5.337  13.098  0.00  0.00    +0.000 C 
ATOM     30  O   UNL     1       8.988   5.953  13.445  0.00  0.00    +0.000 OA
BRANCH  29  31
ATOM     31  O   UNL     1       7.785   5.030  11.802  0.00  0.00    +0.000 OA
ATOM     32  H   UNL     1       7.765   5.769  11.180  0.00  0.00    +0.000 HD
ENDBRANCH  29  31
ENDBRANCH  23  29
ENDBRANCH  20  26
ENDBRANCH   1  20
TORSDOF 7
ENDMDL
MODEL 3
REMARK VINA RESULT:      -8.0      4.074      7.305
REMARK  Name = 
REMARK  8 active torsions:
REMARK  status: ('A' for Active; 'I' for Inactive)
REMARK    1  A    between atoms: C_1  and  O_2
REMARK    2  A    between atoms: O_2  and  C_3
REMARK    3  A    between atoms: C_5  and  C_6
REMARK    4  A    between atoms: C_6  and  O_8
REMARK    5  A    between atoms: C_11  and  C_12
REMARK    6  A    between atoms: C_12  and  N_13
REMARK    7  A    between atoms: C_19  and  N_20
REMARK    8  A    between atoms: C_21  and  C_23
REMARK                            x       y       z     vdW  Elec       q    Type
REMARK                         _______ _______ _______ _____ _____    ______ ____
ROOT
ATOM      1  N   UNL     1       0.091  11.825  19.063  0.00  0.00    +0.000 N 
ATOM      2  C   UNL     1       1.011  12.661  19.678  0.00  0.00    +0.000 A 
ATOM      3  C   UNL     1       0.719  12.553  21.025  0.00  0.00    +0.000 A 
ATOM      4  C   UNL     1       0.153  11.263  21.222  0.00  0.00    +0.000 A 
ATOM      5  C   UNL     1       0.042  10.486  22.389  0.00  0.00    +0.000 A 
ATOM      6  C   UNL     1       0.363   9.123  22.331  0.00  0.00    +0.000 A 
ATOM      7  C   UNL     1       0.733   8.502  21.140  0.00  0.00    +0.000 A 
ATOM      8  C   UNL     1       0.527   9.259  19.907  0.00  0.00    +0.000 A 
ATOM      9  C   UNL     1       0.107  10.671  19.949  0.00  0.00    +0.000 A 
ENDROOT
BRANCH   7  10
ATOM     10  N   UNL     1       1.425   7.198  21.194  0.00  0.00    +0.000 N 
ATOM     11  C   UNL     1       2.202   6.608  20.151  0.00  0.00    +0.000 C 
ATOM     12  O   UNL     1       2.576   7.197  19.138  0.00  0.00    +0.000 OA
ATOM     13  H   UNL     1       1.226   6.633  22.007  0.00  0.00    +0.000 HD
BRANCH  11  14
ATOM     14  C   UNL     1       2.644   5.135  20.218  0.00  0.00    +0.000 A 
ATOM     15  C   UNL     1       3.775   4.736  19.466  0.00  0.00    +0.000 A 
ATOM     16  C   UNL     1       4.263   3.409  19.483  0.00  0.00    +0.000 A 
ATOM     17  C   UNL     1       3.632   2.460  20.277  0.00  0.00    +0.000 A 
ATOM     18  C   UNL     1       2.545   2.842  21.055  0.00  0.00    +0.000 A 
ATOM     19  C   UNL     1       2.053   4.175  21.031  0.00  0.00    +0.000 A 
ENDBRANCH  11  14
ENDBRANCH   7  10
BRANCH   1  20
ATOM     20  C   UNL     1      -1.075  12.502  18.273  0.00  0.00    +0.000 C 
BRANCH  20  26
ATOM     21  C   UNL     1      -3.402  11.257  17.771  0.00  0.00    +0.000 A 
ATOM     22  C   UNL     1      -4.800  11.057  18.008  0.00  0.00    +0.000 A 
ATOM     23  C   UNL     1      -5.466  11.561  19.121  0.00  0.00    +0.000 A 
ATOM     24  C   UNL     1      -4.703  12.333  19.986  0.00  0.00    +0.000 A 
ATOM     25  C   UNL     1      -3.326  12.619  19.706  0.00  0.00    +0.000 A 
ATOM     26  C   UNL     1      -2.627  12.163  18.560  0.00  0.00    +0.000 A 
BRANCH  21  28
ATOM     27  C   UNL     1      -3.119  10.898  15.436  0.00  0.00    +0.000 C 
ATOM     28  O   UNL     1      -2.799  10.487  16.791  0.00  0.00    +0.000 OA
ENDBRANCH  21  28
BRANCH  23  29
ATOM     29  C   UNL     1      -6.897  11.123  19.287  0.00  0.00    +0.000 C 
ATOM     30  O   UNL     1      -7.733  11.808  19.856  0.00  0.00    +0.000 OA
BRANCH  29  31
ATOM     31  O   UNL     1      -7.224   9.927  18.758  0.00  0.00    +0.000 OA
ATOM     32  H   UNL     1      -7.763   9.343  19.308  0.00  0.00    +0.000 HD
ENDBRANCH  29  31
ENDBRANCH  23  29
ENDBRANCH  20  26
ENDBRANCH   1  20
TORSDOF 7
ENDMDL
MODEL 4
REMARK VINA RESULT:      -7.9      4.021      7.117
REMARK  Name = 
REMARK  8 active torsions:
REMARK  status: ('A' for Active; 'I' for Inactive)
REMARK    1  A    between atoms: C_1  and  O_2
REMARK    2  A    between atoms: O_2  and  C_3
REMARK    3  A    between atoms: C_5  and  C_6
REMARK    4  A    between atoms: C_6  and  O_8
REMARK    5  A    between atoms: C_11  and  C_12
REMARK    6  A    between atoms: C_12  and  N_13
REMARK    7  A    between atoms: C_19  and  N_20
REMARK    8  A    between atoms: C_21  and  C_23
REMARK                            x       y       z     vdW  Elec       q    Type
REMARK                         _______ _______ _______ _____ _____    ______ ____
ROOT
ATOM      1  N   UNL     1       0.177  11.797  19.018  0.00  0.00    +0.000 N 
ATOM      2  C   UNL     1       1.008  12.684  19.686  0.00  0.00    +0.000 A 
ATOM      3  C   UNL     1       0.705  12.490  21.021  0.00  0.00    +0.000 A 
ATOM      4  C   UNL     1       0.254  11.147  21.151  0.00  0.00    +0.000 A 
ATOM      5  C   UNL     1       0.194  10.312  22.281  0.00  0.00    +0.000 A 
ATOM      6  C   UNL     1       0.637   8.987  22.171  0.00  0.00    +0.000 A 
ATOM      7  C   UNL     1       1.082   8.456  20.962  0.00  0.00    +0.000 A 
ATOM      8  C   UNL     1       0.829   9.245  19.759  0.00  0.00    +0.000 A 
ATOM      9  C   UNL     1       0.282  10.611  19.853  0.00  0.00    +0.000 A 
ENDROOT
BRANCH   7  10
ATOM     10  N   UNL     1       1.888   7.217  20.975  0.00  0.00    +0.000 N 
ATOM     11  C   UNL     1       2.423   6.545  19.834  0.00  0.00    +0.000 C 
ATOM     12  O   UNL     1       2.465   7.017  18.699  0.00  0.00    +0.000 OA
ATOM     13  H   UNL     1       1.960   6.753  21.868  0.00  0.00    +0.000 HD
BRANCH  11  14
ATOM     14  C   UNL     1       3.008   5.126  19.944  0.00  0.00    +0.000 A 
ATOM     15  C   UNL     1       2.360   4.193  20.790  0.00  0.00    +0.000 A 
ATOM     16  C   UNL     1       2.816   2.862  20.936  0.00  0.00    +0.000 A 
ATOM     17  C   UNL     1       3.925   2.438  20.217  0.00  0.00    +0.000 A 
ATOM     18  C   UNL     1       4.551   3.328  19.350  0.00  0.00    +0.000 A 
ATOM     19  C   UNL     1       4.093   4.665  19.209  0.00  0.00    +0.000 A 
ENDBRANCH  11  14
ENDBRANCH   7  10
BRANCH   1  20
ATOM     20  C   UNL     1      -1.032  12.402  18.234  0.00  0.00    +0.000 C 
BRANCH  20  26
ATOM     21  C   UNL     1      -3.483  11.323  18.020  0.00  0.00    +0.000 A 
ATOM     22  C   UNL     1      -4.857  11.229  18.415  0.00  0.00    +0.000 A 
ATOM     23  C   UNL     1      -5.356  11.797  19.583  0.00  0.00    +0.000 A 
ATOM     24  C   UNL     1      -4.449  12.524  20.340  0.00  0.00    +0.000 A 
ATOM     25  C   UNL     1      -3.095  12.704  19.903  0.00  0.00    +0.000 A 
ATOM     26  C   UNL     1      -2.562  12.181  18.698  0.00  0.00    +0.000 A 
BRANCH  21  28
ATOM     27  C   UNL     1      -3.358  10.989  15.668  0.00  0.00    +0.000 C 
ATOM     28  O   UNL     1      -3.049  10.496  16.998  0.00  0.00    +0.000 OA
ENDBRANCH  21  28
BRANCH  23  29
ATOM     29  C   UNL     1      -6.788  11.466  19.916  0.00  0.00    +0.000 C 
ATOM     30  O   UNL     1      -7.126  11.039  21.008  0.00  0.00    +0.000 OA
BRANCH  29  31
ATOM     31  O   UNL     1      -7.696  11.681  18.943  0.00  0.00    +0.000 OA
ATOM     32  H   UNL     1      -7.389  11.572  18.033  0.00  0.00    +0.000 HD
ENDBRANCH  29  31
ENDBRANCH  23  29
ENDBRANCH  20  26
ENDBRANCH   1  20
TORSDOF 7
ENDMDL
MODEL 5
REMARK VINA RESULT:      -7.9      2.069      8.475
REMARK  Name = 
REMARK  8 active torsions:
REMARK  status: ('A' for Active; 'I' for Inactive)
REMARK    1  A    between atoms: C_1  and  O_2
REMARK    2  A    between atoms: O_2  and  C_3
REMARK    3  A    between atoms: C_5  and  C_6
REMARK    4  A    between atoms: C_6  and  O_8
REMARK    5  A    between atoms: C_11  and  C_12
REMARK    6  A    between atoms: C_12  and  N_13
REMARK    7  A    between atoms: C_19  and  N_20
REMARK    8  A    between atoms: C_21  and  C_23
REMARK                            x       y       z     vdW  Elec       q    Type
REMARK                         _______ _______ _______ _____ _____    ______ ____
ROOT
ATOM      1  N   UNL     1       2.909   4.327  17.644  0.00  0.00    +0.000 N 
ATOM      2  C   UNL     1       1.763   3.575  17.856  0.00  0.00    +0.000 A 
ATOM      3  C   UNL     1       1.576   3.622  19.225  0.00  0.00    +0.000 A 
ATOM      4  C   UNL     1       2.149   4.843  19.678  0.00  0.00    +0.000 A 
ATOM      5  C   UNL     1       1.915   5.577  20.854  0.00  0.00    +0.000 A 
ATOM      6  C   UNL     1       1.755   6.966  20.767  0.00  0.00    +0.000 A 
ATOM      7  C   UNL     1       1.878   7.649  19.559  0.00  0.00    +0.000 A 
ATOM      8  C   UNL     1       2.434   6.904  18.431  0.00  0.00    +0.000 A 
ATOM      9  C   UNL     1       2.687   5.456  18.535  0.00  0.00    +0.000 A 
ENDROOT
BRANCH   7  10
ATOM     10  N   UNL     1       1.328   9.016  19.446  0.00  0.00    +0.000 N 
ATOM     11  C   UNL     1       1.592   9.950  18.399  0.00  0.00    +0.000 C 
ATOM     12  O   UNL     1       2.149   9.674  17.338  0.00  0.00    +0.000 OA
ATOM     13  H   UNL     1       0.812   9.345  20.249  0.00  0.00    +0.000 HD
BRANCH  11  14
ATOM     14  C   UNL     1       1.186  11.429  18.526  0.00  0.00    +0.000 A 
ATOM     15  C   UNL     1      -0.182  11.739  18.722  0.00  0.00    +0.000 A 
ATOM     16  C   UNL     1      -0.642  13.068  18.869  0.00  0.00    +0.000 A 
ATOM     17  C   UNL     1       0.272  14.113  18.841  0.00  0.00    +0.000 A 
ATOM     18  C   UNL     1       1.624  13.827  18.690  0.00  0.00    +0.000 A 
ATOM     19  C   UNL     1       2.083  12.491  18.538  0.00  0.00    +0.000 A 
ENDBRANCH  11  14
ENDBRANCH   7  10
BRANCH   1  20
ATOM     20  C   UNL     1       4.214   3.552  17.267  0.00  0.00    +0.000 C 
BRANCH  20  26
ATOM     21  C   UNL     1       6.185   5.060  16.237  0.00  0.00    +0.000 A 
ATOM     22  C   UNL     1       6.972   5.520  15.133  0.00  0.00    +0.000 A 
ATOM     23  C   UNL     1       6.985   4.893  13.891  0.00  0.00    +0.000 A 
ATOM     24  C   UNL     1       6.136   3.804  13.751  0.00  0.00    +0.000 A 
ATOM     25  C   UNL     1       5.273   3.396  14.821  0.00  0.00    +0.000 A 
ATOM     26  C   UNL     1       5.197   4.037  16.083  0.00  0.00    +0.000 A 
BRANCH  21  28
ATOM     27  C   UNL     1       7.591   4.971  18.154  0.00  0.00    +0.000 C 
ATOM     28  O   UNL     1       6.458   5.587  17.488  0.00  0.00    +0.000 OA
ENDBRANCH  21  28
BRANCH  23  29
ATOM     29  C   UNL     1       7.988   5.421  12.898  0.00  0.00    +0.000 C 
ATOM     30  O   UNL     1       7.833   5.321  11.691  0.00  0.00    +0.000 OA
BRANCH  29  31
ATOM     31  O   UNL     1       9.075   6.032  13.409  0.00  0.00    +0.000 OA
ATOM     32  H   UNL     1       9.865   6.046  12.853  0.00  0.00    +0.000 HD
ENDBRANCH  29  31
ENDBRANCH  23  29
ENDBRANCH  20  26
ENDBRANCH   1  20
TORSDOF 7
ENDMDL
MODEL 6
REMARK VINA RESULT:      -7.9      0.349      1.015
REMARK  Name = 
REMARK  8 active torsions:
REMARK  status: ('A' for Active; 'I' for Inactive)
REMARK    1  A    between atoms: C_1  and  O_2
REMARK    2  A    between atoms: O_2  and  C_3
REMARK    3  A    between atoms: C_5  and  C_6
REMARK    4  A    between atoms: C_6  and  O_8
REMARK    5  A    between atoms: C_11  and  C_12
REMARK    6  A    between atoms: C_12  and  N_13
REMARK    7  A    between atoms: C_19  and  N_20
REMARK    8  A    between atoms: C_21  and  C_23
REMARK                            x       y       z     vdW  Elec       q    Type
REMARK                         _______ _______ _______ _____ _____    ______ ____
ROOT
ATOM      1  N   UNL     1       2.134   5.986  20.558  0.00  0.00    +0.000 N 
ATOM      2  C   UNL     1       2.401   4.965  21.457  0.00  0.00    +0.000 A 
ATOM      3  C   UNL     1       1.679   3.890  20.971  0.00  0.00    +0.000 A 
ATOM      4  C   UNL     1       1.567   4.070  19.564  0.00  0.00    +0.000 A 
ATOM      5  C   UNL     1       1.299   3.139  18.545  0.00  0.00    +0.000 A 
ATOM      6  C   UNL     1       2.070   3.173  17.376  0.00  0.00    +0.000 A 
ATOM      7  C   UNL     1       3.054   4.137  17.167  0.00  0.00    +0.000 A 
ATOM      8  C   UNL     1       3.080   5.267  18.094  0.00  0.00    +0.000 A 
ATOM      9  C   UNL     1       2.213   5.285  19.285  0.00  0.00    +0.000 A 
ENDROOT
BRANCH   7  10
ATOM     10  N   UNL     1       4.080   3.904  16.130  0.00  0.00    +0.000 N 
ATOM     11  C   UNL     1       5.010   4.866  15.630  0.00  0.00    +0.000 C 
ATOM     12  O   UNL     1       5.226   5.964  16.141  0.00  0.00    +0.000 OA
ATOM     13  H   UNL     1       4.030   3.013  15.659  0.00  0.00    +0.000 HD
BRANCH  11  14
ATOM     14  C   UNL     1       5.843   4.590  14.365  0.00  0.00    +0.000 A 
ATOM     15  C   UNL     1       7.068   5.281  14.200  0.00  0.00    +0.000 A 
ATOM     16  C   UNL     1       7.906   5.075  13.080  0.00  0.00    +0.000 A 
ATOM     17  C   UNL     1       7.536   4.152  12.112  0.00  0.00    +0.000 A 
ATOM     18  C   UNL     1       6.357   3.434  12.276  0.00  0.00    +0.000 A 
ATOM     19  C   UNL     1       5.514   3.646  13.399  0.00  0.00    +0.000 A 
ENDBRANCH  11  14
ENDBRANCH   7  10
BRANCH   1  20
ATOM     20  C   UNL     1       1.196   7.139  21.043  0.00  0.00    +0.000 C 
BRANCH  20  26
ATOM     21  C   UNL     1       1.019   9.819  21.090  0.00  0.00    +0.000 A 
ATOM     22  C   UNL     1       0.937  11.087  20.430  0.00  0.00    +0.000 A 
ATOM     23  C   UNL     1       1.215  11.264  19.078  0.00  0.00    +0.000 A 
ATOM     24  C   UNL     1       1.532  10.114  18.368  0.00  0.00    +0.000 A 
ATOM     25  C   UNL     1       1.522   8.827  19.000  0.00  0.00    +0.000 A 
ATOM     26  C   UNL     1       1.198   8.602  20.362  0.00  0.00    +0.000 A 
BRANCH  21  28
ATOM     27  C   UNL     1      -0.344   9.839  23.039  0.00  0.00    +0.000 C 
ATOM     28  O   UNL     1       0.992   9.811  22.474  0.00  0.00    +0.000 OA
ENDBRANCH  21  28
BRANCH  23  29
ATOM     29  C   UNL     1       1.230  12.689  18.589  0.00  0.00    +0.000 C 
ATOM     30  O   UNL     1       0.541  13.563  19.091  0.00  0.00    +0.000 OA
BRANCH  29  31
ATOM     31  O   UNL     1       2.063  12.964  17.566  0.00  0.00    +0.000 OA
ATOM     32  H   UNL     1       2.440  12.207  17.099  0.00  0.00    +0.000 HD
ENDBRANCH  29  31
ENDBRANCH  23  29
ENDBRANCH  20  26
ENDBRANCH   1  20
TORSDOF 7
ENDMDL
MODEL 7
REMARK VINA RESULT:      -7.8      2.210      9.079
REMARK  Name = 
REMARK  8 active torsions:
REMARK  status: ('A' for Active; 'I' for Inactive)
REMARK    1  A    between atoms: C_1  and  O_2
REMARK    2  A    between atoms: O_2  and  C_3
REMARK    3  A    between atoms: C_5  and  C_6
REMARK    4  A    between atoms: C_6  and  O_8
REMARK    5  A    between atoms: C_11  and  C_12
REMARK    6  A    between atoms: C_12  and  N_13
REMARK    7  A    between atoms: C_19  and  N_20
REMARK    8  A    between atoms: C_21  and  C_23
REMARK                            x       y       z     vdW  Elec       q    Type
REMARK                         _______ _______ _______ _____ _____    ______ ____
ROOT
ATOM      1  N   UNL     1       2.910   4.760  17.953  0.00  0.00    +0.000 N 
ATOM      2  C   UNL     1       1.752   4.001  18.025  0.00  0.00    +0.000 A 
ATOM      3  C   UNL     1       1.420   4.017  19.367  0.00  0.00    +0.000 A 
ATOM      4  C   UNL     1       1.935   5.229  19.905  0.00  0.00    +0.000 A 
ATOM      5  C   UNL     1       1.573   5.936  21.065  0.00  0.00    +0.000 A 
ATOM      6  C   UNL     1       1.417   7.327  20.991  0.00  0.00    +0.000 A 
ATOM      7  C   UNL     1       1.664   8.037  19.818  0.00  0.00    +0.000 A 
ATOM      8  C   UNL     1       2.340   7.318  18.740  0.00  0.00    +0.000 A 
ATOM      9  C   UNL     1       2.589   5.869  18.839  0.00  0.00    +0.000 A 
ENDROOT
BRANCH   7  10
ATOM     10  N   UNL     1       1.121   9.404  19.676  0.00  0.00    +0.000 N 
ATOM     11  C   UNL     1       0.885  10.334  20.734  0.00  0.00    +0.000 C 
ATOM     12  O   UNL     1       1.296  10.203  21.886  0.00  0.00    +0.000 OA
ATOM     13  H   UNL     1       0.784   9.645  18.756  0.00  0.00    +0.000 HD
BRANCH  11  14
ATOM     14  C   UNL     1       0.067  11.617  20.502  0.00  0.00    +0.000 A 
ATOM     15  C   UNL     1       0.760  12.809  20.178  0.00  0.00    +0.000 A 
ATOM     16  C   UNL     1       0.089  14.029  19.929  0.00  0.00    +0.000 A 
ATOM     17  C   UNL     1      -1.298  14.067  19.983  0.00  0.00    +0.000 A 
ATOM     18  C   UNL     1      -1.998  12.898  20.261  0.00  0.00    +0.000 A 
ATOM     19  C   UNL     1      -1.321  11.675  20.515  0.00  0.00    +0.000 A 
ENDBRANCH  11  14
ENDBRANCH   7  10
BRANCH   1  20
ATOM     20  C   UNL     1       4.251   3.998  17.700  0.00  0.00    +0.000 C 
BRANCH  20  26
ATOM     21  C   UNL     1       6.584   4.664  16.545  0.00  0.00    +0.000 A 
ATOM     22  C   UNL     1       7.364   5.025  15.400  0.00  0.00    +0.000 A 
ATOM     23  C   UNL     1       6.913   4.880  14.092  0.00  0.00    +0.000 A 
ATOM     24  C   UNL     1       5.616   4.408  13.946  0.00  0.00    +0.000 A 
ATOM     25  C   UNL     1       4.794   4.135  15.089  0.00  0.00    +0.000 A 
ATOM     26  C   UNL     1       5.202   4.314  16.435  0.00  0.00    +0.000 A 
BRANCH  21  28
ATOM     27  C   UNL     1       7.541   5.883  18.350  0.00  0.00    +0.000 C 
ATOM     28  O   UNL     1       7.230   4.591  17.768  0.00  0.00    +0.000 OA
ENDBRANCH  21  28
BRANCH  23  29
ATOM     29  C   UNL     1       7.923   5.164  13.011  0.00  0.00    +0.000 C 
ATOM     30  O   UNL     1       8.935   5.817  13.212  0.00  0.00    +0.000 OA
BRANCH  29  31
ATOM     31  O   UNL     1       7.664   4.643  11.795  0.00  0.00    +0.000 OA
ATOM     32  H   UNL     1       8.429   4.404  11.256  0.00  0.00    +0.000 HD
ENDBRANCH  29  31
ENDBRANCH  23  29
ENDBRANCH  20  26
ENDBRANCH   1  20
TORSDOF 7
ENDMDL
MODEL 8
REMARK VINA RESULT:      -7.7      3.953      6.928
REMARK  Name = 
REMARK  8 active torsions:
REMARK  status: ('A' for Active; 'I' for Inactive)
REMARK    1  A    between atoms: C_1  and  O_2
REMARK    2  A    between atoms: O_2  and  C_3
REMARK    3  A    between atoms: C_5  and  C_6
REMARK    4  A    between atoms: C_6  and  O_8
REMARK    5  A    between atoms: C_11  and  C_12
REMARK    6  A    between atoms: C_12  and  N_13
REMARK    7  A    between atoms: C_19  and  N_20
REMARK    8  A    between atoms: C_21  and  C_23
REMARK                            x       y       z     vdW  Elec       q    Type
REMARK                         _______ _______ _______ _____ _____    ______ ____
ROOT
ATOM      1  N   UNL     1       0.285  11.862  19.060  0.00  0.00    +0.000 N 
ATOM      2  C   UNL     1       1.018  12.708  19.878  0.00  0.00    +0.000 A 
ATOM      3  C   UNL     1       0.541  12.447  21.150  0.00  0.00    +0.000 A 
ATOM      4  C   UNL     1       0.078  11.102  21.149  0.00  0.00    +0.000 A 
ATOM      5  C   UNL     1      -0.131  10.210  22.216  0.00  0.00    +0.000 A 
ATOM      6  C   UNL     1       0.325   8.890  22.097  0.00  0.00    +0.000 A 
ATOM      7  C   UNL     1       0.927   8.419  20.932  0.00  0.00    +0.000 A 
ATOM      8  C   UNL     1       0.835   9.271  19.748  0.00  0.00    +0.000 A 
ATOM      9  C   UNL     1       0.279  10.633  19.840  0.00  0.00    +0.000 A 
ENDROOT
BRANCH   7  10
ATOM     10  N   UNL     1       1.725   7.177  20.987  0.00  0.00    +0.000 N 
ATOM     11  C   UNL     1       2.379   6.543  19.888  0.00  0.00    +0.000 C 
ATOM     12  O   UNL     1       2.543   7.053  18.781  0.00  0.00    +0.000 OA
ATOM     13  H   UNL     1       1.701   6.682  21.867  0.00  0.00    +0.000 HD
BRANCH  11  14
ATOM     14  C   UNL     1       2.947   5.117  20.010  0.00  0.00    +0.000 A 
ATOM     15  C   UNL     1       2.312   4.211  20.894  0.00  0.00    +0.000 A 
ATOM     16  C   UNL     1       2.754   2.877  21.054  0.00  0.00    +0.000 A 
ATOM     17  C   UNL     1       3.835   2.423  20.311  0.00  0.00    +0.000 A 
ATOM     18  C   UNL     1       4.447   3.285  19.408  0.00  0.00    +0.000 A 
ATOM     19  C   UNL     1       4.004   4.626  19.253  0.00  0.00    +0.000 A 
ENDBRANCH  11  14
ENDBRANCH   7  10
BRANCH   1  20
ATOM     20  C   UNL     1      -0.811  12.513  18.155  0.00  0.00    +0.000 C 
BRANCH  20  26
ATOM     21  C   UNL     1      -3.219  12.388  19.340  0.00  0.00    +0.000 A 
ATOM     22  C   UNL     1      -4.567  11.908  19.405  0.00  0.00    +0.000 A 
ATOM     23  C   UNL     1      -5.210  11.292  18.337  0.00  0.00    +0.000 A 
ATOM     24  C   UNL     1      -4.447  11.109  17.191  0.00  0.00    +0.000 A 
ATOM     25  C   UNL     1      -3.068  11.499  17.151  0.00  0.00    +0.000 A 
ATOM     26  C   UNL     1      -2.365  12.086  18.234  0.00  0.00    +0.000 A 
BRANCH  21  28
ATOM     27  C   UNL     1      -3.325  12.896  21.662  0.00  0.00    +0.000 C 
ATOM     28  O   UNL     1      -2.782  13.220  20.356  0.00  0.00    +0.000 OA
ENDBRANCH  21  28
BRANCH  23  29
ATOM     29  C   UNL     1      -6.674  10.994  18.532  0.00  0.00    +0.000 C 
ATOM     30  O   UNL     1      -7.548  11.814  18.302  0.00  0.00    +0.000 OA
BRANCH  29  31
ATOM     31  O   UNL     1      -6.981   9.754  18.965  0.00  0.00    +0.000 OA
ATOM     32  H   UNL     1      -6.589   9.017  18.479  0.00  0.00    +0.000 HD
ENDBRANCH  29  31
ENDBRANCH  23  29
ENDBRANCH  20  26
ENDBRANCH   1  20
TORSDOF 7
ENDMDL
MODEL 9
REMARK VINA RESULT:      -7.7      2.159      8.891
REMARK  Name = 
REMARK  8 active torsions:
REMARK  status: ('A' for Active; 'I' for Inactive)
REMARK    1  A    between atoms: C_1  and  O_2
REMARK    2  A    between atoms: O_2  and  C_3
REMARK    3  A    between atoms: C_5  and  C_6
REMARK    4  A    between atoms: C_6  and  O_8
REMARK    5  A    between atoms: C_11  and  C_12
REMARK    6  A    between atoms: C_12  and  N_13
REMARK    7  A    between atoms: C_19  and  N_20
REMARK    8  A    between atoms: C_21  and  C_23
REMARK                            x       y       z     vdW  Elec       q    Type
REMARK                         _______ _______ _______ _____ _____    ______ ____
ROOT
ATOM      1  N   UNL     1       2.997   4.314  17.722  0.00  0.00    +0.000 N 
ATOM      2  C   UNL     1       1.819   3.582  17.745  0.00  0.00    +0.000 A 
ATOM      3  C   UNL     1       1.521   3.463  19.090  0.00  0.00    +0.000 A 
ATOM      4  C   UNL     1       2.085   4.596  19.740  0.00  0.00    +0.000 A 
ATOM      5  C   UNL     1       1.774   5.184  20.978  0.00  0.00    +0.000 A 
ATOM      6  C   UNL     1       1.657   6.578  21.058  0.00  0.00    +0.000 A 
ATOM      7  C   UNL     1       1.895   7.403  19.961  0.00  0.00    +0.000 A 
ATOM      8  C   UNL     1       2.522   6.787  18.793  0.00  0.00    +0.000 A 
ATOM      9  C   UNL     1       2.730   5.329  18.730  0.00  0.00    +0.000 A 
ENDROOT
BRANCH   7  10
ATOM     10  N   UNL     1       1.390   8.792  19.982  0.00  0.00    +0.000 N 
ATOM     11  C   UNL     1       0.234   9.260  20.676  0.00  0.00    +0.000 C 
ATOM     12  O   UNL     1      -0.383   8.617  21.524  0.00  0.00    +0.000 OA
ATOM     13  H   UNL     1       1.848   9.431  19.349  0.00  0.00    +0.000 HD
BRANCH  11  14
ATOM     14  C   UNL     1      -0.349  10.659  20.406  0.00  0.00    +0.000 A 
ATOM     15  C   UNL     1      -0.852  10.942  19.113  0.00  0.00    +0.000 A 
ATOM     16  C   UNL     1      -1.423  12.192  18.781  0.00  0.00    +0.000 A 
ATOM     17  C   UNL     1      -1.517  13.179  19.754  0.00  0.00    +0.000 A 
ATOM     18  C   UNL     1      -1.065  12.907  21.040  0.00  0.00    +0.000 A 
ATOM     19  C   UNL     1      -0.487  11.651  21.369  0.00  0.00    +0.000 A 
ENDBRANCH  11  14
ENDBRANCH   7  10
BRANCH   1  20
ATOM     20  C   UNL     1       4.308   3.548  17.351  0.00  0.00    +0.000 C 
BRANCH  20  26
ATOM     21  C   UNL     1       6.509   4.741  16.376  0.00  0.00    +0.000 A 
ATOM     22  C   UNL     1       7.298   5.229  15.286  0.00  0.00    +0.000 A 
ATOM     23  C   UNL     1       7.056   4.895  13.957  0.00  0.00    +0.000 A 
ATOM     24  C   UNL     1       5.950   4.088  13.726  0.00  0.00    +0.000 A 
ATOM     25  C   UNL     1       5.098   3.673  14.803  0.00  0.00    +0.000 A 
ATOM     26  C   UNL     1       5.286   4.032  16.162  0.00  0.00    +0.000 A 
BRANCH  21  28
ATOM     27  C   UNL     1       6.854   6.261  18.173  0.00  0.00    +0.000 C 
ATOM     28  O   UNL     1       7.004   4.913  17.658  0.00  0.00    +0.000 OA
ENDBRANCH  21  28
BRANCH  23  29
ATOM     29  C   UNL     1       8.078   5.373  12.960  0.00  0.00    +0.000 C 
ATOM     30  O   UNL     1       9.119   5.915  13.295  0.00  0.00    +0.000 OA
BRANCH  29  31
ATOM     31  O   UNL     1       7.795   5.159  11.659  0.00  0.00    +0.000 OA
ATOM     32  H   UNL     1       7.364   4.321  11.443  0.00  0.00    +0.000 HD
ENDBRANCH  29  31
ENDBRANCH  23  29
ENDBRANCH  20  26
ENDBRANCH   1  20
TORSDOF 7
ENDMDL
