MODEL 1
REMARK VINA RESULT:      -8.1      0.000      0.000
REMARK  Name = 
REMARK  10 active torsions:
REMARK  status: ('A' for Active; 'I' for Inactive)
REMARK    1  A    between atoms: C_1  and  C_2
REMARK    2  A    between atoms: C_2  and  N_3
REMARK    3  A    between atoms: C_4  and  C_6
REMARK    4  A    between atoms: C_7  and  C_8
REMARK    5  A    between atoms: C_12  and  C_13
REMARK    6  A    between atoms: C_13  and  N_14
REMARK    7  A    between atoms: C_16  and  C_17
REMARK    8  A    between atoms: C_22  and  O_23
REMARK    9  A    between atoms: O_23  and  C_24
REMARK   10  A    between atoms: C_24  and  C_25
REMARK                            x       y       z     vdW  Elec       q    Type
REMARK                         _______ _______ _______ _____ _____    ______ ____
ROOT
ATOM      1  C   UNL     1       0.247  10.231  19.856  0.00  0.00    +0.000 A 
ATOM      2  C   UNL     1      -0.086  10.431  21.155  0.00  0.00    +0.000 A 
ATOM      3  C   UNL     1      -0.960  11.456  21.810  0.00  0.00    +0.000 C 
ATOM      4  S   UNL     1       0.644   9.208  22.189  0.00  0.00    +0.000 S 
ATOM      5  C   UNL     1       1.352   8.410  20.806  0.00  0.00    +0.000 A 
ATOM      6  N   UNL     1       2.034   7.317  20.905  0.00  0.00    +0.000 NA
ATOM      7  C   UNL     1       2.455   6.761  19.717  0.00  0.00    +0.000 A 
ATOM      8  C   UNL     1       2.321   7.386  18.542  0.00  0.00    +0.000 A 
ATOM      9  C   UNL     1       1.710   8.719  18.503  0.00  0.00    +0.000 A 
ATOM     10  O   UNL     1       1.800   9.331  17.450  0.00  0.00    +0.000 OA
ATOM     11  N   UNL     1       1.071   9.109  19.653  0.00  0.00    +0.000 N 
ENDROOT
BRANCH   1  13
ATOM     12  N   UNL     1      -1.454  10.665  18.164  0.00  0.00    +0.000 N 
ATOM     13  C   UNL     1      -0.305  11.101  18.761  0.00  0.00    +0.000 C 
ATOM     14  O   UNL     1       0.225  12.162  18.446  0.00  0.00    +0.000 OA
ATOM     15  H   UNL     1      -1.783   9.725  18.333  0.00  0.00    +0.000 HD
BRANCH  12  17
ATOM     16  C   UNL     1      -2.642  10.222  16.124  0.00  0.00    +0.000 C 
ATOM     17  C   UNL     1      -2.038  11.291  17.006  0.00  0.00    +0.000 C 
ENDBRANCH  12  17
ENDBRANCH   1  13
BRANCH   7  18
ATOM     18  C   UNL     1       3.064   5.378  19.777  0.00  0.00    +0.000 C 
BRANCH  18  19
ATOM     19  N   UNL     1       3.929   5.037  18.645  0.00  0.00    +0.000 N 
ATOM     20  N   UNL     1       5.219   5.448  18.669  0.00  0.00    +0.000 NA
ATOM     21  C   UNL     1       5.720   5.062  17.479  0.00  0.00    +0.000 A 
ATOM     22  C   UNL     1       4.743   4.358  16.728  0.00  0.00    +0.000 A 
ATOM     23  C   UNL     1       3.612   4.322  17.514  0.00  0.00    +0.000 A 
BRANCH  21  24
ATOM     24  C   UNL     1       7.120   5.385  17.024  0.00  0.00    +0.000 C 
ATOM     25  F   UNL     1       7.247   5.507  15.678  0.00  0.00    +0.000 F 
ATOM     26  F   UNL     1       7.571   6.548  17.569  0.00  0.00    +0.000 F 
ATOM     27  F   UNL     1       7.996   4.418  17.414  0.00  0.00    +0.000 F 
ENDBRANCH  21  24
BRANCH  23  28
ATOM     28  O   UNL     1       2.392   3.808  17.343  0.00  0.00    +0.000 OA
BRANCH  28  29
ATOM     29  C   UNL     1       2.228   2.461  17.784  0.00  0.00    +0.000 C 
ATOM     30  C   UNL     1       1.038   2.408  18.723  0.00  0.00    +0.000 C 
ENDBRANCH  28  29
ENDBRANCH  23  28
ENDBRANCH  18  19
ENDBRANCH   7  18
TORSDOF 7
ENDMDL
MODEL 2
REMARK VINA RESULT:      -7.7      0.923      1.278
REMARK  Name = 
REMARK  10 active torsions:
REMARK  status: ('A' for Active; 'I' for Inactive)
REMARK    1  A    between atoms: C_1  and  C_2
REMARK    2  A    between atoms: C_2  and  N_3
REMARK    3  A    between atoms: C_4  and  C_6
REMARK    4  A    between atoms: C_7  and  C_8
REMARK    5  A    between atoms: C_12  and  C_13
REMARK    6  A    between atoms: C_13  and  N_14
REMARK    7  A    between atoms: C_16  and  C_17
REMARK    8  A    between atoms: C_22  and  O_23
REMARK    9  A    between atoms: O_23  and  C_24
REMARK   10  A    between atoms: C_24  and  C_25
REMARK                            x       y       z     vdW  Elec       q    Type
REMARK                         _______ _______ _______ _____ _____    ______ ____
ROOT
ATOM      1  C   UNL     1       0.021  10.324  19.835  0.00  0.00    +0.000 A 
ATOM      2  C   UNL     1      -0.352  10.524  21.124  0.00  0.00    +0.000 A 
ATOM      3  C   UNL     1      -1.311  11.494  21.742  0.00  0.00    +0.000 C 
ATOM      4  S   UNL     1       0.444   9.376  22.195  0.00  0.00    +0.000 S 
ATOM      5  C   UNL     1       1.235   8.606  20.842  0.00  0.00    +0.000 A 
ATOM      6  N   UNL     1       1.992   7.568  20.976  0.00  0.00    +0.000 NA
ATOM      7  C   UNL     1       2.476   7.022  19.807  0.00  0.00    +0.000 A 
ATOM      8  C   UNL     1       2.321   7.613  18.617  0.00  0.00    +0.000 A 
ATOM      9  C   UNL     1       1.617   8.898  18.540  0.00  0.00    +0.000 A 
ATOM     10  O   UNL     1       1.683   9.496  17.477  0.00  0.00    +0.000 OA
ATOM     11  N   UNL     1       0.928   9.262  19.670  0.00  0.00    +0.000 N 
ENDROOT
BRANCH   1  13
ATOM     12  N   UNL     1      -1.729  10.653  18.170  0.00  0.00    +0.000 N 
ATOM     13  C   UNL     1      -0.570  11.132  18.713  0.00  0.00    +0.000 C 
ATOM     14  O   UNL     1      -0.062  12.181  18.331  0.00  0.00    +0.000 OA
ATOM     15  H   UNL     1      -2.042   9.720  18.395  0.00  0.00    +0.000 HD
BRANCH  12  17
ATOM     16  C   UNL     1      -2.511  10.125  15.962  0.00  0.00    +0.000 C 
ATOM     17  C   UNL     1      -2.351  11.213  16.998  0.00  0.00    +0.000 C 
ENDBRANCH  12  17
ENDBRANCH   1  13
BRANCH   7  18
ATOM     18  C   UNL     1       3.182   5.688  19.906  0.00  0.00    +0.000 C 
BRANCH  18  19
ATOM     19  N   UNL     1       3.413   5.017  18.624  0.00  0.00    +0.000 N 
ATOM     20  N   UNL     1       4.626   5.142  18.037  0.00  0.00    +0.000 NA
ATOM     21  C   UNL     1       4.501   4.498  16.860  0.00  0.00    +0.000 A 
ATOM     22  C   UNL     1       3.209   3.922  16.738  0.00  0.00    +0.000 A 
ATOM     23  C   UNL     1       2.541   4.238  17.901  0.00  0.00    +0.000 A 
BRANCH  21  24
ATOM     24  C   UNL     1       5.591   4.448  15.821  0.00  0.00    +0.000 C 
ATOM     25  F   UNL     1       5.970   3.189  15.480  0.00  0.00    +0.000 F 
ATOM     26  F   UNL     1       5.220   5.072  14.670  0.00  0.00    +0.000 F 
ATOM     27  F   UNL     1       6.712   5.089  16.256  0.00  0.00    +0.000 F 
ENDBRANCH  21  24
BRANCH  23  28
ATOM     28  O   UNL     1       1.312   3.978  18.352  0.00  0.00    +0.000 OA
BRANCH  28  29
ATOM     29  C   UNL     1       1.122   2.672  18.894  0.00  0.00    +0.000 C 
ATOM     30  C   UNL     1       1.080   2.785  20.406  0.00  0.00    +0.000 C 
ENDBRANCH  28  29
ENDBRANCH  23  28
ENDBRANCH  18  19
ENDBRANCH   7  18
TORSDOF 7
ENDMDL
MODEL 3
REMARK VINA RESULT:      -7.7      0.655      1.059
REMARK  Name = 
REMARK  10 active torsions:
REMARK  status: ('A' for Active; 'I' for Inactive)
REMARK    1  A    between atoms: C_1  and  C_2
REMARK    2  A    between atoms: C_2  and  N_3
REMARK    3  A    between atoms: C_4  and  C_6
REMARK    4  A    between atoms: C_7  and  C_8
REMARK    5  A    between atoms: C_12  and  C_13
REMARK    6  A    between atoms: C_13  and  N_14
REMARK    7  A    between atoms: C_16  and  C_17
REMARK    8  A    between atoms: C_22  and  O_23
REMARK    9  A    between atoms: O_23  and  C_24
REMARK   10  A    between atoms: C_24  and  C_25
REMARK                            x       y       z     vdW  Elec       q    Type
REMARK                         _______ _______ _______ _____ _____    ______ ____
ROOT
ATOM      1  C   UNL     1       0.127  10.300  19.818  0.00  0.00    +0.000 A 
ATOM      2  C   UNL     1      -0.222  10.574  21.100  0.00  0.00    +0.000 A 
ATOM      3  C   UNL     1      -1.103  11.635  21.685  0.00  0.00    +0.000 C 
ATOM      4  S   UNL     1       0.493   9.411  22.210  0.00  0.00    +0.000 S 
ATOM      5  C   UNL     1       1.217   8.535  20.884  0.00  0.00    +0.000 A 
ATOM      6  N   UNL     1       1.896   7.450  21.053  0.00  0.00    +0.000 NA
ATOM      7  C   UNL     1       2.330   6.826  19.904  0.00  0.00    +0.000 A 
ATOM      8  C   UNL     1       2.212   7.384  18.693  0.00  0.00    +0.000 A 
ATOM      9  C   UNL     1       1.604   8.713  18.571  0.00  0.00    +0.000 A 
ATOM     10  O   UNL     1       1.708   9.265  17.487  0.00  0.00    +0.000 OA
ATOM     11  N   UNL     1       0.951   9.168  19.690  0.00  0.00    +0.000 N 
ENDROOT
BRANCH   1  13
ATOM     12  N   UNL     1      -1.495  10.588  18.020  0.00  0.00    +0.000 N 
ATOM     13  C   UNL     1      -0.410  11.108  18.669  0.00  0.00    +0.000 C 
ATOM     14  O   UNL     1       0.074  12.191  18.354  0.00  0.00    +0.000 OA
ATOM     15  H   UNL     1      -1.778   9.635  18.197  0.00  0.00    +0.000 HD
BRANCH  12  17
ATOM     16  C   UNL     1      -3.508  11.455  17.040  0.00  0.00    +0.000 C 
ATOM     17  C   UNL     1      -2.046  11.148  16.813  0.00  0.00    +0.000 C 
ENDBRANCH  12  17
ENDBRANCH   1  13
BRANCH   7  18
ATOM     18  C   UNL     1       2.937   5.448  20.050  0.00  0.00    +0.000 C 
BRANCH  18  19
ATOM     19  N   UNL     1       3.983   5.130  19.075  0.00  0.00    +0.000 N 
ATOM     20  N   UNL     1       5.254   5.511  19.342  0.00  0.00    +0.000 NA
ATOM     21  C   UNL     1       5.952   5.158  18.244  0.00  0.00    +0.000 A 
ATOM     22  C   UNL     1       5.111   4.503  17.305  0.00  0.00    +0.000 A 
ATOM     23  C   UNL     1       3.859   4.465  17.878  0.00  0.00    +0.000 A 
BRANCH  21  24
ATOM     24  C   UNL     1       7.414   5.466  18.056  0.00  0.00    +0.000 C 
ATOM     25  F   UNL     1       8.096   5.637  19.218  0.00  0.00    +0.000 F 
ATOM     26  F   UNL     1       8.052   4.480  17.367  0.00  0.00    +0.000 F 
ATOM     27  F   UNL     1       7.585   6.607  17.331  0.00  0.00    +0.000 F 
ENDBRANCH  21  24
BRANCH  23  28
ATOM     28  O   UNL     1       2.681   3.984  17.475  0.00  0.00    +0.000 OA
BRANCH  28  29
ATOM     29  C   UNL     1       2.589   2.562  17.411  0.00  0.00    +0.000 C 
ATOM     30  C   UNL     1       2.537   2.022  18.827  0.00  0.00    +0.000 C 
ENDBRANCH  28  29
ENDBRANCH  23  28
ENDBRANCH  18  19
ENDBRANCH   7  18
TORSDOF 7
ENDMDL
MODEL 4
REMARK VINA RESULT:      -7.6      1.922      2.430
REMARK  Name = 
REMARK  10 active torsions:
REMARK  status: ('A' for Active; 'I' for Inactive)
REMARK    1  A    between atoms: C_1  and  C_2
REMARK    2  A    between atoms: C_2  and  N_3
REMARK    3  A    between atoms: C_4  and  C_6
REMARK    4  A    between atoms: C_7  and  C_8
REMARK    5  A    between atoms: C_12  and  C_13
REMARK    6  A    between atoms: C_13  and  N_14
REMARK    7  A    between atoms: C_16  and  C_17
REMARK    8  A    between atoms: C_22  and  O_23
REMARK    9  A    between atoms: O_23  and  C_24
REMARK   10  A    between atoms: C_24  and  C_25
REMARK                            x       y       z     vdW  Elec       q    Type
REMARK                         _______ _______ _______ _____ _____    ______ ____
ROOT
ATOM      1  C   UNL     1       0.682  10.768  20.112  0.00  0.00    +0.000 A 
ATOM      2  C   UNL     1       0.297  10.429  21.368  0.00  0.00    +0.000 A 
ATOM      3  C   UNL     1      -0.444  11.195  22.420  0.00  0.00    +0.000 C 
ATOM      4  S   UNL     1       0.747   8.768  21.739  0.00  0.00    +0.000 S 
ATOM      5  C   UNL     1       1.411   8.553  20.138  0.00  0.00    +0.000 A 
ATOM      6  N   UNL     1       1.900   7.428  19.732  0.00  0.00    +0.000 NA
ATOM      7  C   UNL     1       2.307   7.389  18.416  0.00  0.00    +0.000 A 
ATOM      8  C   UNL     1       2.357   8.481  17.645  0.00  0.00    +0.000 A 
ATOM      9  C   UNL     1       1.972   9.779  18.211  0.00  0.00    +0.000 A 
ATOM     10  O   UNL     1       2.232  10.767  17.542  0.00  0.00    +0.000 OA
ATOM     11  N   UNL     1       1.326   9.726  19.422  0.00  0.00    +0.000 N 
ENDROOT
BRANCH   1  13
ATOM     12  N   UNL     1       1.355  13.044  19.555  0.00  0.00    +0.000 N 
ATOM     13  C   UNL     1       0.354  12.114  19.527  0.00  0.00    +0.000 C 
ATOM     14  O   UNL     1      -0.736  12.353  19.018  0.00  0.00    +0.000 OA
ATOM     15  H   UNL     1       2.183  12.876  20.108  0.00  0.00    +0.000 HD
BRANCH  12  17
ATOM     16  C   UNL     1       0.863  15.233  20.411  0.00  0.00    +0.000 C 
ATOM     17  C   UNL     1       1.174  14.421  19.175  0.00  0.00    +0.000 C 
ENDBRANCH  12  17
ENDBRANCH   1  13
BRANCH   7  18
ATOM     18  C   UNL     1       2.680   6.039  17.846  0.00  0.00    +0.000 C 
BRANCH  18  19
ATOM     19  N   UNL     1       3.901   5.452  18.402  0.00  0.00    +0.000 N 
ATOM     20  N   UNL     1       5.089   6.036  18.117  0.00  0.00    +0.000 NA
ATOM     21  C   UNL     1       6.008   5.235  18.689  0.00  0.00    +0.000 A 
ATOM     22  C   UNL     1       5.379   4.167  19.383  0.00  0.00    +0.000 A 
ATOM     23  C   UNL     1       4.024   4.350  19.215  0.00  0.00    +0.000 A 
BRANCH  21  24
ATOM     24  C   UNL     1       7.493   5.450  18.559  0.00  0.00    +0.000 C 
ATOM     25  F   UNL     1       7.829   6.548  17.835  0.00  0.00    +0.000 F 
ATOM     26  F   UNL     1       8.092   5.582  19.775  0.00  0.00    +0.000 F 
ATOM     27  F   UNL     1       8.091   4.385  17.956  0.00  0.00    +0.000 F 
ENDBRANCH  21  24
BRANCH  23  28
ATOM     28  O   UNL     1       2.949   3.674  19.627  0.00  0.00    +0.000 OA
BRANCH  28  29
ATOM     29  C   UNL     1       2.451   4.041  20.912  0.00  0.00    +0.000 C 
ATOM     30  C   UNL     1       2.072   2.775  21.656  0.00  0.00    +0.000 C 
ENDBRANCH  28  29
ENDBRANCH  23  28
ENDBRANCH  18  19
ENDBRANCH   7  18
TORSDOF 7
ENDMDL
MODEL 5
REMARK VINA RESULT:      -7.4      1.256      1.807
REMARK  Name = 
REMARK  10 active torsions:
REMARK  status: ('A' for Active; 'I' for Inactive)
REMARK    1  A    between atoms: C_1  and  C_2
REMARK    2  A    between atoms: C_2  and  N_3
REMARK    3  A    between atoms: C_4  and  C_6
REMARK    4  A    between atoms: C_7  and  C_8
REMARK    5  A    between atoms: C_12  and  C_13
REMARK    6  A    between atoms: C_13  and  N_14
REMARK    7  A    between atoms: C_16  and  C_17
REMARK    8  A    between atoms: C_22  and  O_23
REMARK    9  A    between atoms: O_23  and  C_24
REMARK   10  A    between atoms: C_24  and  C_25
REMARK                            x       y       z     vdW  Elec       q    Type
REMARK                         _______ _______ _______ _____ _____    ______ ____
ROOT
ATOM      1  C   UNL     1       0.281  10.562  20.249  0.00  0.00    +0.000 A 
ATOM      2  C   UNL     1      -0.097  10.634  21.550  0.00  0.00    +0.000 A 
ATOM      3  C   UNL     1      -0.917  11.644  22.292  0.00  0.00    +0.000 C 
ATOM      4  S   UNL     1       0.482   9.238  22.452  0.00  0.00    +0.000 S 
ATOM      5  C   UNL     1       1.190   8.554  21.010  0.00  0.00    +0.000 A 
ATOM      6  N   UNL     1       1.776   7.403  21.000  0.00  0.00    +0.000 NA
ATOM      7  C   UNL     1       2.208   6.959  19.769  0.00  0.00    +0.000 A 
ATOM      8  C   UNL     1       2.182   7.728  18.675  0.00  0.00    +0.000 A 
ATOM      9  C   UNL     1       1.682   9.104  18.777  0.00  0.00    +0.000 A 
ATOM     10  O   UNL     1       1.871   9.828  17.812  0.00  0.00    +0.000 OA
ATOM     11  N   UNL     1       1.021   9.407  19.942  0.00  0.00    +0.000 N 
ENDROOT
BRANCH   1  13
ATOM     12  N   UNL     1       0.498  12.804  19.315  0.00  0.00    +0.000 N 
ATOM     13  C   UNL     1      -0.146  11.601  19.249  0.00  0.00    +0.000 C 
ATOM     14  O   UNL     1      -0.998  11.370  18.396  0.00  0.00    +0.000 OA
ATOM     15  H   UNL     1       1.080  13.020  20.112  0.00  0.00    +0.000 HD
BRANCH  12  17
ATOM     16  C   UNL     1       1.069  15.089  18.847  0.00  0.00    +0.000 C 
ATOM     17  C   UNL     1       0.119  13.956  18.538  0.00  0.00    +0.000 C 
ENDBRANCH  12  17
ENDBRANCH   1  13
BRANCH   7  18
ATOM     18  C   UNL     1       2.701   5.532  19.682  0.00  0.00    +0.000 C 
BRANCH  18  19
ATOM     19  N   UNL     1       3.673   5.280  18.614  0.00  0.00    +0.000 N 
ATOM     20  N   UNL     1       4.893   5.860  18.700  0.00  0.00    +0.000 NA
ATOM     21  C   UNL     1       5.514   5.515  17.555  0.00  0.00    +0.000 A 
ATOM     22  C   UNL     1       4.686   4.667  16.772  0.00  0.00    +0.000 A 
ATOM     23  C   UNL     1       3.523   4.501  17.491  0.00  0.00    +0.000 A 
BRANCH  21  24
ATOM     24  C   UNL     1       6.884   6.009  17.171  0.00  0.00    +0.000 C 
ATOM     25  F   UNL     1       7.863   5.650  18.041  0.00  0.00    +0.000 F 
ATOM     26  F   UNL     1       7.260   5.552  15.946  0.00  0.00    +0.000 F 
ATOM     27  F   UNL     1       6.909   7.369  17.093  0.00  0.00    +0.000 F 
ENDBRANCH  21  24
BRANCH  23  28
ATOM     28  O   UNL     1       2.394   3.825  17.267  0.00  0.00    +0.000 OA
BRANCH  28  29
ATOM     29  C   UNL     1       2.416   2.452  17.656  0.00  0.00    +0.000 C 
ATOM     30  C   UNL     1       1.422   2.261  18.786  0.00  0.00    +0.000 C 
ENDBRANCH  28  29
ENDBRANCH  23  28
ENDBRANCH  18  19
ENDBRANCH   7  18
TORSDOF 7
ENDMDL
MODEL 6
REMARK VINA RESULT:      -7.4      3.145      4.140
REMARK  Name = 
REMARK  10 active torsions:
REMARK  status: ('A' for Active; 'I' for Inactive)
REMARK    1  A    between atoms: C_1  and  C_2
REMARK    2  A    between atoms: C_2  and  N_3
REMARK    3  A    between atoms: C_4  and  C_6
REMARK    4  A    between atoms: C_7  and  C_8
REMARK    5  A    between atoms: C_12  and  C_13
REMARK    6  A    between atoms: C_13  and  N_14
REMARK    7  A    between atoms: C_16  and  C_17
REMARK    8  A    between atoms: C_22  and  O_23
REMARK    9  A    between atoms: O_23  and  C_24
REMARK   10  A    between atoms: C_24  and  C_25
REMARK                            x       y       z     vdW  Elec       q    Type
REMARK                         _______ _______ _______ _____ _____    ______ ____
ROOT
ATOM      1  C   UNL     1      -0.040  10.757  20.721  0.00  0.00    +0.000 A 
ATOM      2  C   UNL     1      -0.254  10.179  21.929  0.00  0.00    +0.000 A 
ATOM      3  C   UNL     1      -1.096  10.597  23.095  0.00  0.00    +0.000 C 
ATOM      4  S   UNL     1       0.612   8.651  22.059  0.00  0.00    +0.000 S 
ATOM      5  C   UNL     1       1.211   8.810  20.426  0.00  0.00    +0.000 A 
ATOM      6  N   UNL     1       1.935   7.904  19.858  0.00  0.00    +0.000 NA
ATOM      7  C   UNL     1       2.260   8.133  18.539  0.00  0.00    +0.000 A 
ATOM      8  C   UNL     1       1.994   9.290  17.922  0.00  0.00    +0.000 A 
ATOM      9  C   UNL     1       1.338  10.368  18.669  0.00  0.00    +0.000 A 
ATOM     10  O   UNL     1       1.306  11.465  18.134  0.00  0.00    +0.000 OA
ATOM     11  N   UNL     1       0.798  10.005  19.878  0.00  0.00    +0.000 N 
ENDROOT
BRANCH   1  13
ATOM     12  N   UNL     1       0.037  13.173  20.405  0.00  0.00    +0.000 N 
ATOM     13  C   UNL     1      -0.722  12.040  20.332  0.00  0.00    +0.000 C 
ATOM     14  O   UNL     1      -1.883  12.063  19.936  0.00  0.00    +0.000 OA
ATOM     15  H   UNL     1       0.932  13.151  20.873  0.00  0.00    +0.000 HD
BRANCH  12  17
ATOM     16  C   UNL     1      -0.154  14.963  18.815  0.00  0.00    +0.000 C 
ATOM     17  C   UNL     1      -0.490  14.500  20.213  0.00  0.00    +0.000 C 
ENDBRANCH  12  17
ENDBRANCH   1  13
BRANCH   7  18
ATOM     18  C   UNL     1       2.918   7.002  17.781  0.00  0.00    +0.000 C 
BRANCH  18  19
ATOM     19  N   UNL     1       2.986   5.731  18.508  0.00  0.00    +0.000 N 
ATOM     20  N   UNL     1       1.893   4.932  18.518  0.00  0.00    +0.000 NA
ATOM     21  C   UNL     1       2.233   3.904  19.319  0.00  0.00    +0.000 A 
ATOM     22  C   UNL     1       3.572   4.041  19.771  0.00  0.00    +0.000 A 
ATOM     23  C   UNL     1       4.046   5.204  19.205  0.00  0.00    +0.000 A 
BRANCH  21  24
ATOM     24  C   UNL     1       1.284   2.795  19.695  0.00  0.00    +0.000 C 
ATOM     25  F   UNL     1       1.827   1.554  19.613  0.00  0.00    +0.000 F 
ATOM     26  F   UNL     1       0.820   2.939  20.967  0.00  0.00    +0.000 F 
ATOM     27  F   UNL     1       0.186   2.797  18.888  0.00  0.00    +0.000 F 
ENDBRANCH  21  24
BRANCH  23  28
ATOM     28  O   UNL     1       5.217   5.843  19.267  0.00  0.00    +0.000 OA
BRANCH  28  29
ATOM     29  C   UNL     1       6.373   5.016  19.138  0.00  0.00    +0.000 C 
ATOM     30  C   UNL     1       7.573   5.911  18.893  0.00  0.00    +0.000 C 
ENDBRANCH  28  29
ENDBRANCH  23  28
ENDBRANCH  18  19
ENDBRANCH   7  18
TORSDOF 7
ENDMDL
MODEL 7
REMARK VINA RESULT:      -7.4      2.981      3.807
REMARK  Name = 
REMARK  10 active torsions:
REMARK  status: ('A' for Active; 'I' for Inactive)
REMARK    1  A    between atoms: C_1  and  C_2
REMARK    2  A    between atoms: C_2  and  N_3
REMARK    3  A    between atoms: C_4  and  C_6
REMARK    4  A    between atoms: C_7  and  C_8
REMARK    5  A    between atoms: C_12  and  C_13
REMARK    6  A    between atoms: C_13  and  N_14
REMARK    7  A    between atoms: C_16  and  C_17
REMARK    8  A    between atoms: C_22  and  O_23
REMARK    9  A    between atoms: O_23  and  C_24
REMARK   10  A    between atoms: C_24  and  C_25
REMARK                            x       y       z     vdW  Elec       q    Type
REMARK                         _______ _______ _______ _____ _____    ______ ____
ROOT
ATOM      1  C   UNL     1       0.458   9.959  19.956  0.00  0.00    +0.000 A 
ATOM      2  C   UNL     1       0.236   9.548  21.229  0.00  0.00    +0.000 A 
ATOM      3  C   UNL     1      -0.678  10.068  22.296  0.00  0.00    +0.000 C 
ATOM      4  S   UNL     1       1.197   8.123  21.608  0.00  0.00    +0.000 S 
ATOM      5  C   UNL     1       1.849   8.087  19.988  0.00  0.00    +0.000 A 
ATOM      6  N   UNL     1       2.654   7.164  19.581  0.00  0.00    +0.000 NA
ATOM      7  C   UNL     1       3.014   7.222  18.252  0.00  0.00    +0.000 A 
ATOM      8  C   UNL     1       2.695   8.255  17.464  0.00  0.00    +0.000 A 
ATOM      9  C   UNL     1       1.938   9.379  18.025  0.00  0.00    +0.000 A 
ATOM     10  O   UNL     1       1.854  10.382  17.333  0.00  0.00    +0.000 OA
ATOM     11  N   UNL     1       1.377   9.156  19.258  0.00  0.00    +0.000 N 
ENDROOT
BRANCH   1  13
ATOM     12  N   UNL     1      -1.255  10.808  18.443  0.00  0.00    +0.000 N 
ATOM     13  C   UNL     1      -0.294  11.119  19.363  0.00  0.00    +0.000 C 
ATOM     14  O   UNL     1      -0.084  12.276  19.713  0.00  0.00    +0.000 OA
ATOM     15  H   UNL     1      -1.305   9.874  18.064  0.00  0.00    +0.000 HD
BRANCH  12  17
ATOM     16  C   UNL     1      -3.371  11.296  17.417  0.00  0.00    +0.000 C 
ATOM     17  C   UNL     1      -1.967  11.793  17.669  0.00  0.00    +0.000 C 
ENDBRANCH  12  17
ENDBRANCH   1  13
BRANCH   7  18
ATOM     18  C   UNL     1       3.777   6.043  17.688  0.00  0.00    +0.000 C 
BRANCH  18  19
ATOM     19  N   UNL     1       3.668   4.809  18.469  0.00  0.00    +0.000 N 
ATOM     20  N   UNL     1       2.434   4.338  18.767  0.00  0.00    +0.000 NA
ATOM     21  C   UNL     1       2.660   3.262  19.546  0.00  0.00    +0.000 A 
ATOM     22  C   UNL     1       4.053   3.033  19.692  0.00  0.00    +0.000 A 
ATOM     23  C   UNL     1       4.680   4.018  18.960  0.00  0.00    +0.000 A 
BRANCH  21  24
ATOM     24  C   UNL     1       1.561   2.458  20.191  0.00  0.00    +0.000 C 
ATOM     25  F   UNL     1       1.150   1.396  19.452  0.00  0.00    +0.000 F 
ATOM     26  F   UNL     1       1.938   1.971  21.404  0.00  0.00    +0.000 F 
ATOM     27  F   UNL     1       0.459   3.228  20.416  0.00  0.00    +0.000 F 
ENDBRANCH  21  24
BRANCH  23  28
ATOM     28  O   UNL     1       5.960   4.314  18.727  0.00  0.00    +0.000 OA
BRANCH  28  29
ATOM     29  C   UNL     1       6.441   5.496  19.365  0.00  0.00    +0.000 C 
ATOM     30  C   UNL     1       7.628   6.015  18.575  0.00  0.00    +0.000 C 
ENDBRANCH  28  29
ENDBRANCH  23  28
ENDBRANCH  18  19
ENDBRANCH   7  18
TORSDOF 7
ENDMDL
MODEL 8
REMARK VINA RESULT:      -7.3      4.327      8.320
REMARK  Name = 
REMARK  10 active torsions:
REMARK  status: ('A' for Active; 'I' for Inactive)
REMARK    1  A    between atoms: C_1  and  C_2
REMARK    2  A    between atoms: C_2  and  N_3
REMARK    3  A    between atoms: C_4  and  C_6
REMARK    4  A    between atoms: C_7  and  C_8
REMARK    5  A    between atoms: C_12  and  C_13
REMARK    6  A    between atoms: C_13  and  N_14
REMARK    7  A    between atoms: C_16  and  C_17
REMARK    8  A    between atoms: C_22  and  O_23
REMARK    9  A    between atoms: O_23  and  C_24
REMARK   10  A    between atoms: C_24  and  C_25
REMARK                            x       y       z     vdW  Elec       q    Type
REMARK                         _______ _______ _______ _____ _____    ______ ____
ROOT
ATOM      1  C   UNL     1       3.671   5.011  18.040  0.00  0.00    +0.000 A 
ATOM      2  C   UNL     1       4.595   4.989  17.047  0.00  0.00    +0.000 A 
ATOM      3  C   UNL     1       5.356   3.860  16.423  0.00  0.00    +0.000 C 
ATOM      4  S   UNL     1       4.866   6.604  16.402  0.00  0.00    +0.000 S 
ATOM      5  C   UNL     1       3.661   7.274  17.475  0.00  0.00    +0.000 A 
ATOM      6  N   UNL     1       3.327   8.521  17.455  0.00  0.00    +0.000 NA
ATOM      7  C   UNL     1       2.301   8.882  18.301  0.00  0.00    +0.000 A 
ATOM      8  C   UNL     1       1.789   8.045  19.210  0.00  0.00    +0.000 A 
ATOM      9  C   UNL     1       2.336   6.690  19.327  0.00  0.00    +0.000 A 
ATOM     10  O   UNL     1       1.986   6.040  20.300  0.00  0.00    +0.000 OA
ATOM     11  N   UNL     1       3.156   6.293  18.300  0.00  0.00    +0.000 N 
ENDROOT
BRANCH   1  13
ATOM     12  N   UNL     1       3.516   3.622  20.037  0.00  0.00    +0.000 N 
ATOM     13  C   UNL     1       3.210   3.747  18.712  0.00  0.00    +0.000 C 
ATOM     14  O   UNL     1       2.563   2.893  18.114  0.00  0.00    +0.000 OA
ATOM     15  H   UNL     1       4.172   4.260  20.465  0.00  0.00    +0.000 HD
BRANCH  12  17
ATOM     16  C   UNL     1       2.033   2.602  21.628  0.00  0.00    +0.000 C 
ATOM     17  C   UNL     1       3.285   2.422  20.800  0.00  0.00    +0.000 C 
ENDBRANCH  12  17
ENDBRANCH   1  13
BRANCH   7  18
ATOM     18  C   UNL     1       1.738  10.278  18.151  0.00  0.00    +0.000 C 
BRANCH  18  19
ATOM     19  N   UNL     1       0.304  10.396  18.427  0.00  0.00    +0.000 N 
ATOM     20  N   UNL     1      -0.572   9.891  17.526  0.00  0.00    +0.000 NA
ATOM     21  C   UNL     1      -1.785  10.222  18.011  0.00  0.00    +0.000 A 
ATOM     22  C   UNL     1      -1.662  10.896  19.255  0.00  0.00    +0.000 A 
ATOM     23  C   UNL     1      -0.311  10.962  19.518  0.00  0.00    +0.000 A 
BRANCH  21  24
ATOM     24  C   UNL     1      -3.075   9.935  17.287  0.00  0.00    +0.000 C 
ATOM     25  F   UNL     1      -3.899  11.009  17.181  0.00  0.00    +0.000 F 
ATOM     26  F   UNL     1      -2.853   9.484  16.022  0.00  0.00    +0.000 F 
ATOM     27  F   UNL     1      -3.784   8.958  17.919  0.00  0.00    +0.000 F 
ENDBRANCH  21  24
BRANCH  23  28
ATOM     28  O   UNL     1       0.403  11.475  20.523  0.00  0.00    +0.000 OA
BRANCH  28  29
ATOM     29  C   UNL     1      -0.163  11.313  21.822  0.00  0.00    +0.000 C 
ATOM     30  C   UNL     1       0.181   9.923  22.323  0.00  0.00    +0.000 C 
ENDBRANCH  28  29
ENDBRANCH  23  28
ENDBRANCH  18  19
ENDBRANCH   7  18
TORSDOF 7
ENDMDL
MODEL 9
REMARK VINA RESULT:      -7.3      4.313      8.308
REMARK  Name = 
REMARK  10 active torsions:
REMARK  status: ('A' for Active; 'I' for Inactive)
REMARK    1  A    between atoms: C_1  and  C_2
REMARK    2  A    between atoms: C_2  and  N_3
REMARK    3  A    between atoms: C_4  and  C_6
REMARK    4  A    between atoms: C_7  and  C_8
REMARK    5  A    between atoms: C_12  and  C_13
REMARK    6  A    between atoms: C_13  and  N_14
REMARK    7  A    between atoms: C_16  and  C_17
REMARK    8  A    between atoms: C_22  and  O_23
REMARK    9  A    between atoms: O_23  and  C_24
REMARK   10  A    between atoms: C_24  and  C_25
REMARK                            x       y       z     vdW  Elec       q    Type
REMARK                         _______ _______ _______ _____ _____    ______ ____
ROOT
ATOM      1  C   UNL     1       3.853   4.994  18.047  0.00  0.00    +0.000 A 
ATOM      2  C   UNL     1       4.702   4.972  16.989  0.00  0.00    +0.000 A 
ATOM      3  C   UNL     1       5.450   3.849  16.338  0.00  0.00    +0.000 C 
ATOM      4  S   UNL     1       4.871   6.576  16.283  0.00  0.00    +0.000 S 
ATOM      5  C   UNL     1       3.729   7.239  17.426  0.00  0.00    +0.000 A 
ATOM      6  N   UNL     1       3.353   8.474  17.399  0.00  0.00    +0.000 NA
ATOM      7  C   UNL     1       2.382   8.828  18.310  0.00  0.00    +0.000 A 
ATOM      8  C   UNL     1       1.966   8.002  19.277  0.00  0.00    +0.000 A 
ATOM      9  C   UNL     1       2.564   6.667  19.387  0.00  0.00    +0.000 A 
ATOM     10  O   UNL     1       2.308   6.034  20.400  0.00  0.00    +0.000 OA
ATOM     11  N   UNL     1       3.318   6.267  18.312  0.00  0.00    +0.000 N 
ENDROOT
BRANCH   1  13
ATOM     12  N   UNL     1       2.176   3.354  18.708  0.00  0.00    +0.000 N 
ATOM     13  C   UNL     1       3.485   3.736  18.784  0.00  0.00    +0.000 C 
ATOM     14  O   UNL     1       4.319   3.069  19.387  0.00  0.00    +0.000 OA
ATOM     15  H   UNL     1       1.486   3.991  18.337  0.00  0.00    +0.000 HD
BRANCH  12  17
ATOM     16  C   UNL     1       1.261   2.763  20.849  0.00  0.00    +0.000 C 
ATOM     17  C   UNL     1       1.618   2.264  19.468  0.00  0.00    +0.000 C 
ENDBRANCH  12  17
ENDBRANCH   1  13
BRANCH   7  18
ATOM     18  C   UNL     1       1.765  10.201  18.167  0.00  0.00    +0.000 C 
BRANCH  18  19
ATOM     19  N   UNL     1       0.326  10.260  18.438  0.00  0.00    +0.000 N 
ATOM     20  N   UNL     1      -0.531   9.837  17.479  0.00  0.00    +0.000 NA
ATOM     21  C   UNL     1      -1.755  10.090  17.983  0.00  0.00    +0.000 A 
ATOM     22  C   UNL     1      -1.656  10.629  19.293  0.00  0.00    +0.000 A 
ATOM     23  C   UNL     1      -0.310  10.694  19.577  0.00  0.00    +0.000 A 
BRANCH  21  24
ATOM     24  C   UNL     1      -3.032   9.856  17.219  0.00  0.00    +0.000 C 
ATOM     25  F   UNL     1      -2.844   9.337  15.978  0.00  0.00    +0.000 F 
ATOM     26  F   UNL     1      -3.865   9.005  17.878  0.00  0.00    +0.000 F 
ATOM     27  F   UNL     1      -3.726  11.017  17.057  0.00  0.00    +0.000 F 
ENDBRANCH  21  24
BRANCH  23  28
ATOM     28  O   UNL     1       0.385  11.110  20.638  0.00  0.00    +0.000 OA
BRANCH  28  29
ATOM     29  C   UNL     1      -0.285  10.992  21.893  0.00  0.00    +0.000 C 
ATOM     30  C   UNL     1      -0.677  12.382  22.357  0.00  0.00    +0.000 C 
ENDBRANCH  28  29
ENDBRANCH  23  28
ENDBRANCH  18  19
ENDBRANCH   7  18
TORSDOF 7
ENDMDL
