MODEL 1
REMARK VINA RESULT:      -7.6      0.000      0.000
REMARK  Name = 
REMARK  6 active torsions:
REMARK  status: ('A' for Active; 'I' for Inactive)
REMARK    1  A    between atoms: C_1  and  N_2
REMARK    2  A    between atoms: C_7  and  C_8
REMARK    3  A    between atoms: C_8  and  C_9
REMARK    4  A    between atoms: C_15  and  C_16
REMARK    5  A    between atoms: C_16  and  C_17
REMARK    6  A    between atoms: C_17  and  N_18
REMARK                            x       y       z     vdW  Elec       q    Type
REMARK                         _______ _______ _______ _____ _____    ______ ____
ROOT
ATOM      1  C   UNL     1       4.509   4.544  17.107  0.00  0.00    +0.000 A 
ATOM      2  C   UNL     1       5.611   5.145  17.729  0.00  0.00    +0.000 A 
ATOM      3  C   UNL     1       6.753   5.505  17.005  0.00  0.00    +0.000 A 
ATOM      4  C   UNL     1       6.792   5.188  15.644  0.00  0.00    +0.000 A 
ATOM      5  N   UNL     1       7.763   5.447  14.705  0.00  0.00    +0.000 N 
ATOM      6  C   UNL     1       7.443   4.851  13.519  0.00  0.00    +0.000 A 
ATOM      7  C   UNL     1       6.222   4.218  13.665  0.00  0.00    +0.000 A 
ATOM      8  C   UNL     1       5.767   4.496  14.999  0.00  0.00    +0.000 A 
ATOM      9  C   UNL     1       4.598   4.196  15.742  0.00  0.00    +0.000 A 
ATOM     10  H   UNL     1       8.607   5.975  14.882  0.00  0.00    +0.000 HD
ENDROOT
BRANCH   1  11
ATOM     11  C   UNL     1       3.242   4.258  17.895  0.00  0.00    +0.000 C 
BRANCH  11  18
ATOM     12  C   UNL     1       4.280   2.212  20.057  0.00  0.00    +0.000 C 
ATOM     13  N   UNL     1       3.392   3.329  20.247  0.00  0.00    +0.000 N 
ATOM     14  C   UNL     1       2.416   3.366  21.236  0.00  0.00    +0.000 C 
ATOM     15  O   UNL     1       2.165   2.507  22.055  0.00  0.00    +0.000 OA
ATOM     16  N   UNL     1       1.744   4.563  21.122  0.00  0.00    +0.000 N 
ATOM     17  C   UNL     1       2.164   5.311  19.965  0.00  0.00    +0.000 C 
ATOM     18  C   UNL     1       3.367   4.531  19.407  0.00  0.00    +0.000 C 
ATOM     19  H   UNL     1       0.914   4.729  21.667  0.00  0.00    +0.000 HD
ENDBRANCH  11  18
ENDBRANCH   1  11
BRANCH   7  20
ATOM     20  C   UNL     1       5.562   3.370  12.618  0.00  0.00    +0.000 C 
BRANCH  20  21
ATOM     21  C   UNL     1       6.597   2.706  11.695  0.00  0.00    +0.000 C 
BRANCH  21  22
ATOM     22  N   UNL     1       6.256   1.315  11.398  0.00  0.00    +0.000 NA
ATOM     23  H   UNL     1       5.270   1.155  11.583  0.00  0.00    +0.000 HD
ATOM     24  H   UNL     1       6.767   0.704  12.041  0.00  0.00    +0.000 HD
ENDBRANCH  21  22
ENDBRANCH  20  21
ENDBRANCH   7  20
TORSDOF 5
ENDMDL
MODEL 2
REMARK VINA RESULT:      -7.5      0.820      1.480
REMARK  Name = 
REMARK  6 active torsions:
REMARK  status: ('A' for Active; 'I' for Inactive)
REMARK    1  A    between atoms: C_1  and  N_2
REMARK    2  A    between atoms: C_7  and  C_8
REMARK    3  A    between atoms: C_8  and  C_9
REMARK    4  A    between atoms: C_15  and  C_16
REMARK    5  A    between atoms: C_16  and  C_17
REMARK    6  A    between atoms: C_17  and  N_18
REMARK                            x       y       z     vdW  Elec       q    Type
REMARK                         _______ _______ _______ _____ _____    ______ ____
ROOT
ATOM      1  C   UNL     1       4.484   5.053  17.435  0.00  0.00    +0.000 A 
ATOM      2  C   UNL     1       5.641   5.628  17.976  0.00  0.00    +0.000 A 
ATOM      3  C   UNL     1       6.779   5.856  17.195  0.00  0.00    +0.000 A 
ATOM      4  C   UNL     1       6.753   5.433  15.862  0.00  0.00    +0.000 A 
ATOM      5  N   UNL     1       7.707   5.555  14.880  0.00  0.00    +0.000 N 
ATOM      6  C   UNL     1       7.311   4.891  13.753  0.00  0.00    +0.000 A 
ATOM      7  C   UNL     1       6.059   4.352  13.983  0.00  0.00    +0.000 A 
ATOM      8  C   UNL     1       5.666   4.761  15.303  0.00  0.00    +0.000 A 
ATOM      9  C   UNL     1       4.506   4.596  16.100  0.00  0.00    +0.000 A 
ATOM     10  H   UNL     1       8.587   6.040  14.991  0.00  0.00    +0.000 HD
ENDROOT
BRANCH   1  11
ATOM     11  C   UNL     1       3.227   4.911  18.278  0.00  0.00    +0.000 C 
BRANCH  11  18
ATOM     12  C   UNL     1       0.927   4.050  20.254  0.00  0.00    +0.000 C 
ATOM     13  N   UNL     1       2.211   3.428  20.063  0.00  0.00    +0.000 N 
ATOM     14  C   UNL     1       2.877   2.731  21.064  0.00  0.00    +0.000 C 
ATOM     15  O   UNL     1       2.505   2.546  22.204  0.00  0.00    +0.000 OA
ATOM     16  N   UNL     1       4.073   2.286  20.546  0.00  0.00    +0.000 N 
ATOM     17  C   UNL     1       4.306   2.786  19.217  0.00  0.00    +0.000 C 
ATOM     18  C   UNL     1       2.994   3.488  18.824  0.00  0.00    +0.000 C 
ATOM     19  H   UNL     1       4.760   1.868  21.152  0.00  0.00    +0.000 HD
ENDBRANCH  11  18
ENDBRANCH   1  11
BRANCH   7  20
ATOM     20  C   UNL     1       5.313   3.470  13.026  0.00  0.00    +0.000 C 
BRANCH  20  21
ATOM     21  C   UNL     1       6.238   2.921  11.926  0.00  0.00    +0.000 C 
BRANCH  21  22
ATOM     22  N   UNL     1       5.904   1.544  11.564  0.00  0.00    +0.000 NA
ATOM     23  H   UNL     1       6.609   1.173  10.932  0.00  0.00    +0.000 HD
ATOM     24  H   UNL     1       5.026   1.543  11.038  0.00  0.00    +0.000 HD
ENDBRANCH  21  22
ENDBRANCH  20  21
ENDBRANCH   7  20
TORSDOF 5
ENDMDL
MODEL 3
REMARK VINA RESULT:      -7.4      1.755      2.194
REMARK  Name = 
REMARK  6 active torsions:
REMARK  status: ('A' for Active; 'I' for Inactive)
REMARK    1  A    between atoms: C_1  and  N_2
REMARK    2  A    between atoms: C_7  and  C_8
REMARK    3  A    between atoms: C_8  and  C_9
REMARK    4  A    between atoms: C_15  and  C_16
REMARK    5  A    between atoms: C_16  and  C_17
REMARK    6  A    between atoms: C_17  and  N_18
REMARK                            x       y       z     vdW  Elec       q    Type
REMARK                         _______ _______ _______ _____ _____    ______ ____
ROOT
ATOM      1  C   UNL     1       5.481   4.243  17.101  0.00  0.00    +0.000 A 
ATOM      2  C   UNL     1       6.604   5.022  17.411  0.00  0.00    +0.000 A 
ATOM      3  C   UNL     1       7.451   5.514  16.413  0.00  0.00    +0.000 A 
ATOM      4  C   UNL     1       7.182   5.152  15.089  0.00  0.00    +0.000 A 
ATOM      5  N   UNL     1       7.826   5.512  13.929  0.00  0.00    +0.000 N 
ATOM      6  C   UNL     1       7.303   4.829  12.868  0.00  0.00    +0.000 A 
ATOM      7  C   UNL     1       6.271   4.033  13.329  0.00  0.00    +0.000 A 
ATOM      8  C   UNL     1       6.141   4.295  14.736  0.00  0.00    +0.000 A 
ATOM      9  C   UNL     1       5.264   3.859  15.760  0.00  0.00    +0.000 A 
ATOM     10  H   UNL     1       8.598   6.163  13.878  0.00  0.00    +0.000 HD
ENDROOT
BRANCH   1  11
ATOM     11  C   UNL     1       4.519   3.808  18.193  0.00  0.00    +0.000 C 
BRANCH  11  18
ATOM     12  C   UNL     1       1.540   4.646  17.594  0.00  0.00    +0.000 C 
ATOM     13  N   UNL     1       2.038   3.348  17.967  0.00  0.00    +0.000 N 
ATOM     14  C   UNL     1       1.283   2.414  18.666  0.00  0.00    +0.000 C 
ATOM     15  O   UNL     1       0.141   2.536  19.059  0.00  0.00    +0.000 OA
ATOM     16  N   UNL     1       2.068   1.300  18.867  0.00  0.00    +0.000 N 
ATOM     17  C   UNL     1       3.422   1.505  18.422  0.00  0.00    +0.000 C 
ATOM     18  C   UNL     1       3.399   2.867  17.706  0.00  0.00    +0.000 C 
ATOM     19  H   UNL     1       1.746   0.558  19.467  0.00  0.00    +0.000 HD
ENDBRANCH  11  18
ENDBRANCH   1  11
BRANCH   7  20
ATOM     20  C   UNL     1       5.497   3.058  12.493  0.00  0.00    +0.000 C 
BRANCH  20  21
ATOM     21  C   UNL     1       6.405   2.332  11.487  0.00  0.00    +0.000 C 
BRANCH  21  22
ATOM     22  N   UNL     1       6.112   0.900  11.416  0.00  0.00    +0.000 NA
ATOM     23  H   UNL     1       6.975   0.368  11.487  0.00  0.00    +0.000 HD
ATOM     24  H   UNL     1       5.724   0.686  10.494  0.00  0.00    +0.000 HD
ENDBRANCH  21  22
ENDBRANCH  20  21
ENDBRANCH   7  20
TORSDOF 5
ENDMDL
MODEL 4
REMARK VINA RESULT:      -7.3      1.157      1.841
REMARK  Name = 
REMARK  6 active torsions:
REMARK  status: ('A' for Active; 'I' for Inactive)
REMARK    1  A    between atoms: C_1  and  N_2
REMARK    2  A    between atoms: C_7  and  C_8
REMARK    3  A    between atoms: C_8  and  C_9
REMARK    4  A    between atoms: C_15  and  C_16
REMARK    5  A    between atoms: C_16  and  C_17
REMARK    6  A    between atoms: C_17  and  N_18
REMARK                            x       y       z     vdW  Elec       q    Type
REMARK                         _______ _______ _______ _____ _____    ______ ____
ROOT
ATOM      1  C   UNL     1       4.121   4.501  17.215  0.00  0.00    +0.000 A 
ATOM      2  C   UNL     1       5.188   5.013  17.964  0.00  0.00    +0.000 A 
ATOM      3  C   UNL     1       6.400   5.369  17.362  0.00  0.00    +0.000 A 
ATOM      4  C   UNL     1       6.542   5.138  15.991  0.00  0.00    +0.000 A 
ATOM      5  N   UNL     1       7.598   5.414  15.154  0.00  0.00    +0.000 N 
ATOM      6  C   UNL     1       7.358   4.909  13.908  0.00  0.00    +0.000 A 
ATOM      7  C   UNL     1       6.106   4.322  13.911  0.00  0.00    +0.000 A 
ATOM      8  C   UNL     1       5.550   4.533  15.219  0.00  0.00    +0.000 A 
ATOM      9  C   UNL     1       4.312   4.237  15.842  0.00  0.00    +0.000 A 
ATOM     10  H   UNL     1       8.443   5.893  15.435  0.00  0.00    +0.000 HD
ENDROOT
BRANCH   1  11
ATOM     11  C   UNL     1       2.782   4.220  17.875  0.00  0.00    +0.000 C 
BRANCH  11  18
ATOM     12  C   UNL     1       3.006   3.953  21.009  0.00  0.00    +0.000 C 
ATOM     13  N   UNL     1       3.339   2.972  20.008  0.00  0.00    +0.000 N 
ATOM     14  C   UNL     1       4.316   2.001  20.190  0.00  0.00    +0.000 C 
ATOM     15  O   UNL     1       5.013   1.832  21.169  0.00  0.00    +0.000 OA
ATOM     16  N   UNL     1       4.385   1.249  19.038  0.00  0.00    +0.000 N 
ATOM     17  C   UNL     1       3.544   1.778  17.996  0.00  0.00    +0.000 C 
ATOM     18  C   UNL     1       2.738   2.901  18.672  0.00  0.00    +0.000 C 
ATOM     19  H   UNL     1       5.121   0.572  18.920  0.00  0.00    +0.000 HD
ENDBRANCH  11  18
ENDBRANCH   1  11
BRANCH   7  20
ATOM     20  C   UNL     1       5.505   3.570  12.759  0.00  0.00    +0.000 C 
BRANCH  20  21
ATOM     21  C   UNL     1       6.576   2.803  11.966  0.00  0.00    +0.000 C 
BRANCH  21  22
ATOM     22  N   UNL     1       6.068   1.535  11.442  0.00  0.00    +0.000 NA
ATOM     23  H   UNL     1       5.264   1.707  10.844  0.00  0.00    +0.000 HD
ATOM     24  H   UNL     1       5.725   0.968  12.221  0.00  0.00    +0.000 HD
ENDBRANCH  21  22
ENDBRANCH  20  21
ENDBRANCH   7  20
TORSDOF 5
ENDMDL
MODEL 5
REMARK VINA RESULT:      -7.2      2.832      6.282
REMARK  Name = 
REMARK  6 active torsions:
REMARK  status: ('A' for Active; 'I' for Inactive)
REMARK    1  A    between atoms: C_1  and  N_2
REMARK    2  A    between atoms: C_7  and  C_8
REMARK    3  A    between atoms: C_8  and  C_9
REMARK    4  A    between atoms: C_15  and  C_16
REMARK    5  A    between atoms: C_16  and  C_17
REMARK    6  A    between atoms: C_17  and  N_18
REMARK                            x       y       z     vdW  Elec       q    Type
REMARK                         _______ _______ _______ _____ _____    ______ ____
ROOT
ATOM      1  C   UNL     1       4.012   6.438  17.304  0.00  0.00    +0.000 A 
ATOM      2  C   UNL     1       3.194   7.470  17.781  0.00  0.00    +0.000 A 
ATOM      3  C   UNL     1       2.488   7.348  18.982  0.00  0.00    +0.000 A 
ATOM      4  C   UNL     1       2.569   6.132  19.668  0.00  0.00    +0.000 A 
ATOM      5  N   UNL     1       2.008   5.756  20.866  0.00  0.00    +0.000 N 
ATOM      6  C   UNL     1       2.248   4.432  21.104  0.00  0.00    +0.000 A 
ATOM      7  C   UNL     1       3.012   3.935  20.064  0.00  0.00    +0.000 A 
ATOM      8  C   UNL     1       3.284   5.036  19.183  0.00  0.00    +0.000 A 
ATOM      9  C   UNL     1       4.037   5.208  17.995  0.00  0.00    +0.000 A 
ATOM     10  H   UNL     1       1.469   6.366  21.464  0.00  0.00    +0.000 HD
ENDROOT
BRANCH   1  11
ATOM     11  C   UNL     1       4.849   6.636  16.051  0.00  0.00    +0.000 C 
BRANCH  11  18
ATOM     12  C   UNL     1       6.822   4.298  15.287  0.00  0.00    +0.000 C 
ATOM     13  N   UNL     1       6.976   5.286  16.324  0.00  0.00    +0.000 N 
ATOM     14  C   UNL     1       7.689   5.057  17.495  0.00  0.00    +0.000 C 
ATOM     15  O   UNL     1       8.265   4.039  17.818  0.00  0.00    +0.000 OA
ATOM     16  N   UNL     1       7.618   6.197  18.263  0.00  0.00    +0.000 N 
ATOM     17  C   UNL     1       6.742   7.184  17.687  0.00  0.00    +0.000 C 
ATOM     18  C   UNL     1       6.371   6.622  16.304  0.00  0.00    +0.000 C 
ATOM     19  H   UNL     1       7.965   6.191  19.209  0.00  0.00    +0.000 HD
ENDBRANCH  11  18
ENDBRANCH   1  11
BRANCH   7  20
ATOM     20  C   UNL     1       3.412   2.498  19.902  0.00  0.00    +0.000 C 
BRANCH  20  21
ATOM     21  C   UNL     1       2.816   1.887  18.624  0.00  0.00    +0.000 C 
BRANCH  21  22
ATOM     22  N   UNL     1       1.355   1.837  18.668  0.00  0.00    +0.000 NA
ATOM     23  H   UNL     1       1.049   0.902  18.927  0.00  0.00    +0.000 HD
ATOM     24  H   UNL     1       0.988   2.003  17.728  0.00  0.00    +0.000 HD
ENDBRANCH  21  22
ENDBRANCH  20  21
ENDBRANCH   7  20
TORSDOF 5
ENDMDL
MODEL 6
REMARK VINA RESULT:      -7.1      1.353      1.756
REMARK  Name = 
REMARK  6 active torsions:
REMARK  status: ('A' for Active; 'I' for Inactive)
REMARK    1  A    between atoms: C_1  and  N_2
REMARK    2  A    between atoms: C_7  and  C_8
REMARK    3  A    between atoms: C_8  and  C_9
REMARK    4  A    between atoms: C_15  and  C_16
REMARK    5  A    between atoms: C_16  and  C_17
REMARK    6  A    between atoms: C_17  and  N_18
REMARK                            x       y       z     vdW  Elec       q    Type
REMARK                         _______ _______ _______ _____ _____    ______ ____
ROOT
ATOM      1  C   UNL     1       5.425   3.835  17.263  0.00  0.00    +0.000 A 
ATOM      2  C   UNL     1       6.524   4.593  17.688  0.00  0.00    +0.000 A 
ATOM      3  C   UNL     1       7.381   5.216  16.775  0.00  0.00    +0.000 A 
ATOM      4  C   UNL     1       7.147   5.007  15.412  0.00  0.00    +0.000 A 
ATOM      5  N   UNL     1       7.807   5.513  14.317  0.00  0.00    +0.000 N 
ATOM      6  C   UNL     1       7.320   4.950  13.171  0.00  0.00    +0.000 A 
ATOM      7  C   UNL     1       6.296   4.085  13.513  0.00  0.00    +0.000 A 
ATOM      8  C   UNL     1       6.132   4.177  14.937  0.00  0.00    +0.000 A 
ATOM      9  C   UNL     1       5.244   3.607  15.882  0.00  0.00    +0.000 A 
ATOM     10  H   UNL     1       8.565   6.180  14.360  0.00  0.00    +0.000 HD
ENDROOT
BRANCH   1  11
ATOM     11  C   UNL     1       4.451   3.256  18.275  0.00  0.00    +0.000 C 
BRANCH  11  18
ATOM     12  C   UNL     1       2.987   5.709  19.609  0.00  0.00    +0.000 C 
ATOM     13  N   UNL     1       2.401   4.496  19.100  0.00  0.00    +0.000 N 
ATOM     14  C   UNL     1       1.225   3.950  19.599  0.00  0.00    +0.000 C 
ATOM     15  O   UNL     1       0.538   4.382  20.502  0.00  0.00    +0.000 OA
ATOM     16  N   UNL     1       0.966   2.792  18.900  0.00  0.00    +0.000 N 
ATOM     17  C   UNL     1       2.034   2.457  17.995  0.00  0.00    +0.000 C 
ATOM     18  C   UNL     1       2.983   3.667  18.039  0.00  0.00    +0.000 C 
ATOM     19  H   UNL     1       0.224   2.179  19.197  0.00  0.00    +0.000 HD
ENDBRANCH  11  18
ENDBRANCH   1  11
BRANCH   7  20
ATOM     20  C   UNL     1       5.561   3.200  12.550  0.00  0.00    +0.000 C 
BRANCH  20  21
ATOM     21  C   UNL     1       6.528   2.468  11.605  0.00  0.00    +0.000 C 
BRANCH  21  22
ATOM     22  N   UNL     1       6.131   1.077  11.382  0.00  0.00    +0.000 NA
ATOM     23  H   UNL     1       5.725   0.694  12.232  0.00  0.00    +0.000 HD
ATOM     24  H   UNL     1       6.968   0.520  11.193  0.00  0.00    +0.000 HD
ENDBRANCH  21  22
ENDBRANCH  20  21
ENDBRANCH   7  20
TORSDOF 5
ENDMDL
MODEL 7
REMARK VINA RESULT:      -7.1      1.457      1.524
REMARK  Name = 
REMARK  6 active torsions:
REMARK  status: ('A' for Active; 'I' for Inactive)
REMARK    1  A    between atoms: C_1  and  N_2
REMARK    2  A    between atoms: C_7  and  C_8
REMARK    3  A    between atoms: C_8  and  C_9
REMARK    4  A    between atoms: C_15  and  C_16
REMARK    5  A    between atoms: C_16  and  C_17
REMARK    6  A    between atoms: C_17  and  N_18
REMARK                            x       y       z     vdW  Elec       q    Type
REMARK                         _______ _______ _______ _____ _____    ______ ____
ROOT
ATOM      1  C   UNL     1       4.221   5.535  17.539  0.00  0.00    +0.000 A 
ATOM      2  C   UNL     1       5.390   5.960  18.183  0.00  0.00    +0.000 A 
ATOM      3  C   UNL     1       6.620   5.998  17.518  0.00  0.00    +0.000 A 
ATOM      4  C   UNL     1       6.665   5.536  16.199  0.00  0.00    +0.000 A 
ATOM      5  N   UNL     1       7.719   5.489  15.317  0.00  0.00    +0.000 N 
ATOM      6  C   UNL     1       7.345   4.847  14.170  0.00  0.00    +0.000 A 
ATOM      7  C   UNL     1       6.012   4.498  14.281  0.00  0.00    +0.000 A 
ATOM      8  C   UNL     1       5.553   5.005  15.545  0.00  0.00    +0.000 A 
ATOM      9  C   UNL     1       4.309   5.032  16.222  0.00  0.00    +0.000 A 
ATOM     10  H   UNL     1       8.644   5.848  15.508  0.00  0.00    +0.000 HD
ENDROOT
BRANCH   1  11
ATOM     11  C   UNL     1       2.880   5.601  18.251  0.00  0.00    +0.000 C 
BRANCH  11  18
ATOM     12  C   UNL     1       2.533   2.553  17.524  0.00  0.00    +0.000 C 
ATOM     13  N   UNL     1       2.038   3.251  18.682  0.00  0.00    +0.000 N 
ATOM     14  C   UNL     1       0.886   2.876  19.363  0.00  0.00    +0.000 C 
ATOM     15  O   UNL     1       0.146   1.950  19.103  0.00  0.00    +0.000 OA
ATOM     16  N   UNL     1       0.700   3.763  20.400  0.00  0.00    +0.000 N 
ATOM     17  C   UNL     1       1.653   4.841  20.366  0.00  0.00    +0.000 C 
ATOM     18  C   UNL     1       2.646   4.456  19.257  0.00  0.00    +0.000 C 
ATOM     19  H   UNL     1      -0.151   3.739  20.937  0.00  0.00    +0.000 HD
ENDBRANCH  11  18
ENDBRANCH   1  11
BRANCH   7  20
ATOM     20  C   UNL     1       5.246   3.696  13.271  0.00  0.00    +0.000 C 
BRANCH  20  21
ATOM     21  C   UNL     1       6.140   3.263  12.098  0.00  0.00    +0.000 C 
BRANCH  21  22
ATOM     22  N   UNL     1       5.906   1.872  11.713  0.00  0.00    +0.000 NA
ATOM     23  H   UNL     1       6.795   1.401  11.563  0.00  0.00    +0.000 HD
ATOM     24  H   UNL     1       5.421   1.854  10.812  0.00  0.00    +0.000 HD
ENDBRANCH  21  22
ENDBRANCH  20  21
ENDBRANCH   7  20
TORSDOF 5
ENDMDL
MODEL 8
REMARK VINA RESULT:      -7.0      1.775      2.765
REMARK  Name = 
REMARK  6 active torsions:
REMARK  status: ('A' for Active; 'I' for Inactive)
REMARK    1  A    between atoms: C_1  and  N_2
REMARK    2  A    between atoms: C_7  and  C_8
REMARK    3  A    between atoms: C_8  and  C_9
REMARK    4  A    between atoms: C_15  and  C_16
REMARK    5  A    between atoms: C_16  and  C_17
REMARK    6  A    between atoms: C_17  and  N_18
REMARK                            x       y       z     vdW  Elec       q    Type
REMARK                         _______ _______ _______ _____ _____    ______ ____
ROOT
ATOM      1  C   UNL     1       2.626   4.475  17.971  0.00  0.00    +0.000 A 
ATOM      2  C   UNL     1       2.696   5.763  18.516  0.00  0.00    +0.000 A 
ATOM      3  C   UNL     1       3.596   6.716  18.026  0.00  0.00    +0.000 A 
ATOM      4  C   UNL     1       4.475   6.325  17.012  0.00  0.00    +0.000 A 
ATOM      5  N   UNL     1       5.426   7.056  16.340  0.00  0.00    +0.000 N 
ATOM      6  C   UNL     1       6.144   6.244  15.508  0.00  0.00    +0.000 A 
ATOM      7  C   UNL     1       5.634   4.962  15.605  0.00  0.00    +0.000 A 
ATOM      8  C   UNL     1       4.518   5.026  16.507  0.00  0.00    +0.000 A 
ATOM      9  C   UNL     1       3.557   4.098  16.980  0.00  0.00    +0.000 A 
ATOM     10  H   UNL     1       5.590   8.045  16.470  0.00  0.00    +0.000 HD
ENDROOT
BRANCH   1  11
ATOM     11  C   UNL     1       1.570   3.493  18.450  0.00  0.00    +0.000 C 
BRANCH  11  18
ATOM     12  C   UNL     1       2.429   3.248  21.474  0.00  0.00    +0.000 C 
ATOM     13  N   UNL     1       2.909   2.485  20.351  0.00  0.00    +0.000 N 
ATOM     14  C   UNL     1       4.185   1.939  20.290  0.00  0.00    +0.000 C 
ATOM     15  O   UNL     1       5.059   2.015  21.129  0.00  0.00    +0.000 OA
ATOM     16  N   UNL     1       4.312   1.294  19.080  0.00  0.00    +0.000 N 
ATOM     17  C   UNL     1       3.167   1.502  18.233  0.00  0.00    +0.000 C 
ATOM     18  C   UNL     1       2.146   2.231  19.124  0.00  0.00    +0.000 C 
ATOM     19  H   UNL     1       5.210   0.940  18.789  0.00  0.00    +0.000 HD
ENDBRANCH  11  18
ENDBRANCH   1  11
BRANCH   7  20
ATOM     20  C   UNL     1       6.204   3.756  14.920  0.00  0.00    +0.000 C 
BRANCH  20  21
ATOM     21  C   UNL     1       6.560   4.054  13.454  0.00  0.00    +0.000 C 
BRANCH  21  22
ATOM     22  N   UNL     1       6.167   2.964  12.560  0.00  0.00    +0.000 NA
ATOM     23  H   UNL     1       6.991   2.575  12.109  0.00  0.00    +0.000 HD
ATOM     24  H   UNL     1       5.587   3.344  11.808  0.00  0.00    +0.000 HD
ENDBRANCH  21  22
ENDBRANCH  20  21
ENDBRANCH   7  20
TORSDOF 5
ENDMDL
MODEL 9
REMARK VINA RESULT:      -7.0      4.272      7.849
REMARK  Name = 
REMARK  6 active torsions:
REMARK  status: ('A' for Active; 'I' for Inactive)
REMARK    1  A    between atoms: C_1  and  N_2
REMARK    2  A    between atoms: C_7  and  C_8
REMARK    3  A    between atoms: C_8  and  C_9
REMARK    4  A    between atoms: C_15  and  C_16
REMARK    5  A    between atoms: C_16  and  C_17
REMARK    6  A    between atoms: C_17  and  N_18
REMARK                            x       y       z     vdW  Elec       q    Type
REMARK                         _______ _______ _______ _____ _____    ______ ____
ROOT
ATOM      1  C   UNL     1       2.493   6.979  19.311  0.00  0.00    +0.000 A 
ATOM      2  C   UNL     1       2.775   7.363  17.994  0.00  0.00    +0.000 A 
ATOM      3  C   UNL     1       2.391   8.613  17.498  0.00  0.00    +0.000 A 
ATOM      4  C   UNL     1       1.656   9.453  18.340  0.00  0.00    +0.000 A 
ATOM      5  N   UNL     1       1.183  10.726  18.122  0.00  0.00    +0.000 N 
ATOM      6  C   UNL     1       0.409  11.128  19.173  0.00  0.00    +0.000 A 
ATOM      7  C   UNL     1       0.401  10.119  20.118  0.00  0.00    +0.000 A 
ATOM      8  C   UNL     1       1.259   9.078  19.624  0.00  0.00    +0.000 A 
ATOM      9  C   UNL     1       1.711   7.831  20.120  0.00  0.00    +0.000 A 
ATOM     10  H   UNL     1       1.359  11.269  17.287  0.00  0.00    +0.000 HD
ENDROOT
BRANCH   1  11
ATOM     11  C   UNL     1       3.011   5.659  19.857  0.00  0.00    +0.000 C 
BRANCH  11  18
ATOM     12  C   UNL     1       1.599   3.394  18.179  0.00  0.00    +0.000 C 
ATOM     13  N   UNL     1       2.993   3.504  18.524  0.00  0.00    +0.000 N 
ATOM     14  C   UNL     1       3.828   2.405  18.681  0.00  0.00    +0.000 C 
ATOM     15  O   UNL     1       3.533   1.234  18.563  0.00  0.00    +0.000 OA
ATOM     16  N   UNL     1       5.078   2.869  19.025  0.00  0.00    +0.000 N 
ATOM     17  C   UNL     1       5.087   4.293  19.238  0.00  0.00    +0.000 C 
ATOM     18  C   UNL     1       3.690   4.765  18.799  0.00  0.00    +0.000 C 
ATOM     19  H   UNL     1       5.797   2.222  19.308  0.00  0.00    +0.000 HD
ENDBRANCH  11  18
ENDBRANCH   1  11
BRANCH   7  20
ATOM     20  C   UNL     1      -0.408  10.131  21.382  0.00  0.00    +0.000 C 
BRANCH  20  21
ATOM     21  C   UNL     1       0.480   9.944  22.623  0.00  0.00    +0.000 C 
BRANCH  21  22
ATOM     22  N   UNL     1      -0.288   9.500  23.786  0.00  0.00    +0.000 NA
ATOM     23  H   UNL     1      -1.121   9.002  23.480  0.00  0.00    +0.000 HD
ATOM     24  H   UNL     1      -0.622  10.321  24.297  0.00  0.00    +0.000 HD
ENDBRANCH  21  22
ENDBRANCH  20  21
ENDBRANCH   7  20
TORSDOF 5
ENDMDL
