MODEL 1
REMARK VINA RESULT:      -7.8      0.000      0.000
REMARK  Name = 
REMARK  3 active torsions:
REMARK  status: ('A' for Active; 'I' for Inactive)
REMARK    1  A    between atoms: N_3  and  C_4
REMARK    2  A    between atoms: N_18  and  C_19
REMARK    3  A    between atoms: C_19  and  C_20
REMARK                            x       y       z     vdW  Elec       q    Type
REMARK                         _______ _______ _______ _____ _____    ______ ____
ROOT
ATOM      1  O   UNL     1       8.535   7.040  18.936  0.00  0.00    +0.000 OA
ATOM      2  C   UNL     1       7.650   7.411  18.167  0.00  0.00    +0.000 C 
ATOM      3  N   UNL     1       7.438   8.730  17.831  0.00  0.00    +0.000 N 
ATOM      4  N   UNL     1       6.806   6.492  17.555  0.00  0.00    +0.000 N 
ATOM      5  C   UNL     1       7.124   5.086  17.811  0.00  0.00    +0.000 C 
ATOM      6  C   UNL     1       6.409   4.114  16.869  0.00  0.00    +0.000 C 
ATOM      7  C   UNL     1       6.569   4.530  15.401  0.00  0.00    +0.000 C 
ATOM      8  C   UNL     1       6.447   6.035  15.189  0.00  0.00    +0.000 C 
ATOM      9  C   UNL     1       5.892   6.745  16.426  0.00  0.00    +0.000 C 
ATOM     10  C   UNL     1       4.418   6.332  16.716  0.00  0.00    +0.000 C 
ATOM     11  N   UNL     1       4.153   5.133  17.513  0.00  0.00    +0.000 NA
ATOM     12  C   UNL     1       4.933   3.931  17.252  0.00  0.00    +0.000 C 
ATOM     13  H   UNL     1       6.483   8.973  17.620  0.00  0.00    +0.000 HD
ENDROOT
BRANCH   3  14
ATOM     14  C   UNL     1       8.301   9.803  18.146  0.00  0.00    +0.000 A 
ATOM     15  C   UNL     1       9.290   9.723  19.134  0.00  0.00    +0.000 A 
ATOM     16  C   UNL     1      10.078  10.834  19.446  0.00  0.00    +0.000 A 
ATOM     17  C   UNL     1       9.889  12.019  18.750  0.00  0.00    +0.000 A 
ATOM     18  F   UNL     1      10.623  13.093  19.066  0.00  0.00    +0.000 F 
ATOM     19  C   UNL     1       8.946  12.104  17.733  0.00  0.00    +0.000 A 
ATOM     20  C   UNL     1       8.159  10.993  17.421  0.00  0.00    +0.000 A 
ENDBRANCH   3  14
BRANCH  11  21
ATOM     21  C   UNL     1       2.723   4.859  17.738  0.00  0.00    +0.000 C 
BRANCH  21  22
ATOM     22  C   UNL     1       2.369   4.193  19.048  0.00  0.00    +0.000 A 
ATOM     23  C   UNL     1       2.571   4.813  20.285  0.00  0.00    +0.000 A 
ATOM     24  C   UNL     1       2.253   4.136  21.460  0.00  0.00    +0.000 A 
ATOM     25  C   UNL     1       1.734   2.855  21.364  0.00  0.00    +0.000 A 
ATOM     26  N   UNL     1       1.510   2.227  20.192  0.00  0.00    +0.000 NA
ATOM     27  C   UNL     1       1.825   2.910  19.068  0.00  0.00    +0.000 A 
ENDBRANCH  21  22
ENDBRANCH  11  21
TORSDOF 3
ENDMDL
MODEL 2
REMARK VINA RESULT:      -7.8      0.809      1.376
REMARK  Name = 
REMARK  3 active torsions:
REMARK  status: ('A' for Active; 'I' for Inactive)
REMARK    1  A    between atoms: N_3  and  C_4
REMARK    2  A    between atoms: N_18  and  C_19
REMARK    3  A    between atoms: C_19  and  C_20
REMARK                            x       y       z     vdW  Elec       q    Type
REMARK                         _______ _______ _______ _____ _____    ______ ____
ROOT
ATOM      1  O   UNL     1       8.641   6.936  19.139  0.00  0.00    +0.000 OA
ATOM      2  C   UNL     1       7.807   7.394  18.360  0.00  0.00    +0.000 C 
ATOM      3  N   UNL     1       7.730   8.727  18.025  0.00  0.00    +0.000 N 
ATOM      4  N   UNL     1       6.883   6.564  17.735  0.00  0.00    +0.000 N 
ATOM      5  C   UNL     1       7.058   5.133  17.991  0.00  0.00    +0.000 C 
ATOM      6  C   UNL     1       6.261   4.238  17.039  0.00  0.00    +0.000 C 
ATOM      7  C   UNL     1       6.480   4.639  15.573  0.00  0.00    +0.000 C 
ATOM      8  C   UNL     1       6.509   6.148  15.364  0.00  0.00    +0.000 C 
ATOM      9  C   UNL     1       6.013   6.908  16.596  0.00  0.00    +0.000 C 
ATOM     10  C   UNL     1       4.501   6.642  16.867  0.00  0.00    +0.000 C 
ATOM     11  N   UNL     1       4.110   5.474  17.658  0.00  0.00    +0.000 NA
ATOM     12  C   UNL     1       4.770   4.201  17.404  0.00  0.00    +0.000 C 
ATOM     13  H   UNL     1       6.807   9.064  17.803  0.00  0.00    +0.000 HD
ENDROOT
BRANCH   3  14
ATOM     14  C   UNL     1       8.691   9.710  18.352  0.00  0.00    +0.000 A 
ATOM     15  C   UNL     1       9.338  10.497  17.390  0.00  0.00    +0.000 A 
ATOM     16  C   UNL     1      10.322  11.414  17.764  0.00  0.00    +0.000 A 
ATOM     17  C   UNL     1      10.645  11.558  19.106  0.00  0.00    +0.000 A 
ATOM     18  F   UNL     1      11.608  12.416  19.464  0.00  0.00    +0.000 F 
ATOM     19  C   UNL     1       9.981  10.822  20.079  0.00  0.00    +0.000 A 
ATOM     20  C   UNL     1       8.995   9.905  19.706  0.00  0.00    +0.000 A 
ENDBRANCH   3  14
BRANCH  11  21
ATOM     21  C   UNL     1       2.657   5.343  17.866  0.00  0.00    +0.000 C 
BRANCH  21  22
ATOM     22  C   UNL     1       2.225   4.496  19.040  0.00  0.00    +0.000 A 
ATOM     23  C   UNL     1       1.417   3.363  18.895  0.00  0.00    +0.000 A 
ATOM     24  C   UNL     1       1.028   2.641  20.020  0.00  0.00    +0.000 A 
ATOM     25  C   UNL     1       1.463   3.068  21.263  0.00  0.00    +0.000 A 
ATOM     26  N   UNL     1       2.254   4.146  21.446  0.00  0.00    +0.000 NA
ATOM     27  C   UNL     1       2.619   4.825  20.336  0.00  0.00    +0.000 A 
ENDBRANCH  21  22
ENDBRANCH  11  21
TORSDOF 3
ENDMDL
MODEL 3
REMARK VINA RESULT:      -7.8      4.734      6.606
REMARK  Name = 
REMARK  3 active torsions:
REMARK  status: ('A' for Active; 'I' for Inactive)
REMARK    1  A    between atoms: N_3  and  C_4
REMARK    2  A    between atoms: N_18  and  C_19
REMARK    3  A    between atoms: C_19  and  C_20
REMARK                            x       y       z     vdW  Elec       q    Type
REMARK                         _______ _______ _______ _____ _____    ______ ____
ROOT
ATOM      1  O   UNL     1       6.230   3.818  17.465  0.00  0.00    +0.000 OA
ATOM      2  C   UNL     1       5.092   4.156  17.140  0.00  0.00    +0.000 C 
ATOM      3  N   UNL     1       4.748   4.540  15.864  0.00  0.00    +0.000 N 
ATOM      4  N   UNL     1       4.054   4.143  18.065  0.00  0.00    +0.000 N 
ATOM      5  C   UNL     1       4.399   3.604  19.382  0.00  0.00    +0.000 C 
ATOM      6  C   UNL     1       3.180   3.287  20.253  0.00  0.00    +0.000 C 
ATOM      7  C   UNL     1       2.145   2.449  19.490  0.00  0.00    +0.000 C 
ATOM      8  C   UNL     1       1.960   2.898  18.045  0.00  0.00    +0.000 C 
ATOM      9  C   UNL     1       2.613   4.256  17.778  0.00  0.00    +0.000 C 
ATOM     10  C   UNL     1       1.910   5.399  18.571  0.00  0.00    +0.000 C 
ATOM     11  N   UNL     1       2.325   5.678  19.946  0.00  0.00    +0.000 NA
ATOM     12  C   UNL     1       2.558   4.559  20.849  0.00  0.00    +0.000 C 
ATOM     13  H   UNL     1       4.000   5.213  15.804  0.00  0.00    +0.000 HD
ENDROOT
BRANCH   3  14
ATOM     14  C   UNL     1       5.570   4.416  14.722  0.00  0.00    +0.000 A 
ATOM     15  C   UNL     1       6.811   5.055  14.602  0.00  0.00    +0.000 A 
ATOM     16  C   UNL     1       7.558   4.946  13.427  0.00  0.00    +0.000 A 
ATOM     17  C   UNL     1       7.072   4.177  12.379  0.00  0.00    +0.000 A 
ATOM     18  F   UNL     1       7.772   4.094  11.242  0.00  0.00    +0.000 F 
ATOM     19  C   UNL     1       5.866   3.497  12.498  0.00  0.00    +0.000 A 
ATOM     20  C   UNL     1       5.119   3.606  13.673  0.00  0.00    +0.000 A 
ENDBRANCH   3  14
BRANCH  11  21
ATOM     21  C   UNL     1       1.604   6.795  20.582  0.00  0.00    +0.000 C 
BRANCH  21  22
ATOM     22  C   UNL     1       1.561   8.090  19.804  0.00  0.00    +0.000 A 
ATOM     23  C   UNL     1       2.167   8.236  18.553  0.00  0.00    +0.000 A 
ATOM     24  C   UNL     1       2.118   9.464  17.898  0.00  0.00    +0.000 A 
ATOM     25  C   UNL     1       1.456  10.515  18.513  0.00  0.00    +0.000 A 
ATOM     26  N   UNL     1       0.847  10.412  19.711  0.00  0.00    +0.000 NA
ATOM     27  C   UNL     1       0.907   9.207  20.322  0.00  0.00    +0.000 A 
ENDBRANCH  21  22
ENDBRANCH  11  21
TORSDOF 3
ENDMDL
MODEL 4
REMARK VINA RESULT:      -7.7      4.800      6.542
REMARK  Name = 
REMARK  3 active torsions:
REMARK  status: ('A' for Active; 'I' for Inactive)
REMARK    1  A    between atoms: N_3  and  C_4
REMARK    2  A    between atoms: N_18  and  C_19
REMARK    3  A    between atoms: C_19  and  C_20
REMARK                            x       y       z     vdW  Elec       q    Type
REMARK                         _______ _______ _______ _____ _____    ______ ____
ROOT
ATOM      1  O   UNL     1       6.485   3.980  17.201  0.00  0.00    +0.000 OA
ATOM      2  C   UNL     1       5.310   4.184  16.900  0.00  0.00    +0.000 C 
ATOM      3  N   UNL     1       4.891   4.466  15.619  0.00  0.00    +0.000 N 
ATOM      4  N   UNL     1       4.306   4.114  17.858  0.00  0.00    +0.000 N 
ATOM      5  C   UNL     1       4.741   3.681  19.187  0.00  0.00    +0.000 C 
ATOM      6  C   UNL     1       3.588   3.287  20.113  0.00  0.00    +0.000 C 
ATOM      7  C   UNL     1       2.622   2.311  19.427  0.00  0.00    +0.000 C 
ATOM      8  C   UNL     1       2.351   2.665  17.969  0.00  0.00    +0.000 C 
ATOM      9  C   UNL     1       2.853   4.066  17.615  0.00  0.00    +0.000 C 
ATOM     10  C   UNL     1       2.060   5.171  18.375  0.00  0.00    +0.000 C 
ATOM     11  N   UNL     1       2.484   5.560  19.721  0.00  0.00    +0.000 NA
ATOM     12  C   UNL     1       2.856   4.518  20.668  0.00  0.00    +0.000 C 
ATOM     13  H   UNL     1       4.077   5.055  15.551  0.00  0.00    +0.000 HD
ENDROOT
BRANCH   3  14
ATOM     14  C   UNL     1       5.689   4.367  14.457  0.00  0.00    +0.000 A 
ATOM     15  C   UNL     1       6.896   5.061  14.298  0.00  0.00    +0.000 A 
ATOM     16  C   UNL     1       7.617   4.972  13.105  0.00  0.00    +0.000 A 
ATOM     17  C   UNL     1       7.139   4.171  12.078  0.00  0.00    +0.000 A 
ATOM     18  F   UNL     1       7.812   4.107  10.923  0.00  0.00    +0.000 F 
ATOM     19  C   UNL     1       5.969   3.438  12.234  0.00  0.00    +0.000 A 
ATOM     20  C   UNL     1       5.248   3.526  13.428  0.00  0.00    +0.000 A 
ENDBRANCH   3  14
BRANCH  11  21
ATOM     21  C   UNL     1       1.670   6.630  20.327  0.00  0.00    +0.000 C 
BRANCH  21  22
ATOM     22  C   UNL     1       1.673   7.959  19.607  0.00  0.00    +0.000 A 
ATOM     23  C   UNL     1       1.028   9.091  20.114  0.00  0.00    +0.000 A 
ATOM     24  C   UNL     1       1.040  10.279  19.388  0.00  0.00    +0.000 A 
ATOM     25  C   UNL     1       1.706  10.305  18.174  0.00  0.00    +0.000 A 
ATOM     26  N   UNL     1       2.352   9.241  17.656  0.00  0.00    +0.000 NA
ATOM     27  C   UNL     1       2.326   8.102  18.384  0.00  0.00    +0.000 A 
ENDBRANCH  21  22
ENDBRANCH  11  21
TORSDOF 3
ENDMDL
MODEL 5
REMARK VINA RESULT:      -7.5      6.741      9.619
REMARK  Name = 
REMARK  3 active torsions:
REMARK  status: ('A' for Active; 'I' for Inactive)
REMARK    1  A    between atoms: N_3  and  C_4
REMARK    2  A    between atoms: N_18  and  C_19
REMARK    3  A    between atoms: C_19  and  C_20
REMARK                            x       y       z     vdW  Elec       q    Type
REMARK                         _______ _______ _______ _____ _____    ______ ____
ROOT
ATOM      1  O   UNL     1       1.725   7.164  20.667  0.00  0.00    +0.000 OA
ATOM      2  C   UNL     1       1.795   7.878  19.668  0.00  0.00    +0.000 C 
ATOM      3  N   UNL     1       2.375   7.477  18.486  0.00  0.00    +0.000 N 
ATOM      4  N   UNL     1       1.254   9.159  19.668  0.00  0.00    +0.000 N 
ATOM      5  C   UNL     1       0.521   9.527  20.881  0.00  0.00    +0.000 C 
ATOM      6  C   UNL     1      -0.339  10.783  20.721  0.00  0.00    +0.000 C 
ATOM      7  C   UNL     1      -1.216  10.710  19.463  0.00  0.00    +0.000 C 
ATOM      8  C   UNL     1      -0.488  10.119  18.261  0.00  0.00    +0.000 C 
ATOM      9  C   UNL     1       1.021  10.020  18.494  0.00  0.00    +0.000 C 
ATOM     10  C   UNL     1       1.678  11.428  18.618  0.00  0.00    +0.000 C 
ATOM     11  N   UNL     1       1.706  12.094  19.921  0.00  0.00    +0.000 NA
ATOM     12  C   UNL     1       0.510  12.063  20.752  0.00  0.00    +0.000 C 
ATOM     13  H   UNL     1       2.799   8.212  17.942  0.00  0.00    +0.000 HD
ENDROOT
BRANCH   3  14
ATOM     14  C   UNL     1       2.782   6.160  18.180  0.00  0.00    +0.000 A 
ATOM     15  C   UNL     1       1.881   5.137  17.856  0.00  0.00    +0.000 A 
ATOM     16  C   UNL     1       2.334   3.837  17.619  0.00  0.00    +0.000 A 
ATOM     17  C   UNL     1       3.693   3.566  17.684  0.00  0.00    +0.000 A 
ATOM     18  F   UNL     1       4.127   2.316  17.485  0.00  0.00    +0.000 F 
ATOM     19  C   UNL     1       4.606   4.577  17.956  0.00  0.00    +0.000 A 
ATOM     20  C   UNL     1       4.154   5.877  18.193  0.00  0.00    +0.000 A 
ENDBRANCH   3  14
BRANCH  11  21
ATOM     21  C   UNL     1       2.373  13.409  19.916  0.00  0.00    +0.000 C 
BRANCH  21  22
ATOM     22  C   UNL     1       1.468  14.616  19.839  0.00  0.00    +0.000 A 
ATOM     23  C   UNL     1       0.626  14.857  18.749  0.00  0.00    +0.000 A 
ATOM     24  C   UNL     1      -0.164  16.004  18.723  0.00  0.00    +0.000 A 
ATOM     25  C   UNL     1      -0.095  16.878  19.795  0.00  0.00    +0.000 A 
ATOM     26  N   UNL     1       0.692  16.676  20.872  0.00  0.00    +0.000 NA
ATOM     27  C   UNL     1       1.445  15.553  20.871  0.00  0.00    +0.000 A 
ENDBRANCH  21  22
ENDBRANCH  11  21
TORSDOF 3
ENDMDL
MODEL 6
REMARK VINA RESULT:      -7.5      6.232      9.317
REMARK  Name = 
REMARK  3 active torsions:
REMARK  status: ('A' for Active; 'I' for Inactive)
REMARK    1  A    between atoms: N_3  and  C_4
REMARK    2  A    between atoms: N_18  and  C_19
REMARK    3  A    between atoms: C_19  and  C_20
REMARK                            x       y       z     vdW  Elec       q    Type
REMARK                         _______ _______ _______ _____ _____    ______ ____
ROOT
ATOM      1  O   UNL     1       1.886   7.200  20.604  0.00  0.00    +0.000 OA
ATOM      2  C   UNL     1       1.931   7.774  19.517  0.00  0.00    +0.000 C 
ATOM      3  N   UNL     1       2.470   7.212  18.382  0.00  0.00    +0.000 N 
ATOM      4  N   UNL     1       1.401   9.049  19.361  0.00  0.00    +0.000 N 
ATOM      5  C   UNL     1       0.710   9.584  20.536  0.00  0.00    +0.000 C 
ATOM      6  C   UNL     1      -0.145  10.819  20.236  0.00  0.00    +0.000 C 
ATOM      7  C   UNL     1      -1.061  10.589  19.026  0.00  0.00    +0.000 C 
ATOM      8  C   UNL     1      -0.376   9.835  17.892  0.00  0.00    +0.000 C 
ATOM      9  C   UNL     1       1.139   9.750  18.091  0.00  0.00    +0.000 C 
ATOM     10  C   UNL     1       1.811  11.153  18.007  0.00  0.00    +0.000 C 
ATOM     11  N   UNL     1       1.885  11.986  19.208  0.00  0.00    +0.000 NA
ATOM     12  C   UNL     1       0.715  12.081  20.070  0.00  0.00    +0.000 C 
ATOM     13  H   UNL     1       2.884   7.862  17.733  0.00  0.00    +0.000 HD
ENDROOT
BRANCH   3  14
ATOM     14  C   UNL     1       2.858   5.860  18.243  0.00  0.00    +0.000 A 
ATOM     15  C   UNL     1       4.166   5.413  18.471  0.00  0.00    +0.000 A 
ATOM     16  C   UNL     1       4.508   4.075  18.263  0.00  0.00    +0.000 A 
ATOM     17  C   UNL     1       3.534   3.179  17.846  0.00  0.00    +0.000 A 
ATOM     18  F   UNL     1       3.866   1.903  17.619  0.00  0.00    +0.000 F 
ATOM     19  C   UNL     1       2.221   3.593  17.661  0.00  0.00    +0.000 A 
ATOM     20  C   UNL     1       1.878   4.931  17.870  0.00  0.00    +0.000 A 
ENDBRANCH   3  14
BRANCH  11  21
ATOM     21  C   UNL     1       2.563  13.280  19.007  0.00  0.00    +0.000 C 
BRANCH  21  22
ATOM     22  C   UNL     1       2.591  14.210  20.198  0.00  0.00    +0.000 A 
ATOM     23  C   UNL     1       1.879  15.413  20.230  0.00  0.00    +0.000 A 
ATOM     24  C   UNL     1       1.970  16.242  21.346  0.00  0.00    +0.000 A 
ATOM     25  C   UNL     1       2.767  15.841  22.405  0.00  0.00    +0.000 A 
ATOM     26  N   UNL     1       3.458  14.682  22.420  0.00  0.00    +0.000 NA
ATOM     27  C   UNL     1       3.348  13.896  21.325  0.00  0.00    +0.000 A 
ENDBRANCH  21  22
ENDBRANCH  11  21
TORSDOF 3
ENDMDL
MODEL 7
REMARK VINA RESULT:      -7.4      6.222      9.330
REMARK  Name = 
REMARK  3 active torsions:
REMARK  status: ('A' for Active; 'I' for Inactive)
REMARK    1  A    between atoms: N_3  and  C_4
REMARK    2  A    between atoms: N_18  and  C_19
REMARK    3  A    between atoms: C_19  and  C_20
REMARK                            x       y       z     vdW  Elec       q    Type
REMARK                         _______ _______ _______ _____ _____    ______ ____
ROOT
ATOM      1  O   UNL     1       1.704   7.254  20.864  0.00  0.00    +0.000 OA
ATOM      2  C   UNL     1       1.833   7.756  19.749  0.00  0.00    +0.000 C 
ATOM      3  N   UNL     1       2.457   7.124  18.697  0.00  0.00    +0.000 N 
ATOM      4  N   UNL     1       1.319   9.018  19.472  0.00  0.00    +0.000 N 
ATOM      5  C   UNL     1       0.541   9.625  20.553  0.00  0.00    +0.000 C 
ATOM      6  C   UNL     1      -0.287  10.834  20.110  0.00  0.00    +0.000 C 
ATOM      7  C   UNL     1      -1.108  10.525  18.851  0.00  0.00    +0.000 C 
ATOM      8  C   UNL     1      -0.340   9.701  17.824  0.00  0.00    +0.000 C 
ATOM      9  C   UNL     1       1.155   9.634  18.143  0.00  0.00    +0.000 C 
ATOM     10  C   UNL     1       1.834  11.032  18.020  0.00  0.00    +0.000 C 
ATOM     11  N   UNL     1       1.817  11.941  19.167  0.00  0.00    +0.000 NA
ATOM     12  C   UNL     1       0.585  12.086  19.929  0.00  0.00    +0.000 C 
ATOM     13  H   UNL     1       2.919   7.733  18.041  0.00  0.00    +0.000 HD
ENDROOT
BRANCH   3  14
ATOM     14  C   UNL     1       2.851   5.768  18.675  0.00  0.00    +0.000 A 
ATOM     15  C   UNL     1       2.023   4.739  18.208  0.00  0.00    +0.000 A 
ATOM     16  C   UNL     1       2.441   3.408  18.263  0.00  0.00    +0.000 A 
ATOM     17  C   UNL     1       3.699   3.108  18.765  0.00  0.00    +0.000 A 
ATOM     18  F   UNL     1       4.091   1.831  18.844  0.00  0.00    +0.000 F 
ATOM     19  C   UNL     1       4.554   4.119  19.187  0.00  0.00    +0.000 A 
ATOM     20  C   UNL     1       4.136   5.451  19.132  0.00  0.00    +0.000 A 
ENDBRANCH   3  14
BRANCH  11  21
ATOM     21  C   UNL     1       2.510  13.221  18.936  0.00  0.00    +0.000 C 
BRANCH  21  22
ATOM     22  C   UNL     1       2.576  14.166  20.113  0.00  0.00    +0.000 A 
ATOM     23  C   UNL     1       1.921  15.401  20.123  0.00  0.00    +0.000 A 
ATOM     24  C   UNL     1       2.044  16.242  21.227  0.00  0.00    +0.000 A 
ATOM     25  C   UNL     1       2.816  15.820  22.296  0.00  0.00    +0.000 A 
ATOM     26  N   UNL     1       3.452  14.631  22.333  0.00  0.00    +0.000 NA
ATOM     27  C   UNL     1       3.311  13.834  21.250  0.00  0.00    +0.000 A 
ENDBRANCH  21  22
ENDBRANCH  11  21
TORSDOF 3
ENDMDL
MODEL 8
REMARK VINA RESULT:      -7.3      6.852      9.552
REMARK  Name = 
REMARK  3 active torsions:
REMARK  status: ('A' for Active; 'I' for Inactive)
REMARK    1  A    between atoms: N_3  and  C_4
REMARK    2  A    between atoms: N_18  and  C_19
REMARK    3  A    between atoms: C_19  and  C_20
REMARK                            x       y       z     vdW  Elec       q    Type
REMARK                         _______ _______ _______ _____ _____    ______ ____
ROOT
ATOM      1  O   UNL     1       1.677   7.212  20.683  0.00  0.00    +0.000 OA
ATOM      2  C   UNL     1       1.791   7.940  19.698  0.00  0.00    +0.000 C 
ATOM      3  N   UNL     1       2.463   7.573  18.554  0.00  0.00    +0.000 N 
ATOM      4  N   UNL     1       1.208   9.202  19.673  0.00  0.00    +0.000 N 
ATOM      5  C   UNL     1       0.383   9.531  20.837  0.00  0.00    +0.000 C 
ATOM      6  C   UNL     1      -0.506  10.760  20.632  0.00  0.00    +0.000 C 
ATOM      7  C   UNL     1      -1.293  10.673  19.316  0.00  0.00    +0.000 C 
ATOM      8  C   UNL     1      -0.466  10.121  18.161  0.00  0.00    +0.000 C 
ATOM      9  C   UNL     1       1.026  10.069  18.496  0.00  0.00    +0.000 C 
ATOM     10  C   UNL     1       1.626  11.497  18.678  0.00  0.00    +0.000 C 
ATOM     11  N   UNL     1       1.543  12.147  19.986  0.00  0.00    +0.000 NA
ATOM     12  C   UNL     1       0.295  12.066  20.732  0.00  0.00    +0.000 C 
ATOM     13  H   UNL     1       2.898   8.327  18.048  0.00  0.00    +0.000 HD
ENDROOT
BRANCH   3  14
ATOM     14  C   UNL     1       2.934   6.273  18.264  0.00  0.00    +0.000 A 
ATOM     15  C   UNL     1       4.295   5.939  18.255  0.00  0.00    +0.000 A 
ATOM     16  C   UNL     1       4.711   4.652  17.904  0.00  0.00    +0.000 A 
ATOM     17  C   UNL     1       3.761   3.693  17.584  0.00  0.00    +0.000 A 
ATOM     18  F   UNL     1       4.158   2.468  17.221  0.00  0.00    +0.000 F 
ATOM     19  C   UNL     1       2.405   3.991  17.635  0.00  0.00    +0.000 A 
ATOM     20  C   UNL     1       1.989   5.278  17.986  0.00  0.00    +0.000 A 
ENDBRANCH   3  14
BRANCH  11  21
ATOM     21  C   UNL     1       2.164  13.483  20.039  0.00  0.00    +0.000 C 
BRANCH  21  22
ATOM     22  C   UNL     1       1.219  14.661  19.993  0.00  0.00    +0.000 A 
ATOM     23  C   UNL     1       0.960  15.462  21.110  0.00  0.00    +0.000 A 
ATOM     24  C   UNL     1       0.055  16.515  21.012  0.00  0.00    +0.000 A 
ATOM     25  C   UNL     1      -0.564  16.744  19.794  0.00  0.00    +0.000 A 
ATOM     26  N   UNL     1      -0.332  16.005  18.690  0.00  0.00    +0.000 NA
ATOM     27  C   UNL     1       0.554  14.992  18.814  0.00  0.00    +0.000 A 
ENDBRANCH  21  22
ENDBRANCH  11  21
TORSDOF 3
ENDMDL
MODEL 9
REMARK VINA RESULT:      -7.3      6.679      9.519
REMARK  Name = 
REMARK  3 active torsions:
REMARK  status: ('A' for Active; 'I' for Inactive)
REMARK    1  A    between atoms: N_3  and  C_4
REMARK    2  A    between atoms: N_18  and  C_19
REMARK    3  A    between atoms: C_19  and  C_20
REMARK                            x       y       z     vdW  Elec       q    Type
REMARK                         _______ _______ _______ _____ _____    ______ ____
ROOT
ATOM      1  O   UNL     1       1.747   7.288  20.496  0.00  0.00    +0.000 OA
ATOM      2  C   UNL     1       1.836   8.144  19.617  0.00  0.00    +0.000 C 
ATOM      3  N   UNL     1       2.522   7.956  18.439  0.00  0.00    +0.000 N 
ATOM      4  N   UNL     1       1.209   9.377  19.757  0.00  0.00    +0.000 N 
ATOM      5  C   UNL     1       0.372   9.519  20.949  0.00  0.00    +0.000 C 
ATOM      6  C   UNL     1      -0.561  10.733  20.904  0.00  0.00    +0.000 C 
ATOM      7  C   UNL     1      -1.342  10.794  19.584  0.00  0.00    +0.000 C 
ATOM      8  C   UNL     1      -0.495  10.430  18.370  0.00  0.00    +0.000 C 
ATOM      9  C   UNL     1       0.998  10.387  18.704  0.00  0.00    +0.000 C 
ATOM     10  C   UNL     1       1.546  11.797  19.077  0.00  0.00    +0.000 C 
ATOM     11  N   UNL     1       1.439  12.265  20.460  0.00  0.00    +0.000 NA
ATOM     12  C   UNL     1       0.193  12.042  21.182  0.00  0.00    +0.000 C 
ATOM     13  H   UNL     1       2.930   8.786  18.040  0.00  0.00    +0.000 HD
ENDROOT
BRANCH   3  14
ATOM     14  C   UNL     1       3.040   6.724  17.981  0.00  0.00    +0.000 A 
ATOM     15  C   UNL     1       2.312   5.527  18.023  0.00  0.00    +0.000 A 
ATOM     16  C   UNL     1       2.893   4.325  17.611  0.00  0.00    +0.000 A 
ATOM     17  C   UNL     1       4.197   4.326  17.136  0.00  0.00    +0.000 A 
ATOM     18  F   UNL     1       4.765   3.172  16.768  0.00  0.00    +0.000 F 
ATOM     19  C   UNL     1       4.918   5.510  17.043  0.00  0.00    +0.000 A 
ATOM     20  C   UNL     1       4.337   6.712  17.454  0.00  0.00    +0.000 A 
ENDBRANCH   3  14
BRANCH  11  21
ATOM     21  C   UNL     1       2.012  13.602  20.693  0.00  0.00    +0.000 C 
BRANCH  21  22
ATOM     22  C   UNL     1       1.426  14.731  19.877  0.00  0.00    +0.000 A 
ATOM     23  C   UNL     1       0.063  15.046  19.899  0.00  0.00    +0.000 A 
ATOM     24  C   UNL     1      -0.422  16.079  19.101  0.00  0.00    +0.000 A 
ATOM     25  C   UNL     1       0.473  16.776  18.306  0.00  0.00    +0.000 A 
ATOM     26  N   UNL     1       1.795  16.515  18.267  0.00  0.00    +0.000 NA
ATOM     27  C   UNL     1       2.238  15.509  19.054  0.00  0.00    +0.000 A 
ENDBRANCH  21  22
ENDBRANCH  11  21
TORSDOF 3
ENDMDL
