MODEL 1
REMARK VINA RESULT:      -6.2      0.000      0.000
REMARK  Name = 
REMARK  6 active torsions:
REMARK  status: ('A' for Active; 'I' for Inactive)
REMARK    1  A    between atoms: C_1  and  C_2
REMARK    2  A    between atoms: C_2  and  N_3
REMARK    3  A    between atoms: C_4  and  S_5
REMARK    4  A    between atoms: N_6  and  N_7
REMARK    5  A    between atoms: C_8  and  C_10
REMARK    6  A    between atoms: C_14  and  C_15
REMARK                            x       y       z     vdW  Elec       q    Type
REMARK                         _______ _______ _______ _____ _____    ______ ____
ROOT
ATOM      1  N   UNL     1       4.510   5.440  18.782  0.00  0.00    +0.000 N 
ATOM      2  C   UNL     1       5.873   5.202  18.756  0.00  0.00    +0.000 C 
ATOM      3  O   UNL     1       6.512   4.960  19.779  0.00  0.00    +0.000 OA
ATOM      4  H   UNL     1       3.923   5.503  17.956  0.00  0.00    +0.000 HD
ENDROOT
BRANCH   2   5
ATOM      5  C   UNL     1       6.480   5.259  17.433  0.00  0.00    +0.000 A 
ATOM      6  C   UNL     1       6.459   4.299  16.372  0.00  0.00    +0.000 A 
ATOM      7  C   UNL     1       7.174   4.843  15.330  0.00  0.00    +0.000 A 
ATOM      8  O   UNL     1       7.643   6.065  15.669  0.00  0.00    +0.000 OA
ATOM      9  C   UNL     1       7.225   6.322  16.940  0.00  0.00    +0.000 A 
ATOM     10  C   UNL     1       7.646   7.627  17.501  0.00  0.00    +0.000 C 
ENDBRANCH   2   5
BRANCH   1  13
ATOM     11  N   UNL     1       3.069   3.144  19.157  0.00  0.00    +0.000 NA
ATOM     12  C   UNL     1       3.004   4.098  20.026  0.00  0.00    +0.000 C 
ATOM     13  N   UNL     1       3.824   5.200  19.980  0.00  0.00    +0.000 N 
ATOM     14  H   UNL     1       3.521   6.035  20.484  0.00  0.00    +0.000 HD
BRANCH  11  16
ATOM     15  C   UNL     1       0.857   2.319  18.612  0.00  0.00    +0.000 C 
ATOM     16  C   UNL     1       2.200   1.976  19.235  0.00  0.00    +0.000 C 
ENDBRANCH  11  16
BRANCH  12  17
ATOM     17  S   UNL     1       1.910   4.167  21.399  0.00  0.00    +0.000 S 
ATOM     18  H   UNL     1       1.105   3.154  21.067  0.00  0.00    +0.000 HD
ENDBRANCH  12  17
ENDBRANCH   1  13
TORSDOF 4
ENDMDL
MODEL 2
REMARK VINA RESULT:      -6.1      1.329      1.329
REMARK  Name = 
REMARK  6 active torsions:
REMARK  status: ('A' for Active; 'I' for Inactive)
REMARK    1  A    between atoms: C_1  and  C_2
REMARK    2  A    between atoms: C_2  and  N_3
REMARK    3  A    between atoms: C_4  and  S_5
REMARK    4  A    between atoms: N_6  and  N_7
REMARK    5  A    between atoms: C_8  and  C_10
REMARK    6  A    between atoms: C_14  and  C_15
REMARK                            x       y       z     vdW  Elec       q    Type
REMARK                         _______ _______ _______ _____ _____    ______ ____
ROOT
ATOM      1  N   UNL     1       5.362   3.334  18.636  0.00  0.00    +0.000 N 
ATOM      2  C   UNL     1       5.261   4.612  18.115  0.00  0.00    +0.000 C 
ATOM      3  O   UNL     1       4.534   5.466  18.620  0.00  0.00    +0.000 OA
ATOM      4  H   UNL     1       6.049   2.647  18.340  0.00  0.00    +0.000 HD
ENDROOT
BRANCH   2   5
ATOM      5  C   UNL     1       6.078   4.859  16.935  0.00  0.00    +0.000 A 
ATOM      6  C   UNL     1       6.118   4.164  15.685  0.00  0.00    +0.000 A 
ATOM      7  C   UNL     1       7.052   4.804  14.904  0.00  0.00    +0.000 A 
ATOM      8  O   UNL     1       7.599   5.840  15.578  0.00  0.00    +0.000 OA
ATOM      9  C   UNL     1       7.012   5.879  16.808  0.00  0.00    +0.000 A 
ATOM     10  C   UNL     1       7.486   6.954  17.710  0.00  0.00    +0.000 C 
ENDBRANCH   2   5
BRANCH   1  13
ATOM     11  N   UNL     1       2.878   2.202  18.827  0.00  0.00    +0.000 NA
ATOM     12  C   UNL     1       3.465   2.657  19.884  0.00  0.00    +0.000 C 
ATOM     13  N   UNL     1       4.771   3.084  19.881  0.00  0.00    +0.000 N 
ATOM     14  H   UNL     1       5.066   3.705  20.636  0.00  0.00    +0.000 HD
BRANCH  11  16
ATOM     15  C   UNL     1       0.574   2.929  18.655  0.00  0.00    +0.000 C 
ATOM     16  C   UNL     1       1.496   1.739  18.857  0.00  0.00    +0.000 C 
ENDBRANCH  11  16
BRANCH  12  17
ATOM     17  S   UNL     1       2.745   2.799  21.480  0.00  0.00    +0.000 S 
ATOM     18  H   UNL     1       1.484   3.041  21.113  0.00  0.00    +0.000 HD
ENDBRANCH  12  17
ENDBRANCH   1  13
TORSDOF 4
ENDMDL
MODEL 3
REMARK VINA RESULT:      -6.1      3.274      6.158
REMARK  Name = 
REMARK  6 active torsions:
REMARK  status: ('A' for Active; 'I' for Inactive)
REMARK    1  A    between atoms: C_1  and  C_2
REMARK    2  A    between atoms: C_2  and  N_3
REMARK    3  A    between atoms: C_4  and  S_5
REMARK    4  A    between atoms: N_6  and  N_7
REMARK    5  A    between atoms: C_8  and  C_10
REMARK    6  A    between atoms: C_14  and  C_15
REMARK                            x       y       z     vdW  Elec       q    Type
REMARK                         _______ _______ _______ _____ _____    ______ ____
ROOT
ATOM      1  N   UNL     1       4.379   3.342  18.030  0.00  0.00    +0.000 N 
ATOM      2  C   UNL     1       2.996   3.361  17.980  0.00  0.00    +0.000 C 
ATOM      3  O   UNL     1       2.382   3.416  16.916  0.00  0.00    +0.000 OA
ATOM      4  H   UNL     1       4.920   3.157  18.869  0.00  0.00    +0.000 HD
ENDROOT
BRANCH   2   5
ATOM      5  C   UNL     1       2.335   3.311  19.278  0.00  0.00    +0.000 A 
ATOM      6  C   UNL     1       1.835   2.188  20.009  0.00  0.00    +0.000 A 
ATOM      7  C   UNL     1       1.313   2.679  21.184  0.00  0.00    +0.000 A 
ATOM      8  O   UNL     1       1.447   4.024  21.232  0.00  0.00    +0.000 OA
ATOM      9  C   UNL     1       2.066   4.411  20.081  0.00  0.00    +0.000 A 
ATOM     10  C   UNL     1       2.302   5.867  19.940  0.00  0.00    +0.000 C 
ENDBRANCH   2   5
BRANCH   1  13
ATOM     11  N   UNL     1       6.227   5.182  17.201  0.00  0.00    +0.000 NA
ATOM     12  C   UNL     1       5.870   4.223  16.412  0.00  0.00    +0.000 C 
ATOM     13  N   UNL     1       5.077   3.180  16.826  0.00  0.00    +0.000 N 
ATOM     14  H   UNL     1       4.586   2.647  16.106  0.00  0.00    +0.000 HD
BRANCH  11  16
ATOM     15  C   UNL     1       7.669   6.976  17.958  0.00  0.00    +0.000 C 
ATOM     16  C   UNL     1       7.084   6.270  16.745  0.00  0.00    +0.000 C 
ENDBRANCH  11  16
BRANCH  12  17
ATOM     17  S   UNL     1       6.326   4.056  14.724  0.00  0.00    +0.000 S 
ATOM     18  H   UNL     1       7.403   4.846  14.726  0.00  0.00    +0.000 HD
ENDBRANCH  12  17
ENDBRANCH   1  13
TORSDOF 4
ENDMDL
MODEL 4
REMARK VINA RESULT:      -6.0      1.433      1.844
REMARK  Name = 
REMARK  6 active torsions:
REMARK  status: ('A' for Active; 'I' for Inactive)
REMARK    1  A    between atoms: C_1  and  C_2
REMARK    2  A    between atoms: C_2  and  N_3
REMARK    3  A    between atoms: C_4  and  S_5
REMARK    4  A    between atoms: N_6  and  N_7
REMARK    5  A    between atoms: C_8  and  C_10
REMARK    6  A    between atoms: C_14  and  C_15
REMARK                            x       y       z     vdW  Elec       q    Type
REMARK                         _______ _______ _______ _____ _____    ______ ____
ROOT
ATOM      1  N   UNL     1       4.697   3.195  17.967  0.00  0.00    +0.000 N 
ATOM      2  C   UNL     1       5.752   4.078  18.120  0.00  0.00    +0.000 C 
ATOM      3  O   UNL     1       6.161   4.419  19.229  0.00  0.00    +0.000 OA
ATOM      4  H   UNL     1       4.421   2.779  17.083  0.00  0.00    +0.000 HD
ENDROOT
BRANCH   2   5
ATOM      5  C   UNL     1       6.331   4.562  16.874  0.00  0.00    +0.000 A 
ATOM      6  C   UNL     1       6.316   3.978  15.568  0.00  0.00    +0.000 A 
ATOM      7  C   UNL     1       6.996   4.841  14.739  0.00  0.00    +0.000 A 
ATOM      8  O   UNL     1       7.437   5.913  15.436  0.00  0.00    +0.000 OA
ATOM      9  C   UNL     1       7.037   5.749  16.729  0.00  0.00    +0.000 A 
ATOM     10  C   UNL     1       7.432   6.829  17.663  0.00  0.00    +0.000 C 
ENDBRANCH   2   5
BRANCH   1  13
ATOM     11  N   UNL     1       2.401   3.989  19.226  0.00  0.00    +0.000 NA
ATOM     12  C   UNL     1       3.155   3.088  19.764  0.00  0.00    +0.000 C 
ATOM     13  N   UNL     1       4.227   2.531  19.107  0.00  0.00    +0.000 N 
ATOM     14  H   UNL     1       4.944   2.079  19.676  0.00  0.00    +0.000 HD
BRANCH  11  16
ATOM     15  C   UNL     1       1.674   5.874  20.563  0.00  0.00    +0.000 C 
ATOM     16  C   UNL     1       1.259   4.554  19.935  0.00  0.00    +0.000 C 
ENDBRANCH  11  16
BRANCH  12  17
ATOM     17  S   UNL     1       2.958   2.406  21.370  0.00  0.00    +0.000 S 
ATOM     18  H   UNL     1       4.231   2.465  21.772  0.00  0.00    +0.000 HD
ENDBRANCH  12  17
ENDBRANCH   1  13
TORSDOF 4
ENDMDL
MODEL 5
REMARK VINA RESULT:      -6.0      1.579      2.317
REMARK  Name = 
REMARK  6 active torsions:
REMARK  status: ('A' for Active; 'I' for Inactive)
REMARK    1  A    between atoms: C_1  and  C_2
REMARK    2  A    between atoms: C_2  and  N_3
REMARK    3  A    between atoms: C_4  and  S_5
REMARK    4  A    between atoms: N_6  and  N_7
REMARK    5  A    between atoms: C_8  and  C_10
REMARK    6  A    between atoms: C_14  and  C_15
REMARK                            x       y       z     vdW  Elec       q    Type
REMARK                         _______ _______ _______ _____ _____    ______ ____
ROOT
ATOM      1  N   UNL     1       3.994   4.190  17.931  0.00  0.00    +0.000 N 
ATOM      2  C   UNL     1       5.369   4.235  18.087  0.00  0.00    +0.000 C 
ATOM      3  O   UNL     1       5.912   3.972  19.158  0.00  0.00    +0.000 OA
ATOM      4  H   UNL     1       3.516   4.260  17.039  0.00  0.00    +0.000 HD
ENDROOT
BRANCH   2   5
ATOM      5  C   UNL     1       6.109   4.615  16.891  0.00  0.00    +0.000 A 
ATOM      6  C   UNL     1       6.163   3.984  15.608  0.00  0.00    +0.000 A 
ATOM      7  C   UNL     1       6.999   4.747  14.825  0.00  0.00    +0.000 A 
ATOM      8  O   UNL     1       7.472   5.800  15.530  0.00  0.00    +0.000 OA
ATOM      9  C   UNL     1       6.935   5.725  16.780  0.00  0.00    +0.000 A 
ATOM     10  C   UNL     1       7.340   6.799  17.716  0.00  0.00    +0.000 C 
ENDBRANCH   2   5
BRANCH   1  13
ATOM     11  N   UNL     1       2.508   5.770  19.599  0.00  0.00    +0.000 NA
ATOM     12  C   UNL     1       2.642   4.510  19.851  0.00  0.00    +0.000 C 
ATOM     13  N   UNL     1       3.234   3.637  18.970  0.00  0.00    +0.000 N 
ATOM     14  H   UNL     1       3.585   2.755  19.345  0.00  0.00    +0.000 HD
BRANCH  11  16
ATOM     15  C   UNL     1       1.787   8.060  19.921  0.00  0.00    +0.000 C 
ATOM     16  C   UNL     1       1.862   6.676  20.542  0.00  0.00    +0.000 C 
ENDBRANCH  11  16
BRANCH  12  17
ATOM     17  S   UNL     1       2.100   3.689  21.306  0.00  0.00    +0.000 S 
ATOM     18  H   UNL     1       0.898   3.294  20.879  0.00  0.00    +0.000 HD
ENDBRANCH  12  17
ENDBRANCH   1  13
TORSDOF 4
ENDMDL
MODEL 6
REMARK VINA RESULT:      -5.9      3.244      6.433
REMARK  Name = 
REMARK  6 active torsions:
REMARK  status: ('A' for Active; 'I' for Inactive)
REMARK    1  A    between atoms: C_1  and  C_2
REMARK    2  A    between atoms: C_2  and  N_3
REMARK    3  A    between atoms: C_4  and  S_5
REMARK    4  A    between atoms: N_6  and  N_7
REMARK    5  A    between atoms: C_8  and  C_10
REMARK    6  A    between atoms: C_14  and  C_15
REMARK                            x       y       z     vdW  Elec       q    Type
REMARK                         _______ _______ _______ _____ _____    ______ ____
ROOT
ATOM      1  N   UNL     1       4.117   3.532  17.986  0.00  0.00    +0.000 N 
ATOM      2  C   UNL     1       3.624   2.365  18.545  0.00  0.00    +0.000 C 
ATOM      3  O   UNL     1       3.850   1.261  18.054  0.00  0.00    +0.000 OA
ATOM      4  H   UNL     1       4.074   4.443  18.430  0.00  0.00    +0.000 HD
ENDROOT
BRANCH   2   5
ATOM      5  C   UNL     1       2.825   2.553  19.748  0.00  0.00    +0.000 A 
ATOM      6  C   UNL     1       3.237   2.676  21.113  0.00  0.00    +0.000 A 
ATOM      7  C   UNL     1       2.095   2.849  21.860  0.00  0.00    +0.000 A 
ATOM      8  O   UNL     1       1.004   2.834  21.060  0.00  0.00    +0.000 OA
ATOM      9  C   UNL     1       1.441   2.657  19.782  0.00  0.00    +0.000 A 
ATOM     10  C   UNL     1       0.383   2.607  18.745  0.00  0.00    +0.000 C 
ENDBRANCH   2   5
BRANCH   1  13
ATOM     11  N   UNL     1       5.940   5.514  17.503  0.00  0.00    +0.000 NA
ATOM     12  C   UNL     1       5.832   4.521  16.684  0.00  0.00    +0.000 C 
ATOM     13  N   UNL     1       5.058   3.418  16.954  0.00  0.00    +0.000 N 
ATOM     14  H   UNL     1       4.770   2.839  16.163  0.00  0.00    +0.000 HD
BRANCH  11  16
ATOM     15  C   UNL     1       7.822   6.814  18.302  0.00  0.00    +0.000 C 
ATOM     16  C   UNL     1       6.782   6.666  17.204  0.00  0.00    +0.000 C 
ENDBRANCH  11  16
BRANCH  12  17
ATOM     17  S   UNL     1       6.637   4.377  15.129  0.00  0.00    +0.000 S 
ATOM     18  H   UNL     1       5.875   5.220  14.428  0.00  0.00    +0.000 HD
ENDBRANCH  12  17
ENDBRANCH   1  13
TORSDOF 4
ENDMDL
MODEL 7
REMARK VINA RESULT:      -5.9      3.308      6.256
REMARK  Name = 
REMARK  6 active torsions:
REMARK  status: ('A' for Active; 'I' for Inactive)
REMARK    1  A    between atoms: C_1  and  C_2
REMARK    2  A    between atoms: C_2  and  N_3
REMARK    3  A    between atoms: C_4  and  S_5
REMARK    4  A    between atoms: N_6  and  N_7
REMARK    5  A    between atoms: C_8  and  C_10
REMARK    6  A    between atoms: C_14  and  C_15
REMARK                            x       y       z     vdW  Elec       q    Type
REMARK                         _______ _______ _______ _____ _____    ______ ____
ROOT
ATOM      1  N   UNL     1       3.519   3.954  17.989  0.00  0.00    +0.000 N 
ATOM      2  C   UNL     1       2.659   2.922  18.319  0.00  0.00    +0.000 C 
ATOM      3  O   UNL     1       2.216   2.146  17.474  0.00  0.00    +0.000 OA
ATOM      4  H   UNL     1       4.016   4.525  18.666  0.00  0.00    +0.000 HD
ENDROOT
BRANCH   2   5
ATOM      5  C   UNL     1       2.327   2.830  19.735  0.00  0.00    +0.000 A 
ATOM      6  C   UNL     1       1.095   3.106  20.408  0.00  0.00    +0.000 A 
ATOM      7  C   UNL     1       1.306   2.851  21.743  0.00  0.00    +0.000 A 
ATOM      8  O   UNL     1       2.579   2.444  21.949  0.00  0.00    +0.000 OA
ATOM      9  C   UNL     1       3.201   2.429  20.737  0.00  0.00    +0.000 A 
ATOM     10  C   UNL     1       4.622   2.011  20.752  0.00  0.00    +0.000 C 
ENDBRANCH   2   5
BRANCH   1  13
ATOM     11  N   UNL     1       6.149   4.559  17.534  0.00  0.00    +0.000 NA
ATOM     12  C   UNL     1       5.331   4.442  16.541  0.00  0.00    +0.000 C 
ATOM     13  N   UNL     1       4.045   3.981  16.691  0.00  0.00    +0.000 N 
ATOM     14  H   UNL     1       3.375   4.206  15.954  0.00  0.00    +0.000 HD
BRANCH  11  16
ATOM     15  C   UNL     1       7.593   6.487  17.789  0.00  0.00    +0.000 C 
ATOM     16  C   UNL     1       7.515   5.035  17.349  0.00  0.00    +0.000 C 
ENDBRANCH  11  16
BRANCH  12  17
ATOM     17  S   UNL     1       5.690   4.816  14.862  0.00  0.00    +0.000 S 
ATOM     18  H   UNL     1       6.809   4.100  14.731  0.00  0.00    +0.000 HD
ENDBRANCH  12  17
ENDBRANCH   1  13
TORSDOF 4
ENDMDL
MODEL 8
REMARK VINA RESULT:      -5.9      5.091      6.420
REMARK  Name = 
REMARK  6 active torsions:
REMARK  status: ('A' for Active; 'I' for Inactive)
REMARK    1  A    between atoms: C_1  and  C_2
REMARK    2  A    between atoms: C_2  and  N_3
REMARK    3  A    between atoms: C_4  and  S_5
REMARK    4  A    between atoms: N_6  and  N_7
REMARK    5  A    between atoms: C_8  and  C_10
REMARK    6  A    between atoms: C_14  and  C_15
REMARK                            x       y       z     vdW  Elec       q    Type
REMARK                         _______ _______ _______ _____ _____    ______ ____
ROOT
ATOM      1  N   UNL     1       5.518   4.033  14.262  0.00  0.00    +0.000 N 
ATOM      2  C   UNL     1       6.175   4.659  15.307  0.00  0.00    +0.000 C 
ATOM      3  O   UNL     1       7.394   4.586  15.447  0.00  0.00    +0.000 OA
ATOM      4  H   UNL     1       4.541   4.181  14.028  0.00  0.00    +0.000 HD
ENDROOT
BRANCH   2   5
ATOM      5  C   UNL     1       5.312   5.403  16.215  0.00  0.00    +0.000 A 
ATOM      6  C   UNL     1       5.172   6.815  16.396  0.00  0.00    +0.000 A 
ATOM      7  C   UNL     1       4.216   6.998  17.369  0.00  0.00    +0.000 A 
ATOM      8  O   UNL     1       3.758   5.804  17.809  0.00  0.00    +0.000 OA
ATOM      9  C   UNL     1       4.418   4.836  17.113  0.00  0.00    +0.000 A 
ATOM     10  C   UNL     1       4.056   3.441  17.458  0.00  0.00    +0.000 C 
ENDBRANCH   2   5
BRANCH   1  13
ATOM     11  N   UNL     1       4.420   3.377  11.843  0.00  0.00    +0.000 NA
ATOM     12  C   UNL     1       5.635   3.036  12.115  0.00  0.00    +0.000 C 
ATOM     13  N   UNL     1       6.295   3.476  13.238  0.00  0.00    +0.000 N 
ATOM     14  H   UNL     1       7.105   2.938  13.549  0.00  0.00    +0.000 HD
BRANCH  11  16
ATOM     15  C   UNL     1       3.133   4.107   9.924  0.00  0.00    +0.000 C 
ATOM     16  C   UNL     1       3.745   2.912  10.636  0.00  0.00    +0.000 C 
ENDBRANCH  11  16
BRANCH  12  17
ATOM     17  S   UNL     1       6.657   1.997  11.134  0.00  0.00    +0.000 S 
ATOM     18  H   UNL     1       5.943   0.872  11.219  0.00  0.00    +0.000 HD
ENDBRANCH  12  17
ENDBRANCH   1  13
TORSDOF 4
ENDMDL
MODEL 9
REMARK VINA RESULT:      -5.9      1.322      1.322
REMARK  Name = 
REMARK  6 active torsions:
REMARK  status: ('A' for Active; 'I' for Inactive)
REMARK    1  A    between atoms: C_1  and  C_2
REMARK    2  A    between atoms: C_2  and  N_3
REMARK    3  A    between atoms: C_4  and  S_5
REMARK    4  A    between atoms: N_6  and  N_7
REMARK    5  A    between atoms: C_8  and  C_10
REMARK    6  A    between atoms: C_14  and  C_15
REMARK                            x       y       z     vdW  Elec       q    Type
REMARK                         _______ _______ _______ _____ _____    ______ ____
ROOT
ATOM      1  N   UNL     1       4.878   4.878  18.613  0.00  0.00    +0.000 N 
ATOM      2  C   UNL     1       4.667   5.581  17.439  0.00  0.00    +0.000 C 
ATOM      3  O   UNL     1       3.671   6.281  17.269  0.00  0.00    +0.000 OA
ATOM      4  H   UNL     1       5.745   4.405  18.850  0.00  0.00    +0.000 HD
ENDROOT
BRANCH   2   5
ATOM      5  C   UNL     1       5.712   5.425  16.436  0.00  0.00    +0.000 A 
ATOM      6  C   UNL     1       5.730   4.631  15.246  0.00  0.00    +0.000 A 
ATOM      7  C   UNL     1       6.947   4.846  14.642  0.00  0.00    +0.000 A 
ATOM      8  O   UNL     1       7.688   5.710  15.372  0.00  0.00    +0.000 OA
ATOM      9  C   UNL     1       6.944   6.064  16.459  0.00  0.00    +0.000 A 
ATOM     10  C   UNL     1       7.591   7.012  17.396  0.00  0.00    +0.000 C 
ENDBRANCH   2   5
BRANCH   1  13
ATOM     11  N   UNL     1       2.992   3.062  19.407  0.00  0.00    +0.000 NA
ATOM     12  C   UNL     1       3.013   4.243  19.929  0.00  0.00    +0.000 C 
ATOM     13  N   UNL     1       4.029   5.139  19.695  0.00  0.00    +0.000 N 
ATOM     14  H   UNL     1       3.836   6.126  19.870  0.00  0.00    +0.000 HD
BRANCH  11  16
ATOM     15  C   UNL     1       0.808   2.326  18.658  0.00  0.00    +0.000 C 
ATOM     16  C   UNL     1       1.912   2.121  19.682  0.00  0.00    +0.000 C 
ENDBRANCH  11  16
BRANCH  12  17
ATOM     17  S   UNL     1       1.804   4.909  21.016  0.00  0.00    +0.000 S 
ATOM     18  H   UNL     1       1.949   6.201  20.712  0.00  0.00    +0.000 HD
ENDBRANCH  12  17
ENDBRANCH   1  13
TORSDOF 4
ENDMDL
