MODEL 1
REMARK VINA RESULT:      -8.1      0.000      0.000
REMARK  Name = 
REMARK  9 active torsions:
REMARK  status: ('A' for Active; 'I' for Inactive)
REMARK    1  A    between atoms: C_1  and  N_2
REMARK    2  A    between atoms: N_2  and  C_3
REMARK    3  A    between atoms: N_2  and  C_4
REMARK    4  A    between atoms: C_7  and  N_8
REMARK    5  A    between atoms: N_11  and  C_12
REMARK    6  A    between atoms: C_12  and  C_13
REMARK    7  A    between atoms: N_15  and  C_16
REMARK    8  A    between atoms: C_22  and  C_23
REMARK    9  A    between atoms: C_23  and  O_25
REMARK                            x       y       z     vdW  Elec       q    Type
REMARK                         _______ _______ _______ _____ _____    ______ ____
ROOT
ATOM      1  C   UNL     1       1.853   7.544  20.083  0.00  0.00    +0.000 C 
ATOM      2  O   UNL     1       1.993   8.295  19.120  0.00  0.00    +0.000 OA
ATOM      3  N   UNL     1       2.361   6.262  20.218  0.00  0.00    +0.000 N 
ATOM      4  H   UNL     1       2.046   5.713  21.012  0.00  0.00    +0.000 HD
ENDROOT
BRANCH   3   5
ATOM      5  C   UNL     1       3.191   5.596  19.294  0.00  0.00    +0.000 A 
ATOM      6  C   UNL     1       2.704   4.707  18.337  0.00  0.00    +0.000 A 
ATOM      7  C   UNL     1       3.555   4.072  17.429  0.00  0.00    +0.000 A 
ATOM      8  C   UNL     1       4.920   4.351  17.514  0.00  0.00    +0.000 A 
ATOM      9  N   UNL     1       5.964   3.883  16.756  0.00  0.00    +0.000 N 
ATOM     10  C   UNL     1       7.150   4.408  17.207  0.00  0.00    +0.000 A 
ATOM     11  C   UNL     1       6.883   5.237  18.288  0.00  0.00    +0.000 A 
ATOM     12  C   UNL     1       5.454   5.223  18.460  0.00  0.00    +0.000 A 
ATOM     13  C   UNL     1       4.565   5.866  19.352  0.00  0.00    +0.000 A 
ATOM     14  H   UNL     1       5.862   3.242  15.981  0.00  0.00    +0.000 HD
BRANCH  11  15
ATOM     15  C   UNL     1       7.836   5.985  19.111  0.00  0.00    +0.000 C 
ATOM     16  O   UNL     1       8.294   7.075  18.794  0.00  0.00    +0.000 OA
BRANCH  15  17
ATOM     17  O   UNL     1       8.190   5.394  20.281  0.00  0.00    +0.000 OA
ATOM     18  H   UNL     1       7.425   5.162  20.831  0.00  0.00    +0.000 HD
ENDBRANCH  15  17
ENDBRANCH  11  15
ENDBRANCH   3   5
BRANCH   1  19
ATOM     19  C   UNL     1       1.070   7.990  21.308  0.00  0.00    +0.000 C 
BRANCH  19  23
ATOM     20  N   UNL     1      -0.797  11.101  21.484  0.00  0.00    +0.000 N 
ATOM     21  C   UNL     1       0.023  10.083  21.909  0.00  0.00    +0.000 C 
ATOM     22  O   UNL     1       0.565   9.980  23.004  0.00  0.00    +0.000 OA
ATOM     23  N   UNL     1       0.188   9.092  20.979  0.00  0.00    +0.000 N 
ATOM     24  H   UNL     1      -1.204  11.007  20.564  0.00  0.00    +0.000 HD
ATOM     25  H   UNL     1      -0.000   9.256  19.997  0.00  0.00    +0.000 HD
BRANCH  20  29
ATOM     26  C   UNL     1      -2.001  14.413  23.919  0.00  0.00    +0.000 A 
ATOM     27  C   UNL     1      -0.831  14.446  23.152  0.00  0.00    +0.000 A 
ATOM     28  C   UNL     1      -0.431  13.375  22.348  0.00  0.00    +0.000 A 
ATOM     29  C   UNL     1      -1.194  12.216  22.257  0.00  0.00    +0.000 A 
ATOM     30  C   UNL     1      -2.390  12.167  22.971  0.00  0.00    +0.000 A 
ATOM     31  C   UNL     1      -2.782  13.250  23.785  0.00  0.00    +0.000 A 
BRANCH  26  33
ATOM     32  C   UNL     1      -3.786  15.785  24.928  0.00  0.00    +0.000 C 
ATOM     33  N   UNL     1      -2.368  15.481  24.741  0.00  0.00    +0.000 N 
ATOM     34  C   UNL     1      -1.431  16.583  24.915  0.00  0.00    +0.000 C 
ENDBRANCH  26  33
ENDBRANCH  20  29
ENDBRANCH  19  23
ENDBRANCH   1  19
TORSDOF 7
ENDMDL
MODEL 2
REMARK VINA RESULT:      -8.0      0.661      1.136
REMARK  Name = 
REMARK  9 active torsions:
REMARK  status: ('A' for Active; 'I' for Inactive)
REMARK    1  A    between atoms: C_1  and  N_2
REMARK    2  A    between atoms: N_2  and  C_3
REMARK    3  A    between atoms: N_2  and  C_4
REMARK    4  A    between atoms: C_7  and  N_8
REMARK    5  A    between atoms: N_11  and  C_12
REMARK    6  A    between atoms: C_12  and  C_13
REMARK    7  A    between atoms: N_15  and  C_16
REMARK    8  A    between atoms: C_22  and  C_23
REMARK    9  A    between atoms: C_23  and  O_25
REMARK                            x       y       z     vdW  Elec       q    Type
REMARK                         _______ _______ _______ _____ _____    ______ ____
ROOT
ATOM      1  C   UNL     1       1.892   7.672  20.041  0.00  0.00    +0.000 C 
ATOM      2  O   UNL     1       1.850   8.310  18.990  0.00  0.00    +0.000 OA
ATOM      3  N   UNL     1       2.475   6.430  20.236  0.00  0.00    +0.000 N 
ATOM      4  H   UNL     1       2.308   5.968  21.124  0.00  0.00    +0.000 HD
ENDROOT
BRANCH   3   5
ATOM      5  C   UNL     1       3.188   5.687  19.275  0.00  0.00    +0.000 A 
ATOM      6  C   UNL     1       2.677   4.543  18.664  0.00  0.00    +0.000 A 
ATOM      7  C   UNL     1       3.409   3.836  17.707  0.00  0.00    +0.000 A 
ATOM      8  C   UNL     1       4.681   4.310  17.382  0.00  0.00    +0.000 A 
ATOM      9  N   UNL     1       5.600   3.825  16.485  0.00  0.00    +0.000 N 
ATOM     10  C   UNL     1       6.737   4.596  16.506  0.00  0.00    +0.000 A 
ATOM     11  C   UNL     1       6.565   5.609  17.440  0.00  0.00    +0.000 A 
ATOM     12  C   UNL     1       5.239   5.442  17.974  0.00  0.00    +0.000 A 
ATOM     13  C   UNL     1       4.465   6.147  18.924  0.00  0.00    +0.000 A 
ATOM     14  H   UNL     1       5.451   3.014  15.901  0.00  0.00    +0.000 HD
BRANCH  11  15
ATOM     15  C   UNL     1       7.519   6.649  17.830  0.00  0.00    +0.000 C 
ATOM     16  O   UNL     1       7.764   7.634  17.146  0.00  0.00    +0.000 OA
BRANCH  15  17
ATOM     17  O   UNL     1       8.129   6.465  19.030  0.00  0.00    +0.000 OA
ATOM     18  H   UNL     1       7.833   7.097  19.704  0.00  0.00    +0.000 HD
ENDBRANCH  15  17
ENDBRANCH  11  15
ENDBRANCH   3   5
BRANCH   1  19
ATOM     19  C   UNL     1       1.280   8.234  21.314  0.00  0.00    +0.000 C 
BRANCH  19  23
ATOM     20  N   UNL     1      -0.809  11.191  21.615  0.00  0.00    +0.000 N 
ATOM     21  C   UNL     1       0.030  10.179  22.017  0.00  0.00    +0.000 C 
ATOM     22  O   UNL     1       0.458   9.979  23.149  0.00  0.00    +0.000 OA
ATOM     23  N   UNL     1       0.363   9.314  21.009  0.00  0.00    +0.000 N 
ATOM     24  H   UNL     1      -1.107  11.181  20.650  0.00  0.00    +0.000 HD
ATOM     25  H   UNL     1       0.270   9.580  20.036  0.00  0.00    +0.000 HD
BRANCH  20  29
ATOM     26  C   UNL     1      -2.487  14.272  24.072  0.00  0.00    +0.000 A 
ATOM     27  C   UNL     1      -3.138  13.051  23.870  0.00  0.00    +0.000 A 
ATOM     28  C   UNL     1      -2.599  12.035  23.077  0.00  0.00    +0.000 A 
ATOM     29  C   UNL     1      -1.363  12.183  22.455  0.00  0.00    +0.000 A 
ATOM     30  C   UNL     1      -0.665  13.370  22.672  0.00  0.00    +0.000 A 
ATOM     31  C   UNL     1      -1.221  14.392  23.469  0.00  0.00    +0.000 A 
BRANCH  26  33
ATOM     32  C   UNL     1      -4.304  15.909  24.399  0.00  0.00    +0.000 C 
ATOM     33  N   UNL     1      -3.057  15.287  24.843  0.00  0.00    +0.000 N 
ATOM     34  C   UNL     1      -2.188  16.092  25.692  0.00  0.00    +0.000 C 
ENDBRANCH  26  33
ENDBRANCH  20  29
ENDBRANCH  19  23
ENDBRANCH   1  19
TORSDOF 7
ENDMDL
MODEL 3
REMARK VINA RESULT:      -7.9      3.441      5.724
REMARK  Name = 
REMARK  9 active torsions:
REMARK  status: ('A' for Active; 'I' for Inactive)
REMARK    1  A    between atoms: C_1  and  N_2
REMARK    2  A    between atoms: N_2  and  C_3
REMARK    3  A    between atoms: N_2  and  C_4
REMARK    4  A    between atoms: C_7  and  N_8
REMARK    5  A    between atoms: N_11  and  C_12
REMARK    6  A    between atoms: C_12  and  C_13
REMARK    7  A    between atoms: N_15  and  C_16
REMARK    8  A    between atoms: C_22  and  C_23
REMARK    9  A    between atoms: C_23  and  O_25
REMARK                            x       y       z     vdW  Elec       q    Type
REMARK                         _______ _______ _______ _____ _____    ______ ____
ROOT
ATOM      1  C   UNL     1       4.494   3.835  18.717  0.00  0.00    +0.000 C 
ATOM      2  O   UNL     1       5.579   3.628  19.258  0.00  0.00    +0.000 OA
ATOM      3  N   UNL     1       4.284   4.344  17.445  0.00  0.00    +0.000 N 
ATOM      4  H   UNL     1       3.333   4.590  17.190  0.00  0.00    +0.000 HD
ENDROOT
BRANCH   3   5
ATOM      5  C   UNL     1       5.281   4.664  16.504  0.00  0.00    +0.000 A 
ATOM      6  C   UNL     1       6.331   5.541  16.774  0.00  0.00    +0.000 A 
ATOM      7  C   UNL     1       7.310   5.828  15.819  0.00  0.00    +0.000 A 
ATOM      8  C   UNL     1       7.200   5.210  14.572  0.00  0.00    +0.000 A 
ATOM      9  N   UNL     1       8.011   5.302  13.469  0.00  0.00    +0.000 N 
ATOM     10  C   UNL     1       7.509   4.535  12.446  0.00  0.00    +0.000 A 
ATOM     11  C   UNL     1       6.340   3.928  12.882  0.00  0.00    +0.000 A 
ATOM     12  C   UNL     1       6.164   4.336  14.251  0.00  0.00    +0.000 A 
ATOM     13  C   UNL     1       5.201   4.050  15.246  0.00  0.00    +0.000 A 
ATOM     14  H   UNL     1       8.853   5.860  13.427  0.00  0.00    +0.000 HD
BRANCH  11  15
ATOM     15  C   UNL     1       5.443   3.049  12.130  0.00  0.00    +0.000 C 
ATOM     16  O   UNL     1       4.307   3.364  11.801  0.00  0.00    +0.000 OA
BRANCH  15  17
ATOM     17  O   UNL     1       5.953   1.834  11.800  0.00  0.00    +0.000 OA
ATOM     18  H   UNL     1       5.864   1.634  10.854  0.00  0.00    +0.000 HD
ENDBRANCH  15  17
ENDBRANCH  11  15
ENDBRANCH   3   5
BRANCH   1  19
ATOM     19  C   UNL     1       3.194   3.515  19.437  0.00  0.00    +0.000 C 
BRANCH  19  23
ATOM     20  N   UNL     1       1.923   6.623  20.822  0.00  0.00    +0.000 N 
ATOM     21  C   UNL     1       2.251   5.699  19.859  0.00  0.00    +0.000 C 
ATOM     22  O   UNL     1       2.089   5.806  18.648  0.00  0.00    +0.000 OA
ATOM     23  N   UNL     1       2.847   4.574  20.363  0.00  0.00    +0.000 N 
ATOM     24  H   UNL     1       2.170   6.398  21.776  0.00  0.00    +0.000 HD
ATOM     25  H   UNL     1       2.752   4.323  21.339  0.00  0.00    +0.000 HD
BRANCH  20  29
ATOM     26  C   UNL     1       0.264  10.522  20.195  0.00  0.00    +0.000 A 
ATOM     27  C   UNL     1       1.095   9.912  19.250  0.00  0.00    +0.000 A 
ATOM     28  C   UNL     1       1.637   8.638  19.439  0.00  0.00    +0.000 A 
ATOM     29  C   UNL     1       1.359   7.897  20.584  0.00  0.00    +0.000 A 
ATOM     30  C   UNL     1       0.498   8.456  21.526  0.00  0.00    +0.000 A 
ATOM     31  C   UNL     1      -0.038   9.746  21.329  0.00  0.00    +0.000 A 
BRANCH  26  33
ATOM     32  C   UNL     1      -0.712  12.202  18.674  0.00  0.00    +0.000 C 
ATOM     33  N   UNL     1      -0.242  11.809  20.002  0.00  0.00    +0.000 N 
ATOM     34  C   UNL     1       0.214  12.879  20.881  0.00  0.00    +0.000 C 
ENDBRANCH  26  33
ENDBRANCH  20  29
ENDBRANCH  19  23
ENDBRANCH   1  19
TORSDOF 7
ENDMDL
MODEL 4
REMARK VINA RESULT:      -7.9      2.903      3.826
REMARK  Name = 
REMARK  9 active torsions:
REMARK  status: ('A' for Active; 'I' for Inactive)
REMARK    1  A    between atoms: C_1  and  N_2
REMARK    2  A    between atoms: N_2  and  C_3
REMARK    3  A    between atoms: N_2  and  C_4
REMARK    4  A    between atoms: C_7  and  N_8
REMARK    5  A    between atoms: N_11  and  C_12
REMARK    6  A    between atoms: C_12  and  C_13
REMARK    7  A    between atoms: N_15  and  C_16
REMARK    8  A    between atoms: C_22  and  C_23
REMARK    9  A    between atoms: C_23  and  O_25
REMARK                            x       y       z     vdW  Elec       q    Type
REMARK                         _______ _______ _______ _____ _____    ______ ____
ROOT
ATOM      1  C   UNL     1       1.970   8.349  18.839  0.00  0.00    +0.000 C 
ATOM      2  O   UNL     1       1.873   8.160  20.050  0.00  0.00    +0.000 OA
ATOM      3  N   UNL     1       2.672   7.574  17.930  0.00  0.00    +0.000 N 
ATOM      4  H   UNL     1       2.774   7.934  16.987  0.00  0.00    +0.000 HD
ENDROOT
BRANCH   3   5
ATOM      5  C   UNL     1       3.363   6.381  18.216  0.00  0.00    +0.000 A 
ATOM      6  C   UNL     1       4.604   6.068  17.663  0.00  0.00    +0.000 A 
ATOM      7  C   UNL     1       5.266   4.878  17.978  0.00  0.00    +0.000 A 
ATOM      8  C   UNL     1       4.640   4.002  18.865  0.00  0.00    +0.000 A 
ATOM      9  N   UNL     1       5.059   2.787  19.348  0.00  0.00    +0.000 N 
ATOM     10  C   UNL     1       4.109   2.256  20.186  0.00  0.00    +0.000 A 
ATOM     11  C   UNL     1       3.039   3.137  20.254  0.00  0.00    +0.000 A 
ATOM     12  C   UNL     1       3.395   4.265  19.434  0.00  0.00    +0.000 A 
ATOM     13  C   UNL     1       2.761   5.487  19.112  0.00  0.00    +0.000 A 
ATOM     14  H   UNL     1       5.942   2.355  19.111  0.00  0.00    +0.000 HD
BRANCH  11  15
ATOM     15  C   UNL     1       1.785   2.981  20.994  0.00  0.00    +0.000 C 
ATOM     16  O   UNL     1       1.732   2.795  22.203  0.00  0.00    +0.000 OA
BRANCH  15  17
ATOM     17  O   UNL     1       0.651   3.064  20.251  0.00  0.00    +0.000 OA
ATOM     18  H   UNL     1       0.617   3.866  19.706  0.00  0.00    +0.000 HD
ENDBRANCH  15  17
ENDBRANCH  11  15
ENDBRANCH   3   5
BRANCH   1  19
ATOM     19  C   UNL     1       1.264   9.523  18.178  0.00  0.00    +0.000 C 
BRANCH  19  23
ATOM     20  N   UNL     1      -0.358  11.717  20.576  0.00  0.00    +0.000 N 
ATOM     21  C   UNL     1      -0.244  10.714  19.643  0.00  0.00    +0.000 C 
ATOM     22  O   UNL     1      -1.139   9.987  19.226  0.00  0.00    +0.000 OA
ATOM     23  N   UNL     1       1.022  10.582  19.138  0.00  0.00    +0.000 N 
ATOM     24  H   UNL     1       0.473  12.257  20.772  0.00  0.00    +0.000 HD
ATOM     25  H   UNL     1       1.826  10.952  19.631  0.00  0.00    +0.000 HD
BRANCH  20  29
ATOM     26  C   UNL     1      -4.046  12.867  22.427  0.00  0.00    +0.000 A 
ATOM     27  C   UNL     1      -3.011  12.268  23.152  0.00  0.00    +0.000 A 
ATOM     28  C   UNL     1      -1.800  11.895  22.562  0.00  0.00    +0.000 A 
ATOM     29  C   UNL     1      -1.556  12.118  21.211  0.00  0.00    +0.000 A 
ATOM     30  C   UNL     1      -2.548  12.756  20.468  0.00  0.00    +0.000 A 
ATOM     31  C   UNL     1      -3.769  13.122  21.071  0.00  0.00    +0.000 A 
BRANCH  26  33
ATOM     32  C   UNL     1      -5.605  12.620  24.324  0.00  0.00    +0.000 C 
ATOM     33  N   UNL     1      -5.261  13.204  23.028  0.00  0.00    +0.000 N 
ATOM     34  C   UNL     1      -6.370  13.618  22.178  0.00  0.00    +0.000 C 
ENDBRANCH  26  33
ENDBRANCH  20  29
ENDBRANCH  19  23
ENDBRANCH   1  19
TORSDOF 7
ENDMDL
MODEL 5
REMARK VINA RESULT:      -7.9      2.779      3.640
REMARK  Name = 
REMARK  9 active torsions:
REMARK  status: ('A' for Active; 'I' for Inactive)
REMARK    1  A    between atoms: C_1  and  N_2
REMARK    2  A    between atoms: N_2  and  C_3
REMARK    3  A    between atoms: N_2  and  C_4
REMARK    4  A    between atoms: C_7  and  N_8
REMARK    5  A    between atoms: N_11  and  C_12
REMARK    6  A    between atoms: C_12  and  C_13
REMARK    7  A    between atoms: N_15  and  C_16
REMARK    8  A    between atoms: C_22  and  C_23
REMARK    9  A    between atoms: C_23  and  O_25
REMARK                            x       y       z     vdW  Elec       q    Type
REMARK                         _______ _______ _______ _____ _____    ______ ____
ROOT
ATOM      1  C   UNL     1       1.850   8.436  19.048  0.00  0.00    +0.000 C 
ATOM      2  O   UNL     1       1.799   8.212  20.256  0.00  0.00    +0.000 OA
ATOM      3  N   UNL     1       2.529   7.695  18.094  0.00  0.00    +0.000 N 
ATOM      4  H   UNL     1       2.593   8.082  17.158  0.00  0.00    +0.000 HD
ENDROOT
BRANCH   3   5
ATOM      5  C   UNL     1       3.242   6.502  18.322  0.00  0.00    +0.000 A 
ATOM      6  C   UNL     1       4.476   6.229  17.734  0.00  0.00    +0.000 A 
ATOM      7  C   UNL     1       5.162   5.039  17.991  0.00  0.00    +0.000 A 
ATOM      8  C   UNL     1       4.566   4.120  18.856  0.00  0.00    +0.000 A 
ATOM      9  N   UNL     1       5.012   2.895  19.285  0.00  0.00    +0.000 N 
ATOM     10  C   UNL     1       4.087   2.319  20.121  0.00  0.00    +0.000 A 
ATOM     11  C   UNL     1       3.005   3.180  20.242  0.00  0.00    +0.000 A 
ATOM     12  C   UNL     1       3.329   4.343  19.459  0.00  0.00    +0.000 A 
ATOM     13  C   UNL     1       2.670   5.566  19.195  0.00  0.00    +0.000 A 
ATOM     14  H   UNL     1       5.896   2.486  19.015  0.00  0.00    +0.000 HD
BRANCH  11  15
ATOM     15  C   UNL     1       1.769   2.978  21.000  0.00  0.00    +0.000 C 
ATOM     16  O   UNL     1       1.741   2.769  22.205  0.00  0.00    +0.000 OA
BRANCH  15  17
ATOM     17  O   UNL     1       0.621   3.043  20.277  0.00  0.00    +0.000 OA
ATOM     18  H   UNL     1       0.756   3.410  19.389  0.00  0.00    +0.000 HD
ENDBRANCH  15  17
ENDBRANCH  11  15
ENDBRANCH   3   5
BRANCH   1  19
ATOM     19  C   UNL     1       1.109   9.619  18.446  0.00  0.00    +0.000 C 
BRANCH  19  23
ATOM     20  N   UNL     1      -0.433  11.812  20.897  0.00  0.00    +0.000 N 
ATOM     21  C   UNL     1      -0.357  10.836  19.932  0.00  0.00    +0.000 C 
ATOM     22  O   UNL     1      -1.282  10.169  19.481  0.00  0.00    +0.000 OA
ATOM     23  N   UNL     1       0.907  10.656  19.438  0.00  0.00    +0.000 N 
ATOM     24  H   UNL     1       0.421  12.303  21.120  0.00  0.00    +0.000 HD
ATOM     25  H   UNL     1       1.722  10.969  19.953  0.00  0.00    +0.000 HD
BRANCH  20  29
ATOM     26  C   UNL     1      -3.958  13.191  22.903  0.00  0.00    +0.000 A 
ATOM     27  C   UNL     1      -3.661  13.566  21.588  0.00  0.00    +0.000 A 
ATOM     28  C   UNL     1      -2.518  13.118  20.920  0.00  0.00    +0.000 A 
ATOM     29  C   UNL     1      -1.618  12.252  21.532  0.00  0.00    +0.000 A 
ATOM     30  C   UNL     1      -1.906  11.821  22.825  0.00  0.00    +0.000 A 
ATOM     31  C   UNL     1      -3.058  12.285  23.494  0.00  0.00    +0.000 A 
BRANCH  26  33
ATOM     32  C   UNL     1      -6.217  12.776  23.804  0.00  0.00    +0.000 C 
ATOM     33  N   UNL     1      -5.089  13.675  23.564  0.00  0.00    +0.000 N 
ATOM     34  C   UNL     1      -5.388  15.099  23.487  0.00  0.00    +0.000 C 
ENDBRANCH  26  33
ENDBRANCH  20  29
ENDBRANCH  19  23
ENDBRANCH   1  19
TORSDOF 7
ENDMDL
MODEL 6
REMARK VINA RESULT:      -7.9      2.817      3.862
REMARK  Name = 
REMARK  9 active torsions:
REMARK  status: ('A' for Active; 'I' for Inactive)
REMARK    1  A    between atoms: C_1  and  N_2
REMARK    2  A    between atoms: N_2  and  C_3
REMARK    3  A    between atoms: N_2  and  C_4
REMARK    4  A    between atoms: C_7  and  N_8
REMARK    5  A    between atoms: N_11  and  C_12
REMARK    6  A    between atoms: C_12  and  C_13
REMARK    7  A    between atoms: N_15  and  C_16
REMARK    8  A    between atoms: C_22  and  C_23
REMARK    9  A    between atoms: C_23  and  O_25
REMARK                            x       y       z     vdW  Elec       q    Type
REMARK                         _______ _______ _______ _____ _____    ______ ____
ROOT
ATOM      1  C   UNL     1       1.869   8.576  18.786  0.00  0.00    +0.000 C 
ATOM      2  O   UNL     1       1.780   8.271  19.974  0.00  0.00    +0.000 OA
ATOM      3  N   UNL     1       2.516   7.860  17.791  0.00  0.00    +0.000 N 
ATOM      4  H   UNL     1       2.623   8.308  16.886  0.00  0.00    +0.000 HD
ENDROOT
BRANCH   3   5
ATOM      5  C   UNL     1       3.144   6.609  17.942  0.00  0.00    +0.000 A 
ATOM      6  C   UNL     1       4.495   6.397  17.670  0.00  0.00    +0.000 A 
ATOM      7  C   UNL     1       5.088   5.143  17.842  0.00  0.00    +0.000 A 
ATOM      8  C   UNL     1       4.278   4.099  18.290  0.00  0.00    +0.000 A 
ATOM      9  N   UNL     1       4.594   2.788  18.550  0.00  0.00    +0.000 N 
ATOM     10  C   UNL     1       3.475   2.102  18.954  0.00  0.00    +0.000 A 
ATOM     11  C   UNL     1       2.398   2.977  18.958  0.00  0.00    +0.000 A 
ATOM     12  C   UNL     1       2.921   4.259  18.564  0.00  0.00    +0.000 A 
ATOM     13  C   UNL     1       2.356   5.544  18.400  0.00  0.00    +0.000 A 
ATOM     14  H   UNL     1       5.521   2.396  18.451  0.00  0.00    +0.000 HD
BRANCH  11  15
ATOM     15  C   UNL     1       1.000   2.689  19.285  0.00  0.00    +0.000 C 
ATOM     16  O   UNL     1       0.198   2.233  18.481  0.00  0.00    +0.000 OA
BRANCH  15  17
ATOM     17  O   UNL     1       0.631   2.954  20.565  0.00  0.00    +0.000 OA
ATOM     18  H   UNL     1       1.217   3.593  21.000  0.00  0.00    +0.000 HD
ENDBRANCH  15  17
ENDBRANCH  11  15
ENDBRANCH   3   5
BRANCH   1  19
ATOM     19  C   UNL     1       1.220   9.846  18.260  0.00  0.00    +0.000 C 
BRANCH  19  23
ATOM     20  N   UNL     1      -0.286  11.885  20.862  0.00  0.00    +0.000 N 
ATOM     21  C   UNL     1      -0.227  10.986  19.824  0.00  0.00    +0.000 C 
ATOM     22  O   UNL     1      -1.166  10.384  19.313  0.00  0.00    +0.000 OA
ATOM     23  N   UNL     1       1.037  10.808  19.329  0.00  0.00    +0.000 N 
ATOM     24  H   UNL     1       0.579  12.331  21.131  0.00  0.00    +0.000 HD
ATOM     25  H   UNL     1       1.854  11.055  19.874  0.00  0.00    +0.000 HD
BRANCH  20  29
ATOM     26  C   UNL     1      -3.918  13.130  22.761  0.00  0.00    +0.000 A 
ATOM     27  C   UNL     1      -3.026  12.248  23.379  0.00  0.00    +0.000 A 
ATOM     28  C   UNL     1      -1.835  11.839  22.773  0.00  0.00    +0.000 A 
ATOM     29  C   UNL     1      -1.465  12.309  21.518  0.00  0.00    +0.000 A 
ATOM     30  C   UNL     1      -2.308  13.226  20.893  0.00  0.00    +0.000 A 
ATOM     31  C   UNL     1      -3.512  13.627  21.509  0.00  0.00    +0.000 A 
BRANCH  26  33
ATOM     32  C   UNL     1      -5.389  14.918  23.613  0.00  0.00    +0.000 C 
ATOM     33  N   UNL     1      -5.120  13.502  23.369  0.00  0.00    +0.000 N 
ATOM     34  C   UNL     1      -5.786  12.546  24.243  0.00  0.00    +0.000 C 
ENDBRANCH  26  33
ENDBRANCH  20  29
ENDBRANCH  19  23
ENDBRANCH   1  19
TORSDOF 7
ENDMDL
MODEL 7
REMARK VINA RESULT:      -7.8      6.895      8.886
REMARK  Name = 
REMARK  9 active torsions:
REMARK  status: ('A' for Active; 'I' for Inactive)
REMARK    1  A    between atoms: C_1  and  N_2
REMARK    2  A    between atoms: N_2  and  C_3
REMARK    3  A    between atoms: N_2  and  C_4
REMARK    4  A    between atoms: C_7  and  N_8
REMARK    5  A    between atoms: N_11  and  C_12
REMARK    6  A    between atoms: C_12  and  C_13
REMARK    7  A    between atoms: N_15  and  C_16
REMARK    8  A    between atoms: C_22  and  C_23
REMARK    9  A    between atoms: C_23  and  O_25
REMARK                            x       y       z     vdW  Elec       q    Type
REMARK                         _______ _______ _______ _____ _____    ______ ____
ROOT
ATOM      1  C   UNL     1       6.729   6.654  18.098  0.00  0.00    +0.000 C 
ATOM      2  O   UNL     1       7.047   5.859  18.981  0.00  0.00    +0.000 OA
ATOM      3  N   UNL     1       5.481   6.790  17.512  0.00  0.00    +0.000 N 
ATOM      4  H   UNL     1       5.407   7.394  16.699  0.00  0.00    +0.000 HD
ENDROOT
BRANCH   3   5
ATOM      5  C   UNL     1       4.317   6.079  17.863  0.00  0.00    +0.000 A 
ATOM      6  C   UNL     1       3.040   6.636  17.814  0.00  0.00    +0.000 A 
ATOM      7  C   UNL     1       1.906   5.897  18.160  0.00  0.00    +0.000 A 
ATOM      8  C   UNL     1       2.091   4.575  18.567  0.00  0.00    +0.000 A 
ATOM      9  N   UNL     1       1.169   3.633  18.949  0.00  0.00    +0.000 N 
ATOM     10  C   UNL     1       1.801   2.462  19.292  0.00  0.00    +0.000 A 
ATOM     11  C   UNL     1       3.169   2.638  19.136  0.00  0.00    +0.000 A 
ATOM     12  C   UNL     1       3.348   3.978  18.643  0.00  0.00    +0.000 A 
ATOM     13  C   UNL     1       4.474   4.745  18.266  0.00  0.00    +0.000 A 
ATOM     14  H   UNL     1       0.171   3.791  18.973  0.00  0.00    +0.000 HD
BRANCH  11  15
ATOM     15  C   UNL     1       4.240   1.679  19.413  0.00  0.00    +0.000 C 
ATOM     16  O   UNL     1       4.971   1.746  20.392  0.00  0.00    +0.000 OA
BRANCH  15  17
ATOM     17  O   UNL     1       4.381   0.678  18.505  0.00  0.00    +0.000 OA
ATOM     18  H   UNL     1       3.634   0.058  18.511  0.00  0.00    +0.000 HD
ENDBRANCH  15  17
ENDBRANCH  11  15
ENDBRANCH   3   5
BRANCH   1  19
ATOM     19  C   UNL     1       7.743   7.641  17.540  0.00  0.00    +0.000 C 
BRANCH  19  23
ATOM     20  N   UNL     1       9.554   9.909  19.725  0.00  0.00    +0.000 N 
ATOM     21  C   UNL     1       8.775   9.516  18.663  0.00  0.00    +0.000 C 
ATOM     22  O   UNL     1       8.285  10.235  17.800  0.00  0.00    +0.000 OA
ATOM     23  N   UNL     1       8.587   8.161  18.598  0.00  0.00    +0.000 N 
ATOM     24  H   UNL     1       9.920   9.179  20.319  0.00  0.00    +0.000 HD
ATOM     25  H   UNL     1       8.728   7.571  19.409  0.00  0.00    +0.000 HD
BRANCH  20  29
ATOM     26  C   UNL     1      10.781  13.949  20.446  0.00  0.00    +0.000 A 
ATOM     27  C   UNL     1       9.693  13.377  21.114  0.00  0.00    +0.000 A 
ATOM     28  C   UNL     1       9.287  12.059  20.893  0.00  0.00    +0.000 A 
ATOM     29  C   UNL     1       9.963  11.234  20.000  0.00  0.00    +0.000 A 
ATOM     30  C   UNL     1      11.080  11.757  19.351  0.00  0.00    +0.000 A 
ATOM     31  C   UNL     1      11.478  13.092  19.575  0.00  0.00    +0.000 A 
BRANCH  26  33
ATOM     32  C   UNL     1      10.133  16.255  21.039  0.00  0.00    +0.000 C 
ATOM     33  N   UNL     1      11.152  15.279  20.657  0.00  0.00    +0.000 N 
ATOM     34  C   UNL     1      12.328  15.794  19.967  0.00  0.00    +0.000 C 
ENDBRANCH  26  33
ENDBRANCH  20  29
ENDBRANCH  19  23
ENDBRANCH   1  19
TORSDOF 7
ENDMDL
MODEL 8
REMARK VINA RESULT:      -7.7      1.769      1.999
REMARK  Name = 
REMARK  9 active torsions:
REMARK  status: ('A' for Active; 'I' for Inactive)
REMARK    1  A    between atoms: C_1  and  N_2
REMARK    2  A    between atoms: N_2  and  C_3
REMARK    3  A    between atoms: N_2  and  C_4
REMARK    4  A    between atoms: C_7  and  N_8
REMARK    5  A    between atoms: N_11  and  C_12
REMARK    6  A    between atoms: C_12  and  C_13
REMARK    7  A    between atoms: N_15  and  C_16
REMARK    8  A    between atoms: C_22  and  C_23
REMARK    9  A    between atoms: C_23  and  O_25
REMARK                            x       y       z     vdW  Elec       q    Type
REMARK                         _______ _______ _______ _____ _____    ______ ____
ROOT
ATOM      1  C   UNL     1       2.105   6.988  20.050  0.00  0.00    +0.000 C 
ATOM      2  O   UNL     1       2.077   7.730  19.070  0.00  0.00    +0.000 OA
ATOM      3  N   UNL     1       2.744   5.763  20.146  0.00  0.00    +0.000 N 
ATOM      4  H   UNL     1       2.561   5.202  20.973  0.00  0.00    +0.000 HD
ENDROOT
BRANCH   3   5
ATOM      5  C   UNL     1       3.538   5.160  19.152  0.00  0.00    +0.000 A 
ATOM      6  C   UNL     1       3.179   3.980  18.501  0.00  0.00    +0.000 A 
ATOM      7  C   UNL     1       3.987   3.416  17.511  0.00  0.00    +0.000 A 
ATOM      8  C   UNL     1       5.179   4.070  17.195  0.00  0.00    +0.000 A 
ATOM      9  N   UNL     1       6.143   3.749  16.272  0.00  0.00    +0.000 N 
ATOM     10  C   UNL     1       7.164   4.666  16.314  0.00  0.00    +0.000 A 
ATOM     11  C   UNL     1       6.870   5.610  17.287  0.00  0.00    +0.000 A 
ATOM     12  C   UNL     1       5.586   5.244  17.825  0.00  0.00    +0.000 A 
ATOM     13  C   UNL     1       4.736   5.802  18.808  0.00  0.00    +0.000 A 
ATOM     14  H   UNL     1       6.097   2.947  15.657  0.00  0.00    +0.000 HD
BRANCH  11  15
ATOM     15  C   UNL     1       7.678   6.755  17.710  0.00  0.00    +0.000 C 
ATOM     16  O   UNL     1       7.839   7.758  17.028  0.00  0.00    +0.000 OA
BRANCH  15  17
ATOM     17  O   UNL     1       8.251   6.647  18.937  0.00  0.00    +0.000 OA
ATOM     18  H   UNL     1       7.604   6.479  19.641  0.00  0.00    +0.000 HD
ENDBRANCH  15  17
ENDBRANCH  11  15
ENDBRANCH   3   5
BRANCH   1  19
ATOM     19  C   UNL     1       1.406   7.383  21.342  0.00  0.00    +0.000 C 
BRANCH  19  23
ATOM     20  N   UNL     1      -0.089  10.663  21.791  0.00  0.00    +0.000 N 
ATOM     21  C   UNL     1      -0.028   9.292  21.713  0.00  0.00    +0.000 C 
ATOM     22  O   UNL     1      -0.954   8.501  21.858  0.00  0.00    +0.000 OA
ATOM     23  N   UNL     1       1.220   8.819  21.406  0.00  0.00    +0.000 N 
ATOM     24  H   UNL     1       0.762  11.171  21.595  0.00  0.00    +0.000 HD
ATOM     25  H   UNL     1       2.046   9.386  21.548  0.00  0.00    +0.000 HD
BRANCH  20  29
ATOM     26  C   UNL     1      -3.684  12.902  22.426  0.00  0.00    +0.000 A 
ATOM     27  C   UNL     1      -3.039  12.231  23.469  0.00  0.00    +0.000 A 
ATOM     28  C   UNL     1      -1.861  11.502  23.277  0.00  0.00    +0.000 A 
ATOM     29  C   UNL     1      -1.257  11.423  22.027  0.00  0.00    +0.000 A 
ATOM     30  C   UNL     1      -1.849  12.119  20.974  0.00  0.00    +0.000 A 
ATOM     31  C   UNL     1      -3.041  12.845  21.176  0.00  0.00    +0.000 A 
BRANCH  26  33
ATOM     32  C   UNL     1      -4.981  14.988  22.187  0.00  0.00    +0.000 C 
ATOM     33  N   UNL     1      -4.877  13.599  22.632  0.00  0.00    +0.000 N 
ATOM     34  C   UNL     1      -5.740  13.197  23.735  0.00  0.00    +0.000 C 
ENDBRANCH  26  33
ENDBRANCH  20  29
ENDBRANCH  19  23
ENDBRANCH   1  19
TORSDOF 7
ENDMDL
MODEL 9
REMARK VINA RESULT:      -7.7      2.797      3.834
REMARK  Name = 
REMARK  9 active torsions:
REMARK  status: ('A' for Active; 'I' for Inactive)
REMARK    1  A    between atoms: C_1  and  N_2
REMARK    2  A    between atoms: N_2  and  C_3
REMARK    3  A    between atoms: N_2  and  C_4
REMARK    4  A    between atoms: C_7  and  N_8
REMARK    5  A    between atoms: N_11  and  C_12
REMARK    6  A    between atoms: C_12  and  C_13
REMARK    7  A    between atoms: N_15  and  C_16
REMARK    8  A    between atoms: C_22  and  C_23
REMARK    9  A    between atoms: C_23  and  O_25
REMARK                            x       y       z     vdW  Elec       q    Type
REMARK                         _______ _______ _______ _____ _____    ______ ____
ROOT
ATOM      1  C   UNL     1       1.908   8.512  18.836  0.00  0.00    +0.000 C 
ATOM      2  O   UNL     1       1.833   8.090  19.989  0.00  0.00    +0.000 OA
ATOM      3  N   UNL     1       2.524   7.890  17.762  0.00  0.00    +0.000 N 
ATOM      4  H   UNL     1       2.625   8.425  16.905  0.00  0.00    +0.000 HD
ENDROOT
BRANCH   3   5
ATOM      5  C   UNL     1       3.133   6.620  17.775  0.00  0.00    +0.000 A 
ATOM      6  C   UNL     1       4.443   6.398  17.353  0.00  0.00    +0.000 A 
ATOM      7  C   UNL     1       5.018   5.125  17.391  0.00  0.00    +0.000 A 
ATOM      8  C   UNL     1       4.232   4.071  17.860  0.00  0.00    +0.000 A 
ATOM      9  N   UNL     1       4.539   2.742  18.010  0.00  0.00    +0.000 N 
ATOM     10  C   UNL     1       3.450   2.055  18.488  0.00  0.00    +0.000 A 
ATOM     11  C   UNL     1       2.402   2.949  18.653  0.00  0.00    +0.000 A 
ATOM     12  C   UNL     1       2.915   4.241  18.281  0.00  0.00    +0.000 A 
ATOM     13  C   UNL     1       2.369   5.545  18.251  0.00  0.00    +0.000 A 
ATOM     14  H   UNL     1       5.441   2.338  17.793  0.00  0.00    +0.000 HD
BRANCH  11  15
ATOM     15  C   UNL     1       1.038   2.669  19.106  0.00  0.00    +0.000 C 
ATOM     16  O   UNL     1       0.552   3.145  20.123  0.00  0.00    +0.000 OA
BRANCH  15  17
ATOM     17  O   UNL     1       0.316   1.836  18.313  0.00  0.00    +0.000 OA
ATOM     18  H   UNL     1      -0.006   2.269  17.506  0.00  0.00    +0.000 HD
ENDBRANCH  15  17
ENDBRANCH  11  15
ENDBRANCH   3   5
BRANCH   1  19
ATOM     19  C   UNL     1       1.272   9.839  18.452  0.00  0.00    +0.000 C 
BRANCH  19  23
ATOM     20  N   UNL     1      -0.425  11.636  21.114  0.00  0.00    +0.000 N 
ATOM     21  C   UNL     1      -0.288  10.904  19.959  0.00  0.00    +0.000 C 
ATOM     22  O   UNL     1      -1.186  10.512  19.222  0.00  0.00    +0.000 OA
ATOM     23  N   UNL     1       1.016  10.644  19.631  0.00  0.00    +0.000 N 
ATOM     24  H   UNL     1       0.426  11.922  21.578  0.00  0.00    +0.000 HD
ATOM     25  H   UNL     1       1.753  10.699  20.323  0.00  0.00    +0.000 HD
BRANCH  20  29
ATOM     26  C   UNL     1      -4.064  13.103  22.832  0.00  0.00    +0.000 A 
ATOM     27  C   UNL     1      -3.699  13.394  21.514  0.00  0.00    +0.000 A 
ATOM     28  C   UNL     1      -2.518  12.916  20.939  0.00  0.00    +0.000 A 
ATOM     29  C   UNL     1      -1.645  12.103  21.654  0.00  0.00    +0.000 A 
ATOM     30  C   UNL     1      -2.000  11.754  22.956  0.00  0.00    +0.000 A 
ATOM     31  C   UNL     1      -3.190  12.248  23.529  0.00  0.00    +0.000 A 
BRANCH  26  33
ATOM     32  C   UNL     1      -5.291  15.031  23.763  0.00  0.00    +0.000 C 
ATOM     33  N   UNL     1      -5.233  13.615  23.399  0.00  0.00    +0.000 N 
ATOM     34  C   UNL     1      -6.108  12.712  24.135  0.00  0.00    +0.000 C 
ENDBRANCH  26  33
ENDBRANCH  20  29
ENDBRANCH  19  23
ENDBRANCH   1  19
TORSDOF 7
ENDMDL
