MODEL 1
REMARK VINA RESULT:      -7.8      0.000      0.000
REMARK  Name = 
REMARK  6 active torsions:
REMARK  status: ('A' for Active; 'I' for Inactive)
REMARK    1  A    between atoms: C_1  and  N_2
REMARK    2  A    between atoms: C_3  and  S_4
REMARK    3  A    between atoms: S_4  and  C_5
REMARK    4  A    between atoms: C_5  and  C_6
REMARK    5  A    between atoms: C_8  and  O_9
REMARK    6  A    between atoms: C_19  and  C_20
REMARK                            x       y       z     vdW  Elec       q    Type
REMARK                         _______ _______ _______ _____ _____    ______ ____
ROOT
ATOM      1  C   UNL     1       1.554   7.345  20.685  0.00  0.00    +0.000 C 
ENDROOT
BRANCH   1   2
ATOM      2  C   UNL     1       2.212   6.437  19.659  0.00  0.00    +0.000 A 
ATOM      3  C   UNL     1       3.049   7.015  18.691  0.00  0.00    +0.000 A 
ATOM      4  C   UNL     1       3.631   6.195  17.743  0.00  0.00    +0.000 A 
ATOM      5  N   UNL     1       3.460   4.869  17.688  0.00  0.00    +0.000 NA
ATOM      6  C   UNL     1       2.678   4.298  18.610  0.00  0.00    +0.000 A 
ATOM      7  C   UNL     1       2.521   2.920  18.553  0.00  0.00    +0.000 A 
ATOM      8  C   UNL     1       1.729   2.228  19.469  0.00  0.00    +0.000 A 
ATOM      9  C   UNL     1       1.063   2.930  20.464  0.00  0.00    +0.000 A 
ATOM     10  C   UNL     1       1.202   4.316  20.542  0.00  0.00    +0.000 A 
ATOM     11  C   UNL     1       2.015   5.029  19.628  0.00  0.00    +0.000 A 
BRANCH   4  12
ATOM     12  O   UNL     1       4.440   6.700  16.768  0.00  0.00    +0.000 OA
ATOM     13  H   UNL     1       4.370   7.663  16.783  0.00  0.00    +0.000 HD
ENDBRANCH   4  12
ENDBRANCH   1   2
BRANCH   1  14
ATOM     14  S   UNL     1       1.228   9.018  20.034  0.00  0.00    +0.000 S 
BRANCH  14  17
ATOM     15  C   UNL     1      -0.979  11.443  20.220  0.00  0.00    +0.000 C 
ATOM     16  N   UNL     1      -0.434  10.768  21.370  0.00  0.00    +0.000 N 
ATOM     17  C   UNL     1       0.507   9.772  21.420  0.00  0.00    +0.000 A 
ATOM     18  N   UNL     1       0.768   9.475  22.672  0.00  0.00    +0.000 NA
ATOM     19  N   UNL     1      -0.027  10.269  23.467  0.00  0.00    +0.000 NA
ATOM     20  C   UNL     1      -0.766  11.030  22.682  0.00  0.00    +0.000 A 
BRANCH  20  21
ATOM     21  C   UNL     1      -1.760  11.954  23.149  0.00  0.00    +0.000 A 
ATOM     22  C   UNL     1      -1.641  13.323  23.331  0.00  0.00    +0.000 A 
ATOM     23  C   UNL     1      -2.872  13.794  23.845  0.00  0.00    +0.000 A 
ATOM     24  C   UNL     1      -3.684  12.693  23.943  0.00  0.00    +0.000 A 
ATOM     25  O   UNL     1      -3.029  11.583  23.522  0.00  0.00    +0.000 OA
ENDBRANCH  20  21
ENDBRANCH  14  17
ENDBRANCH   1  14
TORSDOF 5
ENDMDL
MODEL 2
REMARK VINA RESULT:      -7.8      3.525      5.186
REMARK  Name = 
REMARK  6 active torsions:
REMARK  status: ('A' for Active; 'I' for Inactive)
REMARK    1  A    between atoms: C_1  and  N_2
REMARK    2  A    between atoms: C_3  and  S_4
REMARK    3  A    between atoms: S_4  and  C_5
REMARK    4  A    between atoms: C_5  and  C_6
REMARK    5  A    between atoms: C_8  and  O_9
REMARK    6  A    between atoms: C_19  and  C_20
REMARK                            x       y       z     vdW  Elec       q    Type
REMARK                         _______ _______ _______ _____ _____    ______ ____
ROOT
ATOM      1  C   UNL     1       3.318   4.802  18.467  0.00  0.00    +0.000 C 
ENDROOT
BRANCH   1   2
ATOM      2  C   UNL     1       4.819   4.928  18.267  0.00  0.00    +0.000 A 
ATOM      3  C   UNL     1       5.626   5.186  19.387  0.00  0.00    +0.000 A 
ATOM      4  C   UNL     1       6.989   5.324  19.204  0.00  0.00    +0.000 A 
ATOM      5  N   UNL     1       7.605   5.216  18.021  0.00  0.00    +0.000 NA
ATOM      6  C   UNL     1       6.855   4.955  16.944  0.00  0.00    +0.000 A 
ATOM      7  C   UNL     1       7.506   4.828  15.725  0.00  0.00    +0.000 A 
ATOM      8  C   UNL     1       6.816   4.555  14.544  0.00  0.00    +0.000 A 
ATOM      9  C   UNL     1       5.437   4.416  14.576  0.00  0.00    +0.000 A 
ATOM     10  C   UNL     1       4.757   4.540  15.788  0.00  0.00    +0.000 A 
ATOM     11  C   UNL     1       5.446   4.803  16.997  0.00  0.00    +0.000 A 
BRANCH   4  12
ATOM     12  O   UNL     1       7.822   5.592  20.250  0.00  0.00    +0.000 OA
ATOM     13  H   UNL     1       7.292   5.945  20.978  0.00  0.00    +0.000 HD
ENDBRANCH   4  12
ENDBRANCH   1   2
BRANCH   1  14
ATOM     14  S   UNL     1       2.703   5.841  19.835  0.00  0.00    +0.000 S 
BRANCH  14  17
ATOM     15  C   UNL     1       1.146   8.547  20.857  0.00  0.00    +0.000 C 
ATOM     16  N   UNL     1       1.708   8.397  19.539  0.00  0.00    +0.000 N 
ATOM     17  C   UNL     1       2.347   7.315  18.992  0.00  0.00    +0.000 A 
ATOM     18  N   UNL     1       2.654   7.570  17.741  0.00  0.00    +0.000 NA
ATOM     19  N   UNL     1       2.233   8.849  17.458  0.00  0.00    +0.000 NA
ATOM     20  C   UNL     1       1.685   9.354  18.547  0.00  0.00    +0.000 A 
BRANCH  20  21
ATOM     21  C   UNL     1       1.176  10.691  18.654  0.00  0.00    +0.000 A 
ATOM     22  C   UNL     1       1.877  11.885  18.587  0.00  0.00    +0.000 A 
ATOM     23  C   UNL     1       0.951  12.936  18.786  0.00  0.00    +0.000 A 
ATOM     24  C   UNL     1      -0.270  12.334  18.955  0.00  0.00    +0.000 A 
ATOM     25  O   UNL     1      -0.148  10.986  18.871  0.00  0.00    +0.000 OA
ENDBRANCH  20  21
ENDBRANCH  14  17
ENDBRANCH   1  14
TORSDOF 5
ENDMDL
MODEL 3
REMARK VINA RESULT:      -7.8      5.104      8.488
REMARK  Name = 
REMARK  6 active torsions:
REMARK  status: ('A' for Active; 'I' for Inactive)
REMARK    1  A    between atoms: C_1  and  N_2
REMARK    2  A    between atoms: C_3  and  S_4
REMARK    3  A    between atoms: S_4  and  C_5
REMARK    4  A    between atoms: C_5  and  C_6
REMARK    5  A    between atoms: C_8  and  O_9
REMARK    6  A    between atoms: C_19  and  C_20
REMARK                            x       y       z     vdW  Elec       q    Type
REMARK                         _______ _______ _______ _____ _____    ______ ____
ROOT
ATOM      1  C   UNL     1       2.385   2.843  17.472  0.00  0.00    +0.000 C 
ENDROOT
BRANCH   1   2
ATOM      2  C   UNL     1       2.148   3.485  18.828  0.00  0.00    +0.000 A 
ATOM      3  C   UNL     1       1.932   2.651  19.937  0.00  0.00    +0.000 A 
ATOM      4  C   UNL     1       1.693   3.233  21.168  0.00  0.00    +0.000 A 
ATOM      5  N   UNL     1       1.663   4.553  21.383  0.00  0.00    +0.000 NA
ATOM      6  C   UNL     1       1.881   5.364  20.342  0.00  0.00    +0.000 A 
ATOM      7  C   UNL     1       1.865   6.731  20.581  0.00  0.00    +0.000 A 
ATOM      8  C   UNL     1       2.083   7.661  19.564  0.00  0.00    +0.000 A 
ATOM      9  C   UNL     1       2.312   7.218  18.270  0.00  0.00    +0.000 A 
ATOM     10  C   UNL     1       2.332   5.848  18.003  0.00  0.00    +0.000 A 
ATOM     11  C   UNL     1       2.127   4.893  19.027  0.00  0.00    +0.000 A 
BRANCH   4  12
ATOM     12  O   UNL     1       1.460   2.475  22.278  0.00  0.00    +0.000 OA
ATOM     13  H   UNL     1       0.731   1.870  22.086  0.00  0.00    +0.000 HD
ENDBRANCH   4  12
ENDBRANCH   1   2
BRANCH   1  14
ATOM     14  S   UNL     1       4.091   2.224  17.278  0.00  0.00    +0.000 S 
BRANCH  14  17
ATOM     15  C   UNL     1       5.646   4.404  19.180  0.00  0.00    +0.000 C 
ATOM     16  N   UNL     1       5.565   4.509  17.746  0.00  0.00    +0.000 N 
ATOM     17  C   UNL     1       4.923   3.686  16.857  0.00  0.00    +0.000 A 
ATOM     18  N   UNL     1       5.044   4.171  15.642  0.00  0.00    +0.000 NA
ATOM     19  N   UNL     1       5.797   5.321  15.722  0.00  0.00    +0.000 NA
ATOM     20  C   UNL     1       6.128   5.510  16.985  0.00  0.00    +0.000 A 
BRANCH  20  21
ATOM     21  C   UNL     1       6.959   6.582  17.454  0.00  0.00    +0.000 A 
ATOM     22  C   UNL     1       7.887   6.562  18.483  0.00  0.00    +0.000 A 
ATOM     23  C   UNL     1       8.426   7.866  18.597  0.00  0.00    +0.000 A 
ATOM     24  C   UNL     1       7.808   8.614  17.628  0.00  0.00    +0.000 A 
ATOM     25  O   UNL     1       6.930   7.853  16.930  0.00  0.00    +0.000 OA
ENDBRANCH  20  21
ENDBRANCH  14  17
ENDBRANCH   1  14
TORSDOF 5
ENDMDL
MODEL 4
REMARK VINA RESULT:      -7.5      5.870     10.276
REMARK  Name = 
REMARK  6 active torsions:
REMARK  status: ('A' for Active; 'I' for Inactive)
REMARK    1  A    between atoms: C_1  and  N_2
REMARK    2  A    between atoms: C_3  and  S_4
REMARK    3  A    between atoms: S_4  and  C_5
REMARK    4  A    between atoms: C_5  and  C_6
REMARK    5  A    between atoms: C_8  and  O_9
REMARK    6  A    between atoms: C_19  and  C_20
REMARK                            x       y       z     vdW  Elec       q    Type
REMARK                         _______ _______ _______ _____ _____    ______ ____
ROOT
ATOM      1  C   UNL     1       5.679   5.948  17.936  0.00  0.00    +0.000 C 
ENDROOT
BRANCH   1   2
ATOM      2  C   UNL     1       4.838   5.034  18.811  0.00  0.00    +0.000 A 
ATOM      3  C   UNL     1       5.272   3.714  19.014  0.00  0.00    +0.000 A 
ATOM      4  C   UNL     1       4.497   2.874  19.791  0.00  0.00    +0.000 A 
ATOM      5  N   UNL     1       3.353   3.236  20.382  0.00  0.00    +0.000 NA
ATOM      6  C   UNL     1       2.930   4.495  20.212  0.00  0.00    +0.000 A 
ATOM      7  C   UNL     1       1.751   4.865  20.843  0.00  0.00    +0.000 A 
ATOM      8  C   UNL     1       1.226   6.153  20.732  0.00  0.00    +0.000 A 
ATOM      9  C   UNL     1       1.889   7.096  19.960  0.00  0.00    +0.000 A 
ATOM     10  C   UNL     1       3.076   6.749  19.313  0.00  0.00    +0.000 A 
ATOM     11  C   UNL     1       3.627   5.450  19.430  0.00  0.00    +0.000 A 
BRANCH   4  12
ATOM     12  O   UNL     1       4.857   1.577  20.011  0.00  0.00    +0.000 OA
ATOM     13  H   UNL     1       5.431   1.293  19.286  0.00  0.00    +0.000 HD
ENDBRANCH   4  12
ENDBRANCH   1   2
BRANCH   1  14
ATOM     14  S   UNL     1       7.317   5.241  17.554  0.00  0.00    +0.000 S 
BRANCH  14  17
ATOM     15  C   UNL     1       5.581   3.039  15.842  0.00  0.00    +0.000 C 
ATOM     16  N   UNL     1       6.395   4.062  15.236  0.00  0.00    +0.000 N 
ATOM     17  C   UNL     1       7.182   5.008  15.840  0.00  0.00    +0.000 A 
ATOM     18  N   UNL     1       7.806   5.712  14.924  0.00  0.00    +0.000 NA
ATOM     19  N   UNL     1       7.411   5.243  13.692  0.00  0.00    +0.000 NA
ATOM     20  C   UNL     1       6.545   4.265  13.881  0.00  0.00    +0.000 A 
BRANCH  20  21
ATOM     21  C   UNL     1       5.872   3.563  12.827  0.00  0.00    +0.000 A 
ATOM     22  C   UNL     1       6.355   2.529  12.039  0.00  0.00    +0.000 A 
ATOM     23  C   UNL     1       5.342   2.189  11.112  0.00  0.00    +0.000 A 
ATOM     24  C   UNL     1       4.287   3.024  11.385  0.00  0.00    +0.000 A 
ATOM     25  O   UNL     1       4.592   3.848  12.417  0.00  0.00    +0.000 OA
ENDBRANCH  20  21
ENDBRANCH  14  17
ENDBRANCH   1  14
TORSDOF 5
ENDMDL
MODEL 5
REMARK VINA RESULT:      -7.5      2.059      2.626
REMARK  Name = 
REMARK  6 active torsions:
REMARK  status: ('A' for Active; 'I' for Inactive)
REMARK    1  A    between atoms: C_1  and  N_2
REMARK    2  A    between atoms: C_3  and  S_4
REMARK    3  A    between atoms: S_4  and  C_5
REMARK    4  A    between atoms: C_5  and  C_6
REMARK    5  A    between atoms: C_8  and  O_9
REMARK    6  A    between atoms: C_19  and  C_20
REMARK                            x       y       z     vdW  Elec       q    Type
REMARK                         _______ _______ _______ _____ _____    ______ ____
ROOT
ATOM      1  C   UNL     1       2.233   6.181  17.902  0.00  0.00    +0.000 C 
ENDROOT
BRANCH   1   2
ATOM      2  C   UNL     1       3.198   5.175  18.506  0.00  0.00    +0.000 A 
ATOM      3  C   UNL     1       4.529   5.169  18.057  0.00  0.00    +0.000 A 
ATOM      4  C   UNL     1       5.404   4.240  18.587  0.00  0.00    +0.000 A 
ATOM      5  N   UNL     1       5.072   3.340  19.520  0.00  0.00    +0.000 NA
ATOM      6  C   UNL     1       3.812   3.340  19.972  0.00  0.00    +0.000 A 
ATOM      7  C   UNL     1       3.483   2.413  20.951  0.00  0.00    +0.000 A 
ATOM      8  C   UNL     1       2.199   2.332  21.490  0.00  0.00    +0.000 A 
ATOM      9  C   UNL     1       1.211   3.189  21.031  0.00  0.00    +0.000 A 
ATOM     10  C   UNL     1       1.514   4.130  20.045  0.00  0.00    +0.000 A 
ATOM     11  C   UNL     1       2.817   4.233  19.500  0.00  0.00    +0.000 A 
BRANCH   4  12
ATOM     12  O   UNL     1       6.703   4.175  18.179  0.00  0.00    +0.000 OA
ATOM     13  H   UNL     1       7.250   4.637  18.829  0.00  0.00    +0.000 HD
ENDBRANCH   4  12
ENDBRANCH   1   2
BRANCH   1  14
ATOM     14  S   UNL     1       2.800   7.904  18.101  0.00  0.00    +0.000 S 
BRANCH  14  17
ATOM     15  C   UNL     1       1.210  10.726  18.645  0.00  0.00    +0.000 C 
ATOM     16  N   UNL     1       1.201   9.614  19.560  0.00  0.00    +0.000 N 
ATOM     17  C   UNL     1       1.846   8.408  19.458  0.00  0.00    +0.000 A 
ATOM     18  N   UNL     1       1.622   7.696  20.539  0.00  0.00    +0.000 NA
ATOM     19  N   UNL     1       0.797   8.430  21.362  0.00  0.00    +0.000 NA
ATOM     20  C   UNL     1       0.527   9.574  20.762  0.00  0.00    +0.000 A 
BRANCH  20  21
ATOM     21  C   UNL     1      -0.347  10.581  21.291  0.00  0.00    +0.000 A 
ATOM     22  C   UNL     1      -0.600  10.885  22.620  0.00  0.00    +0.000 A 
ATOM     23  C   UNL     1      -1.560  11.925  22.644  0.00  0.00    +0.000 A 
ATOM     24  C   UNL     1      -1.838  12.210  21.331  0.00  0.00    +0.000 A 
ATOM     25  O   UNL     1      -1.111  11.414  20.510  0.00  0.00    +0.000 OA
ENDBRANCH  20  21
ENDBRANCH  14  17
ENDBRANCH   1  14
TORSDOF 5
ENDMDL
MODEL 6
REMARK VINA RESULT:      -7.4      4.907      8.262
REMARK  Name = 
REMARK  6 active torsions:
REMARK  status: ('A' for Active; 'I' for Inactive)
REMARK    1  A    between atoms: C_1  and  N_2
REMARK    2  A    between atoms: C_3  and  S_4
REMARK    3  A    between atoms: S_4  and  C_5
REMARK    4  A    between atoms: C_5  and  C_6
REMARK    5  A    between atoms: C_8  and  O_9
REMARK    6  A    between atoms: C_19  and  C_20
REMARK                            x       y       z     vdW  Elec       q    Type
REMARK                         _______ _______ _______ _____ _____    ______ ____
ROOT
ATOM      1  C   UNL     1       2.489   3.507  17.197  0.00  0.00    +0.000 C 
ENDROOT
BRANCH   1   2
ATOM      2  C   UNL     1       2.212   4.003  18.606  0.00  0.00    +0.000 A 
ATOM      3  C   UNL     1       1.995   3.057  19.620  0.00  0.00    +0.000 A 
ATOM      4  C   UNL     1       1.720   3.505  20.898  0.00  0.00    +0.000 A 
ATOM      5  N   UNL     1       1.656   4.796  21.245  0.00  0.00    +0.000 NA
ATOM      6  C   UNL     1       1.875   5.713  20.296  0.00  0.00    +0.000 A 
ATOM      7  C   UNL     1       1.823   7.048  20.671  0.00  0.00    +0.000 A 
ATOM      8  C   UNL     1       2.038   8.081  19.758  0.00  0.00    +0.000 A 
ATOM      9  C   UNL     1       2.301   7.775  18.431  0.00  0.00    +0.000 A 
ATOM     10  C   UNL     1       2.357   6.440  18.027  0.00  0.00    +0.000 A 
ATOM     11  C   UNL     1       2.155   5.382  18.946  0.00  0.00    +0.000 A 
BRANCH   4  12
ATOM     12  O   UNL     1       1.484   2.635  21.921  0.00  0.00    +0.000 OA
ATOM     13  H   UNL     1       2.194   2.728  22.569  0.00  0.00    +0.000 HD
ENDBRANCH   4  12
ENDBRANCH   1   2
BRANCH   1  14
ATOM     14  S   UNL     1       4.078   2.619  17.066  0.00  0.00    +0.000 S 
BRANCH  14  17
ATOM     15  C   UNL     1       5.584   5.284  15.873  0.00  0.00    +0.000 C 
ATOM     16  N   UNL     1       5.697   4.846  17.241  0.00  0.00    +0.000 N 
ATOM     17  C   UNL     1       5.146   3.744  17.842  0.00  0.00    +0.000 A 
ATOM     18  N   UNL     1       5.545   3.679  19.092  0.00  0.00    +0.000 NA
ATOM     19  N   UNL     1       6.354   4.766  19.332  0.00  0.00    +0.000 NA
ATOM     20  C   UNL     1       6.426   5.480  18.225  0.00  0.00    +0.000 A 
BRANCH  20  21
ATOM     21  C   UNL     1       7.139   6.719  18.103  0.00  0.00    +0.000 A 
ATOM     22  C   UNL     1       8.252   7.142  18.813  0.00  0.00    +0.000 A 
ATOM     23  C   UNL     1       8.570   8.447  18.369  0.00  0.00    +0.000 A 
ATOM     24  C   UNL     1       7.643   8.753  17.405  0.00  0.00    +0.000 A 
ATOM     25  O   UNL     1       6.783   7.720  17.232  0.00  0.00    +0.000 OA
ENDBRANCH  20  21
ENDBRANCH  14  17
ENDBRANCH   1  14
TORSDOF 5
ENDMDL
MODEL 7
REMARK VINA RESULT:      -7.3      2.153      2.928
REMARK  Name = 
REMARK  6 active torsions:
REMARK  status: ('A' for Active; 'I' for Inactive)
REMARK    1  A    between atoms: C_1  and  N_2
REMARK    2  A    between atoms: C_3  and  S_4
REMARK    3  A    between atoms: S_4  and  C_5
REMARK    4  A    between atoms: C_5  and  C_6
REMARK    5  A    between atoms: C_8  and  O_9
REMARK    6  A    between atoms: C_19  and  C_20
REMARK                            x       y       z     vdW  Elec       q    Type
REMARK                         _______ _______ _______ _____ _____    ______ ____
ROOT
ATOM      1  C   UNL     1       2.060   6.337  18.006  0.00  0.00    +0.000 C 
ENDROOT
BRANCH   1   2
ATOM      2  C   UNL     1       3.027   5.278  18.508  0.00  0.00    +0.000 A 
ATOM      3  C   UNL     1       4.311   5.220  17.942  0.00  0.00    +0.000 A 
ATOM      4  C   UNL     1       5.185   4.243  18.381  0.00  0.00    +0.000 A 
ATOM      5  N   UNL     1       4.894   3.343  19.327  0.00  0.00    +0.000 NA
ATOM      6  C   UNL     1       3.681   3.392  19.889  0.00  0.00    +0.000 A 
ATOM      7  C   UNL     1       3.397   2.464  20.882  0.00  0.00    +0.000 A 
ATOM      8  C   UNL     1       2.163   2.432  21.531  0.00  0.00    +0.000 A 
ATOM      9  C   UNL     1       1.179   3.342  21.173  0.00  0.00    +0.000 A 
ATOM     10  C   UNL     1       1.438   4.284  20.176  0.00  0.00    +0.000 A 
ATOM     11  C   UNL     1       2.691   4.337  19.520  0.00  0.00    +0.000 A 
BRANCH   4  12
ATOM     12  O   UNL     1       6.439   4.126  17.858  0.00  0.00    +0.000 OA
ATOM     13  H   UNL     1       6.835   3.313  18.198  0.00  0.00    +0.000 HD
ENDBRANCH   4  12
ENDBRANCH   1   2
BRANCH   1  14
ATOM     14  S   UNL     1       2.841   7.977  17.837  0.00  0.00    +0.000 S 
BRANCH  14  17
ATOM     15  C   UNL     1       1.814   8.236  20.946  0.00  0.00    +0.000 C 
ATOM     16  N   UNL     1       1.296   9.033  19.863  0.00  0.00    +0.000 N 
ATOM     17  C   UNL     1       1.620   8.994  18.532  0.00  0.00    +0.000 A 
ATOM     18  N   UNL     1       0.872   9.848  17.872  0.00  0.00    +0.000 NA
ATOM     19  N   UNL     1       0.055  10.481  18.780  0.00  0.00    +0.000 NA
ATOM     20  C   UNL     1       0.326  10.006  19.981  0.00  0.00    +0.000 A 
BRANCH  20  21
ATOM     21  C   UNL     1      -0.290  10.464  21.192  0.00  0.00    +0.000 A 
ATOM     22  C   UNL     1      -0.648  11.758  21.538  0.00  0.00    +0.000 A 
ATOM     23  C   UNL     1      -1.185  11.718  22.846  0.00  0.00    +0.000 A 
ATOM     24  C   UNL     1      -1.138  10.402  23.231  0.00  0.00    +0.000 A 
ATOM     25  O   UNL     1      -0.609   9.639  22.244  0.00  0.00    +0.000 OA
ENDBRANCH  20  21
ENDBRANCH  14  17
ENDBRANCH   1  14
TORSDOF 5
ENDMDL
MODEL 8
REMARK VINA RESULT:      -7.3      2.726      8.820
REMARK  Name = 
REMARK  6 active torsions:
REMARK  status: ('A' for Active; 'I' for Inactive)
REMARK    1  A    between atoms: C_1  and  N_2
REMARK    2  A    between atoms: C_3  and  S_4
REMARK    3  A    between atoms: S_4  and  C_5
REMARK    4  A    between atoms: C_5  and  C_6
REMARK    5  A    between atoms: C_8  and  O_9
REMARK    6  A    between atoms: C_19  and  C_20
REMARK                            x       y       z     vdW  Elec       q    Type
REMARK                         _______ _______ _______ _____ _____    ______ ____
ROOT
ATOM      1  C   UNL     1       0.705   9.641  18.423  0.00  0.00    +0.000 C 
ENDROOT
BRANCH   1   2
ATOM      2  C   UNL     1      -0.489  10.505  18.791  0.00  0.00    +0.000 A 
ATOM      3  C   UNL     1      -0.429  11.264  19.971  0.00  0.00    +0.000 A 
ATOM      4  C   UNL     1      -1.522  12.034  20.321  0.00  0.00    +0.000 A 
ATOM      5  N   UNL     1      -2.646  12.118  19.599  0.00  0.00    +0.000 NA
ATOM      6  C   UNL     1      -2.716  11.414  18.463  0.00  0.00    +0.000 A 
ATOM      7  C   UNL     1      -3.879  11.522  17.713  0.00  0.00    +0.000 A 
ATOM      8  C   UNL     1      -4.052  10.831  16.514  0.00  0.00    +0.000 A 
ATOM      9  C   UNL     1      -3.042   9.999  16.053  0.00  0.00    +0.000 A 
ATOM     10  C   UNL     1      -1.862   9.871  16.789  0.00  0.00    +0.000 A 
ATOM     11  C   UNL     1      -1.668  10.578  18.000  0.00  0.00    +0.000 A 
BRANCH   4  12
ATOM     12  O   UNL     1      -1.530  12.779  21.463  0.00  0.00    +0.000 OA
ATOM     13  H   UNL     1      -0.684  12.655  21.913  0.00  0.00    +0.000 HD
ENDBRANCH   4  12
ENDBRANCH   1   2
BRANCH   1  14
ATOM     14  S   UNL     1       1.422   8.783  19.865  0.00  0.00    +0.000 S 
BRANCH  14  17
ATOM     15  C   UNL     1       1.679   5.613  20.687  0.00  0.00    +0.000 C 
ATOM     16  N   UNL     1       2.286   6.187  19.513  0.00  0.00    +0.000 N 
ATOM     17  C   UNL     1       2.274   7.489  19.085  0.00  0.00    +0.000 A 
ATOM     18  N   UNL     1       2.999   7.601  17.996  0.00  0.00    +0.000 NA
ATOM     19  N   UNL     1       3.480   6.351  17.680  0.00  0.00    +0.000 NA
ATOM     20  C   UNL     1       3.031   5.497  18.581  0.00  0.00    +0.000 A 
BRANCH  20  21
ATOM     21  C   UNL     1       3.281   4.084  18.554  0.00  0.00    +0.000 A 
ATOM     22  C   UNL     1       2.852   3.154  17.620  0.00  0.00    +0.000 A 
ATOM     23  C   UNL     1       3.314   1.884  18.039  0.00  0.00    +0.000 A 
ATOM     24  C   UNL     1       4.010   2.102  19.201  0.00  0.00    +0.000 A 
ATOM     25  O   UNL     1       4.003   3.420  19.517  0.00  0.00    +0.000 OA
ENDBRANCH  20  21
ENDBRANCH  14  17
ENDBRANCH   1  14
TORSDOF 5
ENDMDL
MODEL 9
REMARK VINA RESULT:      -7.2      2.947      4.178
REMARK  Name = 
REMARK  6 active torsions:
REMARK  status: ('A' for Active; 'I' for Inactive)
REMARK    1  A    between atoms: C_1  and  N_2
REMARK    2  A    between atoms: C_3  and  S_4
REMARK    3  A    between atoms: S_4  and  C_5
REMARK    4  A    between atoms: C_5  and  C_6
REMARK    5  A    between atoms: C_8  and  O_9
REMARK    6  A    between atoms: C_19  and  C_20
REMARK                            x       y       z     vdW  Elec       q    Type
REMARK                         _______ _______ _______ _____ _____    ______ ____
ROOT
ATOM      1  C   UNL     1       3.275   5.827  18.382  0.00  0.00    +0.000 C 
ENDROOT
BRANCH   1   2
ATOM      2  C   UNL     1       4.754   5.497  18.268  0.00  0.00    +0.000 A 
ATOM      3  C   UNL     1       5.556   5.607  19.415  0.00  0.00    +0.000 A 
ATOM      4  C   UNL     1       6.906   5.329  19.308  0.00  0.00    +0.000 A 
ATOM      5  N   UNL     1       7.509   4.947  18.177  0.00  0.00    +0.000 NA
ATOM      6  C   UNL     1       6.759   4.822  17.076  0.00  0.00    +0.000 A 
ATOM      7  C   UNL     1       7.392   4.408  15.913  0.00  0.00    +0.000 A 
ATOM      8  C   UNL     1       6.699   4.245  14.713  0.00  0.00    +0.000 A 
ATOM      9  C   UNL     1       5.339   4.513  14.668  0.00  0.00    +0.000 A 
ATOM     10  C   UNL     1       4.678   4.932  15.824  0.00  0.00    +0.000 A 
ATOM     11  C   UNL     1       5.366   5.088  17.051  0.00  0.00    +0.000 A 
BRANCH   4  12
ATOM     12  O   UNL     1       7.740   5.434  20.383  0.00  0.00    +0.000 OA
ATOM     13  H   UNL     1       8.401   6.112  20.190  0.00  0.00    +0.000 HD
ENDBRANCH   4  12
ENDBRANCH   1   2
BRANCH   1  14
ATOM     14  S   UNL     1       2.901   7.546  17.897  0.00  0.00    +0.000 S 
BRANCH  14  17
ATOM     15  C   UNL     1       1.388  10.406  18.460  0.00  0.00    +0.000 C 
ATOM     16  N   UNL     1       1.408   9.314  19.399  0.00  0.00    +0.000 N 
ATOM     17  C   UNL     1       2.026   8.095  19.290  0.00  0.00    +0.000 A 
ATOM     18  N   UNL     1       1.846   7.410  20.396  0.00  0.00    +0.000 NA
ATOM     19  N   UNL     1       1.077   8.175  21.244  0.00  0.00    +0.000 NA
ATOM     20  C   UNL     1       0.795   9.311  20.633  0.00  0.00    +0.000 A 
BRANCH  20  21
ATOM     21  C   UNL     1      -0.033  10.344  21.185  0.00  0.00    +0.000 A 
ATOM     22  C   UNL     1      -0.978  11.124  20.537  0.00  0.00    +0.000 A 
ATOM     23  C   UNL     1      -1.508  12.030  21.486  0.00  0.00    +0.000 A 
ATOM     24  C   UNL     1      -0.869  11.752  22.668  0.00  0.00    +0.000 A 
ATOM     25  O   UNL     1       0.014  10.737  22.500  0.00  0.00    +0.000 OA
ENDBRANCH  20  21
ENDBRANCH  14  17
ENDBRANCH   1  14
TORSDOF 5
ENDMDL
