MODEL 1
REMARK VINA RESULT:      -7.0      0.000      0.000
REMARK  Name = 
REMARK  6 active torsions:
REMARK  status: ('A' for Active; 'I' for Inactive)
REMARK    1  A    between atoms: C_1  and  O_2
REMARK    2  A    between atoms: O_2  and  C_3
REMARK    3  A    between atoms: C_6  and  N_7
REMARK    4  A    between atoms: C_8  and  C_10
REMARK    5  A    between atoms: C_15  and  O_16
REMARK    6  A    between atoms: O_16  and  C_17
REMARK                            x       y       z     vdW  Elec       q    Type
REMARK                         _______ _______ _______ _____ _____    ______ ____
ROOT
ATOM      1  C   UNL     1       7.124   5.085  15.069  0.00  0.00    +0.000 A 
ATOM      2  C   UNL     1       5.902   4.569  14.605  0.00  0.00    +0.000 A 
ATOM      3  C   UNL     1       4.993   3.990  15.491  0.00  0.00    +0.000 A 
ATOM      4  C   UNL     1       5.277   3.908  16.857  0.00  0.00    +0.000 A 
ATOM      5  C   UNL     1       6.476   4.480  17.335  0.00  0.00    +0.000 A 
ATOM      6  C   UNL     1       7.381   5.054  16.439  0.00  0.00    +0.000 A 
ENDROOT
BRANCH   4   7
ATOM      7  N   UNL     1       4.415   3.170  17.702  0.00  0.00    +0.000 N 
ATOM      8  C   UNL     1       3.259   3.723  18.255  0.00  0.00    +0.000 C 
ATOM      9  O   UNL     1       2.823   4.832  18.002  0.00  0.00    +0.000 OA
ATOM     10  H   UNL     1       4.815   2.413  18.244  0.00  0.00    +0.000 HD
BRANCH   8  11
ATOM     11  C   UNL     1       2.547   2.758  19.238  0.00  0.00    +0.000 C 
ATOM     12  C   UNL     1       1.175   3.274  19.673  0.00  0.00    +0.000 C 
ATOM     13  C   UNL     1       1.109   2.902  21.134  0.00  0.00    +0.000 C 
ATOM     14  C   UNL     1       2.554   3.017  21.552  0.00  0.00    +0.000 C 
ATOM     15  O   UNL     1       3.328   2.563  20.434  0.00  0.00    +0.000 OA
ENDBRANCH   8  11
ENDBRANCH   4   7
BRANCH   1  17
ATOM     16  C   UNL     1       7.765   5.141  12.786  0.00  0.00    +0.000 C 
ATOM     17  O   UNL     1       7.947   5.622  14.116  0.00  0.00    +0.000 OA
ENDBRANCH   1  17
BRANCH   5  18
ATOM     18  O   UNL     1       6.621   4.567  18.702  0.00  0.00    +0.000 OA
ATOM     19  C   UNL     1       7.463   5.616  19.173  0.00  0.00    +0.000 C 
ENDBRANCH   5  18
TORSDOF 4
ENDMDL
MODEL 2
REMARK VINA RESULT:      -6.9      1.057      1.057
REMARK  Name = 
REMARK  6 active torsions:
REMARK  status: ('A' for Active; 'I' for Inactive)
REMARK    1  A    between atoms: C_1  and  O_2
REMARK    2  A    between atoms: O_2  and  C_3
REMARK    3  A    between atoms: C_6  and  N_7
REMARK    4  A    between atoms: C_8  and  C_10
REMARK    5  A    between atoms: C_15  and  O_16
REMARK    6  A    between atoms: O_16  and  C_17
REMARK                            x       y       z     vdW  Elec       q    Type
REMARK                         _______ _______ _______ _____ _____    ______ ____
ROOT
ATOM      1  C   UNL     1       6.890   4.888  15.478  0.00  0.00    +0.000 A 
ATOM      2  C   UNL     1       5.551   4.609  15.157  0.00  0.00    +0.000 A 
ATOM      3  C   UNL     1       4.628   4.310  16.159  0.00  0.00    +0.000 A 
ATOM      4  C   UNL     1       5.012   4.277  17.501  0.00  0.00    +0.000 A 
ATOM      5  C   UNL     1       6.342   4.616  17.833  0.00  0.00    +0.000 A 
ATOM      6  C   UNL     1       7.260   4.911  16.822  0.00  0.00    +0.000 A 
ENDROOT
BRANCH   4   7
ATOM      7  N   UNL     1       4.099   3.810  18.475  0.00  0.00    +0.000 N 
ATOM      8  C   UNL     1       3.597   2.507  18.463  0.00  0.00    +0.000 C 
ATOM      9  O   UNL     1       3.952   1.626  17.701  0.00  0.00    +0.000 OA
ATOM     10  H   UNL     1       3.489   4.487  18.918  0.00  0.00    +0.000 HD
BRANCH   8  11
ATOM     11  C   UNL     1       2.525   2.271  19.559  0.00  0.00    +0.000 C 
ATOM     12  C   UNL     1       1.262   3.101  19.330  0.00  0.00    +0.000 C 
ATOM     13  C   UNL     1       0.870   3.533  20.721  0.00  0.00    +0.000 C 
ATOM     14  C   UNL     1       2.212   3.667  21.397  0.00  0.00    +0.000 C 
ATOM     15  O   UNL     1       3.031   2.617  20.865  0.00  0.00    +0.000 OA
ENDBRANCH   8  11
ENDBRANCH   4   7
BRANCH   1  17
ATOM     16  C   UNL     1       7.236   4.772  13.134  0.00  0.00    +0.000 C 
ATOM     17  O   UNL     1       7.715   5.159  14.420  0.00  0.00    +0.000 OA
ENDBRANCH   1  17
BRANCH   5  18
ATOM     18  O   UNL     1       6.627   4.778  19.171  0.00  0.00    +0.000 OA
ATOM     19  C   UNL     1       7.704   5.661  19.476  0.00  0.00    +0.000 C 
ENDBRANCH   5  18
TORSDOF 4
ENDMDL
MODEL 3
REMARK VINA RESULT:      -6.7      1.177      1.332
REMARK  Name = 
REMARK  6 active torsions:
REMARK  status: ('A' for Active; 'I' for Inactive)
REMARK    1  A    between atoms: C_1  and  O_2
REMARK    2  A    between atoms: O_2  and  C_3
REMARK    3  A    between atoms: C_6  and  N_7
REMARK    4  A    between atoms: C_8  and  C_10
REMARK    5  A    between atoms: C_15  and  O_16
REMARK    6  A    between atoms: O_16  and  C_17
REMARK                            x       y       z     vdW  Elec       q    Type
REMARK                         _______ _______ _______ _____ _____    ______ ____
ROOT
ATOM      1  C   UNL     1       6.874   5.107  15.147  0.00  0.00    +0.000 A 
ATOM      2  C   UNL     1       6.383   3.814  14.898  0.00  0.00    +0.000 A 
ATOM      3  C   UNL     1       5.489   3.211  15.782  0.00  0.00    +0.000 A 
ATOM      4  C   UNL     1       5.064   3.875  16.935  0.00  0.00    +0.000 A 
ATOM      5  C   UNL     1       5.507   5.197  17.157  0.00  0.00    +0.000 A 
ATOM      6  C   UNL     1       6.406   5.791  16.267  0.00  0.00    +0.000 A 
ENDROOT
BRANCH   4   7
ATOM      7  N   UNL     1       4.292   3.178  17.893  0.00  0.00    +0.000 N 
ATOM      8  C   UNL     1       2.909   3.031  17.774  0.00  0.00    +0.000 C 
ATOM      9  O   UNL     1       2.247   3.385  16.815  0.00  0.00    +0.000 OA
ATOM     10  H   UNL     1       4.632   3.148  18.848  0.00  0.00    +0.000 HD
BRANCH   8  11
ATOM     11  C   UNL     1       2.274   2.333  19.004  0.00  0.00    +0.000 C 
ATOM     12  C   UNL     1       1.034   3.066  19.517  0.00  0.00    +0.000 C 
ATOM     13  C   UNL     1       1.159   2.958  21.017  0.00  0.00    +0.000 C 
ATOM     14  C   UNL     1       2.656   2.981  21.209  0.00  0.00    +0.000 C 
ATOM     15  O   UNL     1       3.209   2.259  20.101  0.00  0.00    +0.000 OA
ENDBRANCH   8  11
ENDBRANCH   4   7
BRANCH   1  17
ATOM     16  C   UNL     1       7.665   5.046  12.911  0.00  0.00    +0.000 C 
ATOM     17  O   UNL     1       7.753   5.601  14.222  0.00  0.00    +0.000 OA
ENDBRANCH   1  17
BRANCH   5  18
ATOM     18  O   UNL     1       4.905   5.890  18.184  0.00  0.00    +0.000 OA
ATOM     19  C   UNL     1       3.802   6.715  17.816  0.00  0.00    +0.000 C 
ENDBRANCH   5  18
TORSDOF 4
ENDMDL
MODEL 4
REMARK VINA RESULT:      -6.6      2.444      3.085
REMARK  Name = 
REMARK  6 active torsions:
REMARK  status: ('A' for Active; 'I' for Inactive)
REMARK    1  A    between atoms: C_1  and  O_2
REMARK    2  A    between atoms: O_2  and  C_3
REMARK    3  A    between atoms: C_6  and  N_7
REMARK    4  A    between atoms: C_8  and  C_10
REMARK    5  A    between atoms: C_15  and  O_16
REMARK    6  A    between atoms: O_16  and  C_17
REMARK                            x       y       z     vdW  Elec       q    Type
REMARK                         _______ _______ _______ _____ _____    ______ ____
ROOT
ATOM      1  C   UNL     1       7.036   7.099  17.544  0.00  0.00    +0.000 A 
ATOM      2  C   UNL     1       7.537   6.013  18.282  0.00  0.00    +0.000 A 
ATOM      3  C   UNL     1       6.674   5.053  18.809  0.00  0.00    +0.000 A 
ATOM      4  C   UNL     1       5.293   5.150  18.620  0.00  0.00    +0.000 A 
ATOM      5  C   UNL     1       4.791   6.205  17.828  0.00  0.00    +0.000 A 
ATOM      6  C   UNL     1       5.664   7.164  17.307  0.00  0.00    +0.000 A 
ENDROOT
BRANCH   4   7
ATOM      7  N   UNL     1       4.434   4.258  19.303  0.00  0.00    +0.000 N 
ATOM      8  C   UNL     1       3.859   3.150  18.679  0.00  0.00    +0.000 C 
ATOM      9  O   UNL     1       4.102   2.780  17.545  0.00  0.00    +0.000 OA
ATOM     10  H   UNL     1       3.900   4.619  20.086  0.00  0.00    +0.000 HD
BRANCH   8  11
ATOM     11  C   UNL     1       2.865   2.395  19.600  0.00  0.00    +0.000 C 
ATOM     12  C   UNL     1       1.447   2.959  19.516  0.00  0.00    +0.000 C 
ATOM     13  C   UNL     1       0.961   2.900  20.943  0.00  0.00    +0.000 C 
ATOM     14  C   UNL     1       2.235   3.133  21.718  0.00  0.00    +0.000 C 
ATOM     15  O   UNL     1       3.273   2.474  20.982  0.00  0.00    +0.000 OA
ENDBRANCH   8  11
ENDBRANCH   4   7
BRANCH   1  17
ATOM     16  C   UNL     1       8.212   9.128  17.901  0.00  0.00    +0.000 C 
ATOM     17  O   UNL     1       7.967   7.987  17.081  0.00  0.00    +0.000 OA
ENDBRANCH   1  17
BRANCH   5  18
ATOM     18  O   UNL     1       3.457   6.148  17.489  0.00  0.00    +0.000 OA
ATOM     19  C   UNL     1       2.598   7.047  18.185  0.00  0.00    +0.000 C 
ENDBRANCH   5  18
TORSDOF 4
ENDMDL
MODEL 5
REMARK VINA RESULT:      -6.5      1.317      1.600
REMARK  Name = 
REMARK  6 active torsions:
REMARK  status: ('A' for Active; 'I' for Inactive)
REMARK    1  A    between atoms: C_1  and  O_2
REMARK    2  A    between atoms: O_2  and  C_3
REMARK    3  A    between atoms: C_6  and  N_7
REMARK    4  A    between atoms: C_8  and  C_10
REMARK    5  A    between atoms: C_15  and  O_16
REMARK    6  A    between atoms: O_16  and  C_17
REMARK                            x       y       z     vdW  Elec       q    Type
REMARK                         _______ _______ _______ _____ _____    ______ ____
ROOT
ATOM      1  C   UNL     1       6.920   5.182  15.604  0.00  0.00    +0.000 A 
ATOM      2  C   UNL     1       5.558   5.495  15.459  0.00  0.00    +0.000 A 
ATOM      3  C   UNL     1       4.715   5.527  16.570  0.00  0.00    +0.000 A 
ATOM      4  C   UNL     1       5.203   5.247  17.849  0.00  0.00    +0.000 A 
ATOM      5  C   UNL     1       6.583   4.994  18.006  0.00  0.00    +0.000 A 
ATOM      6  C   UNL     1       7.419   4.960  16.886  0.00  0.00    +0.000 A 
ENDROOT
BRANCH   4   7
ATOM      7  N   UNL     1       4.297   5.125  18.927  0.00  0.00    +0.000 N 
ATOM      8  C   UNL     1       3.755   3.897  19.312  0.00  0.00    +0.000 C 
ATOM      9  O   UNL     1       4.067   2.817  18.843  0.00  0.00    +0.000 OA
ATOM     10  H   UNL     1       3.717   5.925  19.155  0.00  0.00    +0.000 HD
BRANCH   8  11
ATOM     11  C   UNL     1       2.700   4.037  20.440  0.00  0.00    +0.000 C 
ATOM     12  C   UNL     1       2.678   2.825  21.372  0.00  0.00    +0.000 C 
ATOM     13  C   UNL     1       1.209   2.629  21.656  0.00  0.00    +0.000 C 
ATOM     14  C   UNL     1       0.577   3.082  20.363  0.00  0.00    +0.000 C 
ATOM     15  O   UNL     1       1.372   4.180  19.896  0.00  0.00    +0.000 OA
ENDBRANCH   8  11
ENDBRANCH   4   7
BRANCH   1  17
ATOM     16  C   UNL     1       6.986   4.698  13.282  0.00  0.00    +0.000 C 
ATOM     17  O   UNL     1       7.656   5.169  14.450  0.00  0.00    +0.000 OA
ENDBRANCH   1  17
BRANCH   5  18
ATOM     18  O   UNL     1       7.061   4.933  19.296  0.00  0.00    +0.000 OA
ATOM     19  C   UNL     1       8.151   5.801  19.598  0.00  0.00    +0.000 C 
ENDBRANCH   5  18
TORSDOF 4
ENDMDL
MODEL 6
REMARK VINA RESULT:      -6.5      1.206      1.359
REMARK  Name = 
REMARK  6 active torsions:
REMARK  status: ('A' for Active; 'I' for Inactive)
REMARK    1  A    between atoms: C_1  and  O_2
REMARK    2  A    between atoms: O_2  and  C_3
REMARK    3  A    between atoms: C_6  and  N_7
REMARK    4  A    between atoms: C_8  and  C_10
REMARK    5  A    between atoms: C_15  and  O_16
REMARK    6  A    between atoms: O_16  and  C_17
REMARK                            x       y       z     vdW  Elec       q    Type
REMARK                         _______ _______ _______ _____ _____    ______ ____
ROOT
ATOM      1  C   UNL     1       6.869   5.104  15.585  0.00  0.00    +0.000 A 
ATOM      2  C   UNL     1       5.573   4.791  15.141  0.00  0.00    +0.000 A 
ATOM      3  C   UNL     1       4.536   4.601  16.054  0.00  0.00    +0.000 A 
ATOM      4  C   UNL     1       4.761   4.715  17.428  0.00  0.00    +0.000 A 
ATOM      5  C   UNL     1       6.046   5.090  17.874  0.00  0.00    +0.000 A 
ATOM      6  C   UNL     1       7.080   5.274  16.952  0.00  0.00    +0.000 A 
ENDROOT
BRANCH   4   7
ATOM      7  N   UNL     1       3.735   4.356  18.332  0.00  0.00    +0.000 N 
ATOM      8  C   UNL     1       2.672   5.209  18.633  0.00  0.00    +0.000 C 
ATOM      9  O   UNL     1       2.460   6.281  18.095  0.00  0.00    +0.000 OA
ATOM     10  H   UNL     1       3.959   3.695  19.067  0.00  0.00    +0.000 HD
BRANCH   8  11
ATOM     11  C   UNL     1       1.743   4.640  19.736  0.00  0.00    +0.000 C 
ATOM     12  C   UNL     1       2.478   4.403  21.055  0.00  0.00    +0.000 C 
ATOM     13  C   UNL     1       1.887   3.110  21.559  0.00  0.00    +0.000 C 
ATOM     14  C   UNL     1       1.593   2.378  20.273  0.00  0.00    +0.000 C 
ATOM     15  O   UNL     1       1.171   3.377  19.335  0.00  0.00    +0.000 OA
ENDBRANCH   8  11
ENDBRANCH   4   7
BRANCH   1  17
ATOM     16  C   UNL     1       7.417   4.902  13.285  0.00  0.00    +0.000 C 
ATOM     17  O   UNL     1       7.814   5.260  14.608  0.00  0.00    +0.000 OA
ENDBRANCH   1  17
BRANCH   5  18
ATOM     18  O   UNL     1       6.175   5.398  19.211  0.00  0.00    +0.000 OA
ATOM     19  C   UNL     1       7.500   5.665  19.664  0.00  0.00    +0.000 C 
ENDBRANCH   5  18
TORSDOF 4
ENDMDL
MODEL 7
REMARK VINA RESULT:      -6.4      1.543      1.851
REMARK  Name = 
REMARK  6 active torsions:
REMARK  status: ('A' for Active; 'I' for Inactive)
REMARK    1  A    between atoms: C_1  and  O_2
REMARK    2  A    between atoms: O_2  and  C_3
REMARK    3  A    between atoms: C_6  and  N_7
REMARK    4  A    between atoms: C_8  and  C_10
REMARK    5  A    between atoms: C_15  and  O_16
REMARK    6  A    between atoms: O_16  and  C_17
REMARK                            x       y       z     vdW  Elec       q    Type
REMARK                         _______ _______ _______ _____ _____    ______ ____
ROOT
ATOM      1  C   UNL     1       6.780   5.181  15.294  0.00  0.00    +0.000 A 
ATOM      2  C   UNL     1       6.132   3.940  15.180  0.00  0.00    +0.000 A 
ATOM      3  C   UNL     1       5.110   3.589  16.061  0.00  0.00    +0.000 A 
ATOM      4  C   UNL     1       4.708   4.461  17.077  0.00  0.00    +0.000 A 
ATOM      5  C   UNL     1       5.315   5.733  17.156  0.00  0.00    +0.000 A 
ATOM      6  C   UNL     1       6.342   6.073  16.270  0.00  0.00    +0.000 A 
ENDROOT
BRANCH   4   7
ATOM      7  N   UNL     1       3.789   4.013  18.053  0.00  0.00    +0.000 N 
ATOM      8  C   UNL     1       4.197   3.383  19.230  0.00  0.00    +0.000 C 
ATOM      9  O   UNL     1       5.353   3.241  19.584  0.00  0.00    +0.000 OA
ATOM     10  H   UNL     1       2.856   3.760  17.747  0.00  0.00    +0.000 HD
BRANCH   8  11
ATOM     11  C   UNL     1       3.003   2.881  20.083  0.00  0.00    +0.000 C 
ATOM     12  C   UNL     1       1.834   2.396  19.225  0.00  0.00    +0.000 C 
ATOM     13  C   UNL     1       0.621   2.887  19.976  0.00  0.00    +0.000 C 
ATOM     14  C   UNL     1       1.129   4.170  20.587  0.00  0.00    +0.000 C 
ATOM     15  O   UNL     1       2.498   3.927  20.939  0.00  0.00    +0.000 OA
ENDBRANCH   8  11
ENDBRANCH   4   7
BRANCH   1  17
ATOM     16  C   UNL     1       7.519   5.006  13.046  0.00  0.00    +0.000 C 
ATOM     17  O   UNL     1       7.776   5.421  14.386  0.00  0.00    +0.000 OA
ENDBRANCH   1  17
BRANCH   5  18
ATOM     18  O   UNL     1       4.751   6.638  18.028  0.00  0.00    +0.000 OA
ATOM     19  C   UNL     1       3.687   7.428  17.504  0.00  0.00    +0.000 C 
ENDBRANCH   5  18
TORSDOF 4
ENDMDL
MODEL 8
REMARK VINA RESULT:      -6.2      1.637      6.364
REMARK  Name = 
REMARK  6 active torsions:
REMARK  status: ('A' for Active; 'I' for Inactive)
REMARK    1  A    between atoms: C_1  and  O_2
REMARK    2  A    between atoms: O_2  and  C_3
REMARK    3  A    between atoms: C_6  and  N_7
REMARK    4  A    between atoms: C_8  and  C_10
REMARK    5  A    between atoms: C_15  and  O_16
REMARK    6  A    between atoms: O_16  and  C_17
REMARK                            x       y       z     vdW  Elec       q    Type
REMARK                         _______ _______ _______ _____ _____    ______ ____
ROOT
ATOM      1  C   UNL     1       2.742   4.613  19.268  0.00  0.00    +0.000 A 
ATOM      2  C   UNL     1       2.357   4.048  18.041  0.00  0.00    +0.000 A 
ATOM      3  C   UNL     1       3.315   3.689  17.093  0.00  0.00    +0.000 A 
ATOM      4  C   UNL     1       4.676   3.885  17.339  0.00  0.00    +0.000 A 
ATOM      5  C   UNL     1       5.070   4.396  18.595  0.00  0.00    +0.000 A 
ATOM      6  C   UNL     1       4.102   4.756  19.537  0.00  0.00    +0.000 A 
ENDROOT
BRANCH   4   7
ATOM      7  N   UNL     1       5.609   3.667  16.298  0.00  0.00    +0.000 N 
ATOM      8  C   UNL     1       5.895   4.638  15.337  0.00  0.00    +0.000 C 
ATOM      9  O   UNL     1       5.466   5.777  15.343  0.00  0.00    +0.000 OA
ATOM     10  H   UNL     1       5.758   2.715  15.985  0.00  0.00    +0.000 HD
BRANCH   8  11
ATOM     11  C   UNL     1       6.859   4.123  14.236  0.00  0.00    +0.000 C 
ATOM     12  C   UNL     1       7.385   5.248  13.346  0.00  0.00    +0.000 C 
ATOM     13  C   UNL     1       7.394   4.631  11.969  0.00  0.00    +0.000 C 
ATOM     14  C   UNL     1       6.214   3.693  12.040  0.00  0.00    +0.000 C 
ATOM     15  O   UNL     1       6.202   3.170  13.375  0.00  0.00    +0.000 OA
ENDBRANCH   8  11
ENDBRANCH   4   7
BRANCH   1  17
ATOM     16  C   UNL     1       0.956   3.849  20.629  0.00  0.00    +0.000 C 
ATOM     17  O   UNL     1       1.724   4.938  20.122  0.00  0.00    +0.000 OA
ENDBRANCH   1  17
BRANCH   5  18
ATOM     18  O   UNL     1       6.418   4.376  18.879  0.00  0.00    +0.000 OA
ATOM     19  C   UNL     1       7.048   5.648  18.998  0.00  0.00    +0.000 C 
ENDBRANCH   5  18
TORSDOF 4
ENDMDL
MODEL 9
REMARK VINA RESULT:      -6.2      1.694      2.851
REMARK  Name = 
REMARK  6 active torsions:
REMARK  status: ('A' for Active; 'I' for Inactive)
REMARK    1  A    between atoms: C_1  and  O_2
REMARK    2  A    between atoms: O_2  and  C_3
REMARK    3  A    between atoms: C_6  and  N_7
REMARK    4  A    between atoms: C_8  and  C_10
REMARK    5  A    between atoms: C_15  and  O_16
REMARK    6  A    between atoms: O_16  and  C_17
REMARK                            x       y       z     vdW  Elec       q    Type
REMARK                         _______ _______ _______ _____ _____    ______ ____
ROOT
ATOM      1  C   UNL     1       7.341   6.842  17.331  0.00  0.00    +0.000 A 
ATOM      2  C   UNL     1       7.250   6.486  18.687  0.00  0.00    +0.000 A 
ATOM      3  C   UNL     1       6.389   5.468  19.098  0.00  0.00    +0.000 A 
ATOM      4  C   UNL     1       5.597   4.783  18.174  0.00  0.00    +0.000 A 
ATOM      5  C   UNL     1       5.731   5.096  16.804  0.00  0.00    +0.000 A 
ATOM      6  C   UNL     1       6.594   6.120  16.403  0.00  0.00    +0.000 A 
ENDROOT
BRANCH   4   7
ATOM      7  N   UNL     1       4.617   3.875  18.637  0.00  0.00    +0.000 N 
ATOM      8  C   UNL     1       3.267   4.217  18.732  0.00  0.00    +0.000 C 
ATOM      9  O   UNL     1       2.782   5.266  18.347  0.00  0.00    +0.000 OA
ATOM     10  H   UNL     1       4.909   3.148  19.281  0.00  0.00    +0.000 HD
BRANCH   8  11
ATOM     11  C   UNL     1       2.410   3.096  19.376  0.00  0.00    +0.000 C 
ATOM     12  C   UNL     1       1.235   3.649  20.183  0.00  0.00    +0.000 C 
ATOM     13  C   UNL     1       1.178   2.741  21.386  0.00  0.00    +0.000 C 
ATOM     14  C   UNL     1       2.634   2.394  21.586  0.00  0.00    +0.000 C 
ATOM     15  O   UNL     1       3.200   2.288  20.273  0.00  0.00    +0.000 OA
ENDBRANCH   8  11
ENDBRANCH   4   7
BRANCH   1  17
ATOM     16  C   UNL     1       8.174   8.987  17.910  0.00  0.00    +0.000 C 
ATOM     17  O   UNL     1       8.208   7.860  17.037  0.00  0.00    +0.000 OA
ENDBRANCH   1  17
BRANCH   5  18
ATOM     18  O   UNL     1       5.097   4.261  15.910  0.00  0.00    +0.000 OA
ATOM     19  C   UNL     1       5.882   3.820  14.805  0.00  0.00    +0.000 C 
ENDBRANCH   5  18
TORSDOF 4
ENDMDL
