MODEL 1
REMARK VINA RESULT:      -8.8      0.000      0.000
REMARK  Name = 
REMARK  4 active torsions:
REMARK  status: ('A' for Active; 'I' for Inactive)
REMARK    1  A    between atoms: C_1  and  N_2
REMARK    2  A    between atoms: N_11  and  C_12
REMARK    3  A    between atoms: C_12  and  C_13
REMARK    4  A    between atoms: C_16  and  N_17
REMARK                            x       y       z     vdW  Elec       q    Type
REMARK                         _______ _______ _______ _____ _____    ______ ____
ROOT
ATOM      1  C   UNL     1       6.239   4.423  14.410  0.00  0.00    +0.000 C 
ATOM      2  N   UNL     1       5.468   4.650  15.604  0.00  0.00    +0.000 N 
ATOM      3  N   UNL     1       4.590   3.684  16.102  0.00  0.00    +0.000 NA
ATOM      4  C   UNL     1       3.988   4.254  17.113  0.00  0.00    +0.000 A 
ATOM      5  C   UNL     1       2.941   3.730  17.988  0.00  0.00    +0.000 A 
ATOM      6  C   UNL     1       2.524   2.401  17.836  0.00  0.00    +0.000 A 
ATOM      7  C   UNL     1       1.469   1.925  18.606  0.00  0.00    +0.000 A 
ATOM      8  C   UNL     1       0.807   2.792  19.471  0.00  0.00    +0.000 A 
ATOM      9  C   UNL     1       1.237   4.121  19.621  0.00  0.00    +0.000 A 
ATOM     10  C   UNL     1       2.357   4.612  18.937  0.00  0.00    +0.000 A 
ATOM     11  N   UNL     1       2.908   5.911  19.144  0.00  0.00    +0.000 N 
ATOM     12  C   UNL     1       3.916   6.357  18.291  0.00  0.00    +0.000 A 
ATOM     13  C   UNL     1       4.446   5.625  17.316  0.00  0.00    +0.000 A 
ATOM     14  C   UNL     1       5.447   5.871  16.286  0.00  0.00    +0.000 A 
ATOM     15  O   UNL     1       6.067   6.899  16.096  0.00  0.00    +0.000 OA
ENDROOT
BRANCH  11  16
ATOM     16  C   UNL     1       2.480   6.739  20.302  0.00  0.00    +0.000 C 
BRANCH  16  17
ATOM     17  C   UNL     1       1.753   8.006  19.883  0.00  0.00    +0.000 A 
ATOM     18  C   UNL     1       1.864   8.520  18.584  0.00  0.00    +0.000 A 
ATOM     19  C   UNL     1       1.372   9.795  18.277  0.00  0.00    +0.000 A 
ATOM     20  C   UNL     1       0.772  10.572  19.277  0.00  0.00    +0.000 A 
ATOM     21  C   UNL     1       0.537  10.004  20.536  0.00  0.00    +0.000 A 
ATOM     22  C   UNL     1       1.008   8.727  20.827  0.00  0.00    +0.000 A 
BRANCH  20  23
ATOM     23  N   UNL     1       0.482  11.951  19.079  0.00  0.00    +0.000 N 
ATOM     24  C   UNL     1      -0.586  12.513  18.407  0.00  0.00    +0.000 A 
ATOM     25  C   UNL     1      -0.350  13.865  18.330  0.00  0.00    +0.000 A 
ATOM     26  C   UNL     1       0.866  14.049  18.999  0.00  0.00    +0.000 A 
ATOM     27  N   UNL     1       1.360  12.910  19.482  0.00  0.00    +0.000 NA
ENDBRANCH  20  23
ENDBRANCH  16  17
ENDBRANCH  11  16
TORSDOF 3
ENDMDL
MODEL 2
REMARK VINA RESULT:      -8.8      2.345      4.362
REMARK  Name = 
REMARK  4 active torsions:
REMARK  status: ('A' for Active; 'I' for Inactive)
REMARK    1  A    between atoms: C_1  and  N_2
REMARK    2  A    between atoms: N_11  and  C_12
REMARK    3  A    between atoms: C_12  and  C_13
REMARK    4  A    between atoms: C_16  and  N_17
REMARK                            x       y       z     vdW  Elec       q    Type
REMARK                         _______ _______ _______ _____ _____    ______ ____
ROOT
ATOM      1  C   UNL     1       7.718   4.852  12.186  0.00  0.00    +0.000 C 
ATOM      2  N   UNL     1       7.037   4.806  13.453  0.00  0.00    +0.000 N 
ATOM      3  N   UNL     1       7.578   5.405  14.595  0.00  0.00    +0.000 NA
ATOM      4  C   UNL     1       6.767   5.081  15.569  0.00  0.00    +0.000 A 
ATOM      5  C   UNL     1       6.853   5.398  16.994  0.00  0.00    +0.000 A 
ATOM      6  C   UNL     1       7.883   6.233  17.447  0.00  0.00    +0.000 A 
ATOM      7  C   UNL     1       8.020   6.466  18.811  0.00  0.00    +0.000 A 
ATOM      8  C   UNL     1       7.171   5.819  19.705  0.00  0.00    +0.000 A 
ATOM      9  C   UNL     1       6.138   4.989  19.239  0.00  0.00    +0.000 A 
ATOM     10  C   UNL     1       5.904   4.807  17.870  0.00  0.00    +0.000 A 
ATOM     11  N   UNL     1       4.798   4.076  17.343  0.00  0.00    +0.000 N 
ATOM     12  C   UNL     1       4.756   3.815  15.974  0.00  0.00    +0.000 A 
ATOM     13  C   UNL     1       5.661   4.251  15.104  0.00  0.00    +0.000 A 
ATOM     14  C   UNL     1       5.862   4.078  13.671  0.00  0.00    +0.000 A 
ATOM     15  O   UNL     1       5.169   3.439  12.904  0.00  0.00    +0.000 OA
ENDROOT
BRANCH  11  16
ATOM     16  C   UNL     1       3.667   3.678  18.221  0.00  0.00    +0.000 C 
BRANCH  16  17
ATOM     17  C   UNL     1       2.859   4.867  18.715  0.00  0.00    +0.000 A 
ATOM     18  C   UNL     1       2.735   6.037  17.954  0.00  0.00    +0.000 A 
ATOM     19  C   UNL     1       2.177   7.195  18.512  0.00  0.00    +0.000 A 
ATOM     20  C   UNL     1       1.746   7.190  19.845  0.00  0.00    +0.000 A 
ATOM     21  C   UNL     1       1.740   5.985  20.558  0.00  0.00    +0.000 A 
ATOM     22  C   UNL     1       2.275   4.832  19.990  0.00  0.00    +0.000 A 
BRANCH  20  23
ATOM     23  N   UNL     1       1.403   8.393  20.524  0.00  0.00    +0.000 N 
ATOM     24  C   UNL     1       1.219   8.588  21.878  0.00  0.00    +0.000 A 
ATOM     25  C   UNL     1       0.732   9.863  22.042  0.00  0.00    +0.000 A 
ATOM     26  C   UNL     1       0.673  10.387  20.744  0.00  0.00    +0.000 A 
ATOM     27  N   UNL     1       1.105   9.523  19.826  0.00  0.00    +0.000 NA
ENDBRANCH  20  23
ENDBRANCH  16  17
ENDBRANCH  11  16
TORSDOF 3
ENDMDL
MODEL 3
REMARK VINA RESULT:      -8.7      1.178      1.766
REMARK  Name = 
REMARK  4 active torsions:
REMARK  status: ('A' for Active; 'I' for Inactive)
REMARK    1  A    between atoms: C_1  and  N_2
REMARK    2  A    between atoms: N_11  and  C_12
REMARK    3  A    between atoms: C_12  and  C_13
REMARK    4  A    between atoms: C_16  and  N_17
REMARK                            x       y       z     vdW  Elec       q    Type
REMARK                         _______ _______ _______ _____ _____    ______ ____
ROOT
ATOM      1  C   UNL     1       6.562   4.534  14.564  0.00  0.00    +0.000 C 
ATOM      2  N   UNL     1       5.757   4.724  15.741  0.00  0.00    +0.000 N 
ATOM      3  N   UNL     1       4.825   3.765  16.151  0.00  0.00    +0.000 NA
ATOM      4  C   UNL     1       4.207   4.301  17.172  0.00  0.00    +0.000 A 
ATOM      5  C   UNL     1       3.110   3.769  17.978  0.00  0.00    +0.000 A 
ATOM      6  C   UNL     1       2.650   2.469  17.734  0.00  0.00    +0.000 A 
ATOM      7  C   UNL     1       1.550   1.992  18.438  0.00  0.00    +0.000 A 
ATOM      8  C   UNL     1       0.888   2.833  19.328  0.00  0.00    +0.000 A 
ATOM      9  C   UNL     1       1.362   4.133  19.570  0.00  0.00    +0.000 A 
ATOM     10  C   UNL     1       2.525   4.618  18.956  0.00  0.00    +0.000 A 
ATOM     11  N   UNL     1       3.116   5.881  19.258  0.00  0.00    +0.000 N 
ATOM     12  C   UNL     1       4.171   6.334  18.468  0.00  0.00    +0.000 A 
ATOM     13  C   UNL     1       4.708   5.639  17.470  0.00  0.00    +0.000 A 
ATOM     14  C   UNL     1       5.756   5.903  16.493  0.00  0.00    +0.000 A 
ATOM     15  O   UNL     1       6.421   6.916  16.384  0.00  0.00    +0.000 OA
ENDROOT
BRANCH  11  16
ATOM     16  C   UNL     1       2.676   6.657  20.446  0.00  0.00    +0.000 C 
BRANCH  16  17
ATOM     17  C   UNL     1       1.854   7.882  20.078  0.00  0.00    +0.000 A 
ATOM     18  C   UNL     1       0.942   8.451  20.977  0.00  0.00    +0.000 A 
ATOM     19  C   UNL     1       0.041   9.435  20.551  0.00  0.00    +0.000 A 
ATOM     20  C   UNL     1       0.041   9.851  19.213  0.00  0.00    +0.000 A 
ATOM     21  C   UNL     1       1.043   9.386  18.352  0.00  0.00    +0.000 A 
ATOM     22  C   UNL     1       1.951   8.425  18.788  0.00  0.00    +0.000 A 
BRANCH  20  23
ATOM     23  N   UNL     1      -1.004  10.658  18.681  0.00  0.00    +0.000 N 
ATOM     24  C   UNL     1      -1.517  11.836  19.187  0.00  0.00    +0.000 A 
ATOM     25  C   UNL     1      -2.621  12.154  18.433  0.00  0.00    +0.000 A 
ATOM     26  C   UNL     1      -2.697  11.137  17.474  0.00  0.00    +0.000 A 
ATOM     27  N   UNL     1      -1.712  10.249  17.593  0.00  0.00    +0.000 NA
ENDBRANCH  20  23
ENDBRANCH  16  17
ENDBRANCH  11  16
TORSDOF 3
ENDMDL
MODEL 4
REMARK VINA RESULT:      -8.5      1.666      2.218
REMARK  Name = 
REMARK  4 active torsions:
REMARK  status: ('A' for Active; 'I' for Inactive)
REMARK    1  A    between atoms: C_1  and  N_2
REMARK    2  A    between atoms: N_11  and  C_12
REMARK    3  A    between atoms: C_12  and  C_13
REMARK    4  A    between atoms: C_16  and  N_17
REMARK                            x       y       z     vdW  Elec       q    Type
REMARK                         _______ _______ _______ _____ _____    ______ ____
ROOT
ATOM      1  C   UNL     1       6.109   4.269  14.813  0.00  0.00    +0.000 C 
ATOM      2  N   UNL     1       5.344   4.696  15.954  0.00  0.00    +0.000 N 
ATOM      3  N   UNL     1       4.578   3.794  16.700  0.00  0.00    +0.000 NA
ATOM      4  C   UNL     1       3.941   4.526  17.577  0.00  0.00    +0.000 A 
ATOM      5  C   UNL     1       2.970   4.124  18.593  0.00  0.00    +0.000 A 
ATOM      6  C   UNL     1       2.689   2.763  18.770  0.00  0.00    +0.000 A 
ATOM      7  C   UNL     1       1.703   2.383  19.674  0.00  0.00    +0.000 A 
ATOM      8  C   UNL     1       0.973   3.362  20.342  0.00  0.00    +0.000 A 
ATOM      9  C   UNL     1       1.268   4.723  20.163  0.00  0.00    +0.000 A 
ATOM     10  C   UNL     1       2.319   5.145  19.337  0.00  0.00    +0.000 A 
ATOM     11  N   UNL     1       2.738   6.502  19.214  0.00  0.00    +0.000 N 
ATOM     12  C   UNL     1       3.679   6.829  18.239  0.00  0.00    +0.000 A 
ATOM     13  C   UNL     1       4.261   5.943  17.437  0.00  0.00    +0.000 A 
ATOM     14  C   UNL     1       5.212   6.035  16.337  0.00  0.00    +0.000 A 
ATOM     15  O   UNL     1       5.719   7.044  15.887  0.00  0.00    +0.000 OA
ENDROOT
BRANCH  11  16
ATOM     16  C   UNL     1       2.250   7.533  20.167  0.00  0.00    +0.000 C 
BRANCH  16  17
ATOM     17  C   UNL     1       1.336   8.555  19.511  0.00  0.00    +0.000 A 
ATOM     18  C   UNL     1       0.648   9.515  20.266  0.00  0.00    +0.000 A 
ATOM     19  C   UNL     1      -0.352  10.301  19.680  0.00  0.00    +0.000 A 
ATOM     20  C   UNL     1      -0.678  10.123  18.328  0.00  0.00    +0.000 A 
ATOM     21  C   UNL     1       0.102   9.265  17.544  0.00  0.00    +0.000 A 
ATOM     22  C   UNL     1       1.111   8.504  18.128  0.00  0.00    +0.000 A 
BRANCH  20  23
ATOM     23  N   UNL     1      -1.838  10.715  17.755  0.00  0.00    +0.000 N 
ATOM     24  C   UNL     1      -2.877  11.359  18.398  0.00  0.00    +0.000 A 
ATOM     25  C   UNL     1      -3.846  11.606  17.457  0.00  0.00    +0.000 A 
ATOM     26  C   UNL     1      -3.313  11.106  16.262  0.00  0.00    +0.000 A 
ATOM     27  N   UNL     1      -2.092  10.597  16.423  0.00  0.00    +0.000 NA
ENDBRANCH  20  23
ENDBRANCH  16  17
ENDBRANCH  11  16
TORSDOF 3
ENDMDL
MODEL 5
REMARK VINA RESULT:      -8.3      2.337      4.162
REMARK  Name = 
REMARK  4 active torsions:
REMARK  status: ('A' for Active; 'I' for Inactive)
REMARK    1  A    between atoms: C_1  and  N_2
REMARK    2  A    between atoms: N_11  and  C_12
REMARK    3  A    between atoms: C_12  and  C_13
REMARK    4  A    between atoms: C_16  and  N_17
REMARK                            x       y       z     vdW  Elec       q    Type
REMARK                         _______ _______ _______ _____ _____    ______ ____
ROOT
ATOM      1  C   UNL     1       7.569   4.652  12.200  0.00  0.00    +0.000 C 
ATOM      2  N   UNL     1       6.862   4.721  13.451  0.00  0.00    +0.000 N 
ATOM      3  N   UNL     1       7.471   5.217  14.608  0.00  0.00    +0.000 NA
ATOM      4  C   UNL     1       6.596   5.035  15.563  0.00  0.00    +0.000 A 
ATOM      5  C   UNL     1       6.703   5.331  16.990  0.00  0.00    +0.000 A 
ATOM      6  C   UNL     1       7.849   5.977  17.471  0.00  0.00    +0.000 A 
ATOM      7  C   UNL     1       7.994   6.181  18.838  0.00  0.00    +0.000 A 
ATOM      8  C   UNL     1       7.028   5.686  19.711  0.00  0.00    +0.000 A 
ATOM      9  C   UNL     1       5.879   5.046  19.217  0.00  0.00    +0.000 A 
ATOM     10  C   UNL     1       5.647   4.909  17.842  0.00  0.00    +0.000 A 
ATOM     11  N   UNL     1       4.445   4.378  17.288  0.00  0.00    +0.000 N 
ATOM     12  C   UNL     1       4.390   4.130  15.917  0.00  0.00    +0.000 A 
ATOM     13  C   UNL     1       5.375   4.406  15.069  0.00  0.00    +0.000 A 
ATOM     14  C   UNL     1       5.576   4.204  13.640  0.00  0.00    +0.000 A 
ATOM     15  O   UNL     1       4.801   3.694  12.854  0.00  0.00    +0.000 OA
ENDROOT
BRANCH  11  16
ATOM     16  C   UNL     1       3.243   4.178  18.139  0.00  0.00    +0.000 C 
BRANCH  16  17
ATOM     17  C   UNL     1       2.826   5.441  18.875  0.00  0.00    +0.000 A 
ATOM     18  C   UNL     1       2.333   5.397  20.186  0.00  0.00    +0.000 A 
ATOM     19  C   UNL     1       1.751   6.531  20.768  0.00  0.00    +0.000 A 
ATOM     20  C   UNL     1       1.650   7.719  20.032  0.00  0.00    +0.000 A 
ATOM     21  C   UNL     1       2.267   7.802  18.778  0.00  0.00    +0.000 A 
ATOM     22  C   UNL     1       2.865   6.678  18.215  0.00  0.00    +0.000 A 
BRANCH  20  23
ATOM     23  N   UNL     1       0.857   8.812  20.483  0.00  0.00    +0.000 N 
ATOM     24  C   UNL     1       0.687  10.048  19.891  0.00  0.00    +0.000 A 
ATOM     25  C   UNL     1      -0.023  10.826  20.773  0.00  0.00    +0.000 A 
ATOM     26  C   UNL     1      -0.270   9.985  21.865  0.00  0.00    +0.000 A 
ATOM     27  N   UNL     1       0.227   8.761  21.689  0.00  0.00    +0.000 NA
ENDBRANCH  20  23
ENDBRANCH  16  17
ENDBRANCH  11  16
TORSDOF 3
ENDMDL
MODEL 6
REMARK VINA RESULT:      -8.3      0.901      1.393
REMARK  Name = 
REMARK  4 active torsions:
REMARK  status: ('A' for Active; 'I' for Inactive)
REMARK    1  A    between atoms: C_1  and  N_2
REMARK    2  A    between atoms: N_11  and  C_12
REMARK    3  A    between atoms: C_12  and  C_13
REMARK    4  A    between atoms: C_16  and  N_17
REMARK                            x       y       z     vdW  Elec       q    Type
REMARK                         _______ _______ _______ _____ _____    ______ ____
ROOT
ATOM      1  C   UNL     1       7.073   5.031  15.518  0.00  0.00    +0.000 C 
ATOM      2  N   UNL     1       6.049   5.058  16.529  0.00  0.00    +0.000 N 
ATOM      3  N   UNL     1       5.163   3.990  16.700  0.00  0.00    +0.000 NA
ATOM      4  C   UNL     1       4.315   4.390  17.613  0.00  0.00    +0.000 A 
ATOM      5  C   UNL     1       3.150   3.701  18.164  0.00  0.00    +0.000 A 
ATOM      6  C   UNL     1       2.881   2.385  17.765  0.00  0.00    +0.000 A 
ATOM      7  C   UNL     1       1.726   1.758  18.219  0.00  0.00    +0.000 A 
ATOM      8  C   UNL     1       0.828   2.467  19.012  0.00  0.00    +0.000 A 
ATOM      9  C   UNL     1       1.111   3.784  19.411  0.00  0.00    +0.000 A 
ATOM     10  C   UNL     1       2.309   4.418  19.058  0.00  0.00    +0.000 A 
ATOM     11  N   UNL     1       2.700   5.704  19.536  0.00  0.00    +0.000 N 
ATOM     12  C   UNL     1       3.829   6.310  18.988  0.00  0.00    +0.000 A 
ATOM     13  C   UNL     1       4.610   5.742  18.075  0.00  0.00    +0.000 A 
ATOM     14  C   UNL     1       5.787   6.174  17.331  0.00  0.00    +0.000 A 
ATOM     15  O   UNL     1       6.350   7.249  17.407  0.00  0.00    +0.000 OA
ENDROOT
BRANCH  11  16
ATOM     16  C   UNL     1       1.969   6.346  20.660  0.00  0.00    +0.000 C 
BRANCH  16  17
ATOM     17  C   UNL     1       1.672   7.815  20.406  0.00  0.00    +0.000 A 
ATOM     18  C   UNL     1       1.324   8.684  21.449  0.00  0.00    +0.000 A 
ATOM     19  C   UNL     1       0.842   9.970  21.174  0.00  0.00    +0.000 A 
ATOM     20  C   UNL     1       0.695  10.393  19.846  0.00  0.00    +0.000 A 
ATOM     21  C   UNL     1       1.173   9.578  18.812  0.00  0.00    +0.000 A 
ATOM     22  C   UNL     1       1.673   8.310  19.093  0.00  0.00    +0.000 A 
BRANCH  20  23
ATOM     23  N   UNL     1      -0.012  11.582  19.514  0.00  0.00    +0.000 N 
ATOM     24  C   UNL     1       0.358  12.581  18.635  0.00  0.00    +0.000 A 
ATOM     25  C   UNL     1      -0.551  13.602  18.775  0.00  0.00    +0.000 A 
ATOM     26  C   UNL     1      -1.456  13.139  19.738  0.00  0.00    +0.000 A 
ATOM     27  N   UNL     1      -1.161  11.912  20.166  0.00  0.00    +0.000 NA
ENDBRANCH  20  23
ENDBRANCH  16  17
ENDBRANCH  11  16
TORSDOF 3
ENDMDL
MODEL 7
REMARK VINA RESULT:      -8.2      3.157      8.583
REMARK  Name = 
REMARK  4 active torsions:
REMARK  status: ('A' for Active; 'I' for Inactive)
REMARK    1  A    between atoms: C_1  and  N_2
REMARK    2  A    between atoms: N_11  and  C_12
REMARK    3  A    between atoms: C_12  and  C_13
REMARK    4  A    between atoms: C_16  and  N_17
REMARK                            x       y       z     vdW  Elec       q    Type
REMARK                         _______ _______ _______ _____ _____    ______ ____
ROOT
ATOM      1  C   UNL     1      -5.370  11.072  17.846  0.00  0.00    +0.000 C 
ATOM      2  N   UNL     1      -3.957  10.960  18.097  0.00  0.00    +0.000 N 
ATOM      3  N   UNL     1      -3.333  11.701  19.105  0.00  0.00    +0.000 NA
ATOM      4  C   UNL     1      -2.057  11.441  18.984  0.00  0.00    +0.000 A 
ATOM      5  C   UNL     1      -0.925  11.965  19.745  0.00  0.00    +0.000 A 
ATOM      6  C   UNL     1      -1.167  12.815  20.832  0.00  0.00    +0.000 A 
ATOM      7  C   UNL     1      -0.091  13.384  21.504  0.00  0.00    +0.000 A 
ATOM      8  C   UNL     1       1.204  13.150  21.048  0.00  0.00    +0.000 A 
ATOM      9  C   UNL     1       1.435  12.291  19.961  0.00  0.00    +0.000 A 
ATOM     10  C   UNL     1       0.386  11.619  19.319  0.00  0.00    +0.000 A 
ATOM     11  N   UNL     1       0.575  10.645  18.294  0.00  0.00    +0.000 N 
ATOM     12  C   UNL     1      -0.540  10.166  17.609  0.00  0.00    +0.000 A 
ATOM     13  C   UNL     1      -1.792  10.518  17.884  0.00  0.00    +0.000 A 
ATOM     14  C   UNL     1      -3.090  10.204  17.301  0.00  0.00    +0.000 A 
ATOM     15  O   UNL     1      -3.313   9.480  16.350  0.00  0.00    +0.000 OA
ENDROOT
BRANCH  11  16
ATOM     16  C   UNL     1       1.925  10.086  18.022  0.00  0.00    +0.000 C 
BRANCH  16  17
ATOM     17  C   UNL     1       2.146   8.735  18.682  0.00  0.00    +0.000 A 
ATOM     18  C   UNL     1       2.777   7.682  18.004  0.00  0.00    +0.000 A 
ATOM     19  C   UNL     1       2.778   6.388  18.541  0.00  0.00    +0.000 A 
ATOM     20  C   UNL     1       2.135   6.137  19.760  0.00  0.00    +0.000 A 
ATOM     21  C   UNL     1       1.629   7.212  20.501  0.00  0.00    +0.000 A 
ATOM     22  C   UNL     1       1.652   8.500  19.973  0.00  0.00    +0.000 A 
BRANCH  20  23
ATOM     23  N   UNL     1       1.897   4.811  20.220  0.00  0.00    +0.000 N 
ATOM     24  C   UNL     1       1.112   3.833  19.644  0.00  0.00    +0.000 A 
ATOM     25  C   UNL     1       1.050   2.786  20.531  0.00  0.00    +0.000 A 
ATOM     26  C   UNL     1       1.844   3.193  21.611  0.00  0.00    +0.000 A 
ATOM     27  N   UNL     1       2.385   4.395  21.421  0.00  0.00    +0.000 NA
ENDBRANCH  20  23
ENDBRANCH  16  17
ENDBRANCH  11  16
TORSDOF 3
ENDMDL
MODEL 8
REMARK VINA RESULT:      -8.1      3.125      8.776
REMARK  Name = 
REMARK  4 active torsions:
REMARK  status: ('A' for Active; 'I' for Inactive)
REMARK    1  A    between atoms: C_1  and  N_2
REMARK    2  A    between atoms: N_11  and  C_12
REMARK    3  A    between atoms: C_12  and  C_13
REMARK    4  A    between atoms: C_16  and  N_17
REMARK                            x       y       z     vdW  Elec       q    Type
REMARK                         _______ _______ _______ _____ _____    ______ ____
ROOT
ATOM      1  C   UNL     1      -5.235  11.331  17.329  0.00  0.00    +0.000 C 
ATOM      2  N   UNL     1      -3.873  11.156  17.761  0.00  0.00    +0.000 N 
ATOM      3  N   UNL     1      -3.333  11.919  18.801  0.00  0.00    +0.000 NA
ATOM      4  C   UNL     1      -2.070  11.583  18.854  0.00  0.00    +0.000 A 
ATOM      5  C   UNL     1      -1.010  12.088  19.725  0.00  0.00    +0.000 A 
ATOM      6  C   UNL     1      -1.331  13.010  20.729  0.00  0.00    +0.000 A 
ATOM      7  C   UNL     1      -0.313  13.558  21.501  0.00  0.00    +0.000 A 
ATOM      8  C   UNL     1       1.011  13.228  21.224  0.00  0.00    +0.000 A 
ATOM      9  C   UNL     1       1.320  12.296  20.220  0.00  0.00    +0.000 A 
ATOM     10  C   UNL     1       0.319  11.646  19.486  0.00  0.00    +0.000 A 
ATOM     11  N   UNL     1       0.573  10.606  18.543  0.00  0.00    +0.000 N 
ATOM     12  C   UNL     1      -0.478  10.150  17.748  0.00  0.00    +0.000 A 
ATOM     13  C   UNL     1      -1.730  10.585  17.845  0.00  0.00    +0.000 A 
ATOM     14  C   UNL     1      -2.963  10.310  17.119  0.00  0.00    +0.000 A 
ATOM     15  O   UNL     1      -3.111   9.545  16.186  0.00  0.00    +0.000 OA
ENDROOT
BRANCH  11  16
ATOM     16  C   UNL     1       1.908   9.959  18.472  0.00  0.00    +0.000 C 
BRANCH  16  17
ATOM     17  C   UNL     1       1.880   8.500  18.896  0.00  0.00    +0.000 A 
ATOM     18  C   UNL     1       1.555   8.124  20.206  0.00  0.00    +0.000 A 
ATOM     19  C   UNL     1       1.746   6.804  20.637  0.00  0.00    +0.000 A 
ATOM     20  C   UNL     1       2.274   5.851  19.756  0.00  0.00    +0.000 A 
ATOM     21  C   UNL     1       2.465   6.194  18.412  0.00  0.00    +0.000 A 
ATOM     22  C   UNL     1       2.252   7.502  17.984  0.00  0.00    +0.000 A 
BRANCH  20  23
ATOM     23  N   UNL     1       2.711   4.575  20.210  0.00  0.00    +0.000 N 
ATOM     24  C   UNL     1       3.519   3.665  19.557  0.00  0.00    +0.000 A 
ATOM     25  C   UNL     1       3.522   2.514  20.307  0.00  0.00    +0.000 A 
ATOM     26  C   UNL     1       2.716   2.812  21.413  0.00  0.00    +0.000 A 
ATOM     27  N   UNL     1       2.249   4.059  21.382  0.00  0.00    +0.000 NA
ENDBRANCH  20  23
ENDBRANCH  16  17
ENDBRANCH  11  16
TORSDOF 3
ENDMDL
MODEL 9
REMARK VINA RESULT:      -8.0      3.296      8.984
REMARK  Name = 
REMARK  4 active torsions:
REMARK  status: ('A' for Active; 'I' for Inactive)
REMARK    1  A    between atoms: C_1  and  N_2
REMARK    2  A    between atoms: N_11  and  C_12
REMARK    3  A    between atoms: C_12  and  C_13
REMARK    4  A    between atoms: C_16  and  N_17
REMARK                            x       y       z     vdW  Elec       q    Type
REMARK                         _______ _______ _______ _____ _____    ______ ____
ROOT
ATOM      1  C   UNL     1      -3.112  14.486  22.746  0.00  0.00    +0.000 C 
ATOM      2  N   UNL     1      -2.383  13.749  21.748  0.00  0.00    +0.000 N 
ATOM      3  N   UNL     1      -3.035  13.119  20.683  0.00  0.00    +0.000 NA
ATOM      4  C   UNL     1      -2.099  12.465  20.045  0.00  0.00    +0.000 A 
ATOM      5  C   UNL     1      -2.205  11.598  18.873  0.00  0.00    +0.000 A 
ATOM      6  C   UNL     1      -3.444  11.461  18.234  0.00  0.00    +0.000 A 
ATOM      7  C   UNL     1      -3.568  10.571  17.173  0.00  0.00    +0.000 A 
ATOM      8  C   UNL     1      -2.478   9.788  16.804  0.00  0.00    +0.000 A 
ATOM      9  C   UNL     1      -1.238   9.939  17.448  0.00  0.00    +0.000 A 
ATOM     10  C   UNL     1      -1.044  10.895  18.453  0.00  0.00    +0.000 A 
ATOM     11  N   UNL     1       0.220  11.173  19.053  0.00  0.00    +0.000 N 
ATOM     12  C   UNL     1       0.267  12.019  20.159  0.00  0.00    +0.000 A 
ATOM     13  C   UNL     1      -0.792  12.638  20.671  0.00  0.00    +0.000 A 
ATOM     14  C   UNL     1      -1.007  13.510  21.818  0.00  0.00    +0.000 A 
ATOM     15  O   UNL     1      -0.174  13.891  22.617  0.00  0.00    +0.000 OA
ENDROOT
BRANCH  11  16
ATOM     16  C   UNL     1       1.473  10.643  18.455  0.00  0.00    +0.000 C 
BRANCH  16  17
ATOM     17  C   UNL     1       1.677   9.162  18.731  0.00  0.00    +0.000 A 
ATOM     18  C   UNL     1       1.577   8.637  20.027  0.00  0.00    +0.000 A 
ATOM     19  C   UNL     1       1.980   7.323  20.297  0.00  0.00    +0.000 A 
ATOM     20  C   UNL     1       2.499   6.526  19.268  0.00  0.00    +0.000 A 
ATOM     21  C   UNL     1       2.468   7.002  17.952  0.00  0.00    +0.000 A 
ATOM     22  C   UNL     1       2.044   8.302  17.686  0.00  0.00    +0.000 A 
BRANCH  20  23
ATOM     23  N   UNL     1       3.143   5.286  19.537  0.00  0.00    +0.000 N 
ATOM     24  C   UNL     1       4.463   4.942  19.319  0.00  0.00    +0.000 A 
ATOM     25  C   UNL     1       4.578   3.596  19.568  0.00  0.00    +0.000 A 
ATOM     26  C   UNL     1       3.293   3.198  19.956  0.00  0.00    +0.000 A 
ATOM     27  N   UNL     1       2.429   4.212  19.972  0.00  0.00    +0.000 NA
ENDBRANCH  20  23
ENDBRANCH  16  17
ENDBRANCH  11  16
TORSDOF 3
ENDMDL
