MODEL 1
REMARK VINA RESULT:      -7.5      0.000      0.000
REMARK  Name = 
REMARK  7 active torsions:
REMARK  status: ('A' for Active; 'I' for Inactive)
REMARK    1  A    between atoms: C_1  and  C_2
REMARK    2  A    between atoms: N_4  and  C_5
REMARK    3  A    between atoms: C_6  and  C_7
REMARK    4  A    between atoms: C_9  and  C_10
REMARK    5  A    between atoms: C_13  and  O_14
REMARK    6  A    between atoms: C_19  and  C_20
REMARK    7  A    between atoms: N_22  and  C_23
REMARK                            x       y       z     vdW  Elec       q    Type
REMARK                         _______ _______ _______ _____ _____    ______ ____
ROOT
ATOM      1  C   UNL     1      -3.018  12.180  19.562  0.00  0.00    +0.000 A 
ATOM      2  C   UNL     1      -1.948  11.474  19.008  0.00  0.00    +0.000 A 
ATOM      3  C   UNL     1      -2.570  10.720  17.958  0.00  0.00    +0.000 A 
ATOM      4  C   UNL     1      -2.004   9.763  16.968  0.00  0.00    +0.000 C 
ATOM      5  N   UNL     1      -3.894  10.907  17.924  0.00  0.00    +0.000 NA
ATOM      6  N   UNL     1      -4.139  11.912  18.789  0.00  0.00    +0.000 N 
ENDROOT
BRANCH   1  10
ATOM      7  C   UNL     1      -3.423  13.736  24.295  0.00  0.00    +0.000 C 
ATOM      8  C   UNL     1      -3.247  13.631  22.831  0.00  0.00    +0.000 A 
ATOM      9  C   UNL     1      -3.379  12.532  22.009  0.00  0.00    +0.000 A 
ATOM     10  N   UNL     1      -3.055  12.944  20.734  0.00  0.00    +0.000 N 
ATOM     11  C   UNL     1      -2.794  14.297  20.861  0.00  0.00    +0.000 A 
ATOM     12  N   UNL     1      -2.884  14.726  22.098  0.00  0.00    +0.000 NA
ENDBRANCH   1  10
BRANCH   2  13
ATOM     13  C   UNL     1      -0.530  11.351  19.501  0.00  0.00    +0.000 C 
ATOM     14  C   UNL     1      -0.141   9.917  19.843  0.00  0.00    +0.000 C 
ATOM     15  C   UNL     1       1.102   9.753  19.008  0.00  0.00    +0.000 C 
ATOM     16  N   UNL     1       1.436  10.800  18.317  0.00  0.00    +0.000 NA
ATOM     17  N   UNL     1       0.435  11.698  18.465  0.00  0.00    +0.000 N 
ATOM     18  H   UNL     1       0.735  12.672  18.467  0.00  0.00    +0.000 HD
BRANCH  15  19
ATOM     19  C   UNL     1       1.869   8.481  19.010  0.00  0.00    +0.000 A 
ATOM     20  C   UNL     1       1.785   7.588  20.086  0.00  0.00    +0.000 A 
ATOM     21  C   UNL     1       2.495   6.383  20.064  0.00  0.00    +0.000 A 
ATOM     22  C   UNL     1       3.286   6.075  18.963  0.00  0.00    +0.000 A 
ATOM     23  C   UNL     1       3.377   6.947  17.886  0.00  0.00    +0.000 A 
ATOM     24  C   UNL     1       2.667   8.153  17.907  0.00  0.00    +0.000 A 
BRANCH  22  25
ATOM     25  O   UNL     1       3.993   4.910  18.904  0.00  0.00    +0.000 OA
ATOM     26  H   UNL     1       3.691   4.397  18.137  0.00  0.00    +0.000 HD
ENDBRANCH  22  25
ENDBRANCH  15  19
ENDBRANCH   2  13
BRANCH   6  27
ATOM     27  C   UNL     1      -5.410  12.559  18.719  0.00  0.00    +0.000 A 
ATOM     28  C   UNL     1      -5.977  12.806  17.459  0.00  0.00    +0.000 A 
ATOM     29  C   UNL     1      -7.231  13.410  17.358  0.00  0.00    +0.000 A 
ATOM     30  C   UNL     1      -7.916  13.793  18.510  0.00  0.00    +0.000 A 
ATOM     31  C   UNL     1      -7.341  13.587  19.763  0.00  0.00    +0.000 A 
ATOM     32  C   UNL     1      -6.086  12.982  19.870  0.00  0.00    +0.000 A 
ENDBRANCH   6  27
TORSDOF 5
ENDMDL
MODEL 2
REMARK VINA RESULT:      -7.4      1.414      3.806
REMARK  Name = 
REMARK  7 active torsions:
REMARK  status: ('A' for Active; 'I' for Inactive)
REMARK    1  A    between atoms: C_1  and  C_2
REMARK    2  A    between atoms: N_4  and  C_5
REMARK    3  A    between atoms: C_6  and  C_7
REMARK    4  A    between atoms: C_9  and  C_10
REMARK    5  A    between atoms: C_13  and  O_14
REMARK    6  A    between atoms: C_19  and  C_20
REMARK    7  A    between atoms: N_22  and  C_23
REMARK                            x       y       z     vdW  Elec       q    Type
REMARK                         _______ _______ _______ _____ _____    ______ ____
ROOT
ATOM      1  C   UNL     1      -2.233  12.012  19.394  0.00  0.00    +0.000 A 
ATOM      2  C   UNL     1      -1.026  12.351  20.011  0.00  0.00    +0.000 A 
ATOM      3  C   UNL     1      -1.420  13.359  20.953  0.00  0.00    +0.000 A 
ATOM      4  C   UNL     1      -0.627  14.143  21.941  0.00  0.00    +0.000 C 
ATOM      5  N   UNL     1      -2.724  13.643  20.867  0.00  0.00    +0.000 NA
ATOM      6  N   UNL     1      -3.241  12.714  20.038  0.00  0.00    +0.000 N 
ENDROOT
BRANCH   1  10
ATOM      7  C   UNL     1      -2.894  10.311  14.740  0.00  0.00    +0.000 C 
ATOM      8  C   UNL     1      -2.753  10.464  16.204  0.00  0.00    +0.000 A 
ATOM      9  C   UNL     1      -2.584  11.609  16.953  0.00  0.00    +0.000 A 
ATOM     10  N   UNL     1      -2.449  11.212  18.266  0.00  0.00    +0.000 N 
ATOM     11  C   UNL     1      -2.600   9.837  18.232  0.00  0.00    +0.000 A 
ATOM     12  N   UNL     1      -2.764   9.366  17.018  0.00  0.00    +0.000 NA
ENDBRANCH   1  10
BRANCH   2  13
ATOM     13  C   UNL     1       0.377  11.937  19.653  0.00  0.00    +0.000 C 
ATOM     14  C   UNL     1       0.782  10.605  20.276  0.00  0.00    +0.000 C 
ATOM     15  C   UNL     1       1.221   9.841  19.055  0.00  0.00    +0.000 C 
ATOM     16  N   UNL     1       1.134  10.501  17.939  0.00  0.00    +0.000 NA
ATOM     17  N   UNL     1       0.514  11.669  18.227  0.00  0.00    +0.000 N 
ATOM     18  H   UNL     1       0.825  12.463  17.669  0.00  0.00    +0.000 HD
BRANCH  15  19
ATOM     19  C   UNL     1       1.722   8.447  19.156  0.00  0.00    +0.000 A 
ATOM     20  C   UNL     1       2.353   7.826  18.070  0.00  0.00    +0.000 A 
ATOM     21  C   UNL     1       2.840   6.520  18.187  0.00  0.00    +0.000 A 
ATOM     22  C   UNL     1       2.696   5.840  19.392  0.00  0.00    +0.000 A 
ATOM     23  C   UNL     1       2.077   6.443  20.479  0.00  0.00    +0.000 A 
ATOM     24  C   UNL     1       1.588   7.749  20.364  0.00  0.00    +0.000 A 
BRANCH  22  25
ATOM     25  O   UNL     1       3.159   4.566  19.545  0.00  0.00    +0.000 OA
ATOM     26  H   UNL     1       2.442   4.011  19.892  0.00  0.00    +0.000 HD
ENDBRANCH  22  25
ENDBRANCH  15  19
ENDBRANCH   2  13
BRANCH   6  27
ATOM     27  C   UNL     1      -4.660  12.552  20.019  0.00  0.00    +0.000 A 
ATOM     28  C   UNL     1      -5.356  12.517  21.237  0.00  0.00    +0.000 A 
ATOM     29  C   UNL     1      -6.746  12.390  21.249  0.00  0.00    +0.000 A 
ATOM     30  C   UNL     1      -7.447  12.273  20.051  0.00  0.00    +0.000 A 
ATOM     31  C   UNL     1      -6.759  12.268  18.839  0.00  0.00    +0.000 A 
ATOM     32  C   UNL     1      -5.367  12.395  18.819  0.00  0.00    +0.000 A 
ENDBRANCH   6  27
TORSDOF 5
ENDMDL
MODEL 3
REMARK VINA RESULT:      -7.3      1.407      3.602
REMARK  Name = 
REMARK  7 active torsions:
REMARK  status: ('A' for Active; 'I' for Inactive)
REMARK    1  A    between atoms: C_1  and  C_2
REMARK    2  A    between atoms: N_4  and  C_5
REMARK    3  A    between atoms: C_6  and  C_7
REMARK    4  A    between atoms: C_9  and  C_10
REMARK    5  A    between atoms: C_13  and  O_14
REMARK    6  A    between atoms: C_19  and  C_20
REMARK    7  A    between atoms: N_22  and  C_23
REMARK                            x       y       z     vdW  Elec       q    Type
REMARK                         _______ _______ _______ _____ _____    ______ ____
ROOT
ATOM      1  C   UNL     1      -2.304  11.972  19.307  0.00  0.00    +0.000 A 
ATOM      2  C   UNL     1      -1.109  12.332  19.936  0.00  0.00    +0.000 A 
ATOM      3  C   UNL     1      -1.529  13.334  20.873  0.00  0.00    +0.000 A 
ATOM      4  C   UNL     1      -0.759  14.132  21.867  0.00  0.00    +0.000 C 
ATOM      5  N   UNL     1      -2.837  13.597  20.773  0.00  0.00    +0.000 NA
ATOM      6  N   UNL     1      -3.330  12.658  19.940  0.00  0.00    +0.000 N 
ENDROOT
BRANCH   1  10
ATOM      7  C   UNL     1      -2.897  10.255  14.650  0.00  0.00    +0.000 C 
ATOM      8  C   UNL     1      -2.770  10.412  16.115  0.00  0.00    +0.000 A 
ATOM      9  C   UNL     1      -2.630  11.560  16.864  0.00  0.00    +0.000 A 
ATOM     10  N   UNL     1      -2.496  11.167  18.179  0.00  0.00    +0.000 N 
ATOM     11  C   UNL     1      -2.618   9.789  18.145  0.00  0.00    +0.000 A 
ATOM     12  N   UNL     1      -2.764   9.314  16.929  0.00  0.00    +0.000 NA
ENDBRANCH   1  10
BRANCH   2  13
ATOM     13  C   UNL     1       0.304  11.940  19.593  0.00  0.00    +0.000 C 
ATOM     14  C   UNL     1       0.733  10.629  20.242  0.00  0.00    +0.000 C 
ATOM     15  C   UNL     1       1.194   9.852  19.038  0.00  0.00    +0.000 C 
ATOM     16  N   UNL     1       1.099  10.488  17.910  0.00  0.00    +0.000 NA
ATOM     17  N   UNL     1       0.454  11.648  18.173  0.00  0.00    +0.000 N 
ATOM     18  H   UNL     1       0.751  12.438  17.601  0.00  0.00    +0.000 HD
BRANCH  15  19
ATOM     19  C   UNL     1       1.724   8.471  19.169  0.00  0.00    +0.000 A 
ATOM     20  C   UNL     1       1.566   7.746  20.357  0.00  0.00    +0.000 A 
ATOM     21  C   UNL     1       2.049   6.437  20.459  0.00  0.00    +0.000 A 
ATOM     22  C   UNL     1       2.688   5.856  19.369  0.00  0.00    +0.000 A 
ATOM     23  C   UNL     1       2.848   6.560  18.182  0.00  0.00    +0.000 A 
ATOM     24  C   UNL     1       2.366   7.869  18.078  0.00  0.00    +0.000 A 
BRANCH  22  25
ATOM     25  O   UNL     1       3.172   4.583  19.428  0.00  0.00    +0.000 OA
ATOM     26  H   UNL     1       3.758   4.433  18.669  0.00  0.00    +0.000 HD
ENDBRANCH  22  25
ENDBRANCH  15  19
ENDBRANCH   2  13
BRANCH   6  27
ATOM     27  C   UNL     1      -4.746  12.473  19.907  0.00  0.00    +0.000 A 
ATOM     28  C   UNL     1      -5.388  12.361  18.664  0.00  0.00    +0.000 A 
ATOM     29  C   UNL     1      -6.765  12.150  18.600  0.00  0.00    +0.000 A 
ATOM     30  C   UNL     1      -7.515  12.073  19.772  0.00  0.00    +0.000 A 
ATOM     31  C   UNL     1      -6.891  12.222  21.009  0.00  0.00    +0.000 A 
ATOM     32  C   UNL     1      -5.511  12.433  21.080  0.00  0.00    +0.000 A 
ENDBRANCH   6  27
TORSDOF 5
ENDMDL
MODEL 4
REMARK VINA RESULT:      -7.3      5.916      9.841
REMARK  Name = 
REMARK  7 active torsions:
REMARK  status: ('A' for Active; 'I' for Inactive)
REMARK    1  A    between atoms: C_1  and  C_2
REMARK    2  A    between atoms: N_4  and  C_5
REMARK    3  A    between atoms: C_6  and  C_7
REMARK    4  A    between atoms: C_9  and  C_10
REMARK    5  A    between atoms: C_13  and  O_14
REMARK    6  A    between atoms: C_19  and  C_20
REMARK    7  A    between atoms: N_22  and  C_23
REMARK                            x       y       z     vdW  Elec       q    Type
REMARK                         _______ _______ _______ _____ _____    ______ ____
ROOT
ATOM      1  C   UNL     1       4.252   5.995  18.338  0.00  0.00    +0.000 A 
ATOM      2  C   UNL     1       5.503   6.045  17.718  0.00  0.00    +0.000 A 
ATOM      3  C   UNL     1       6.132   4.837  18.169  0.00  0.00    +0.000 A 
ATOM      4  C   UNL     1       7.476   4.264  17.881  0.00  0.00    +0.000 C 
ATOM      5  N   UNL     1       5.360   4.159  19.025  0.00  0.00    +0.000 NA
ATOM      6  N   UNL     1       4.162   4.779  18.999  0.00  0.00    +0.000 N 
ENDROOT
BRANCH   1  10
ATOM      7  C   UNL     1       0.805   9.260  19.902  0.00  0.00    +0.000 C 
ATOM      8  C   UNL     1       1.734   8.425  19.111  0.00  0.00    +0.000 A 
ATOM      9  C   UNL     1       2.570   7.411  19.526  0.00  0.00    +0.000 A 
ATOM     10  N   UNL     1       3.269   6.989  18.415  0.00  0.00    +0.000 N 
ATOM     11  C   UNL     1       2.765   7.751  17.376  0.00  0.00    +0.000 A 
ATOM     12  N   UNL     1       1.865   8.623  17.765  0.00  0.00    +0.000 NA
ENDBRANCH   1  10
BRANCH   2  13
ATOM     13  C   UNL     1       6.137   7.168  16.941  0.00  0.00    +0.000 C 
ATOM     14  C   UNL     1       6.317   8.436  17.768  0.00  0.00    +0.000 C 
ATOM     15  C   UNL     1       7.789   8.694  17.579  0.00  0.00    +0.000 C 
ATOM     16  N   UNL     1       8.399   7.831  16.824  0.00  0.00    +0.000 NA
ATOM     17  N   UNL     1       7.506   6.852  16.553  0.00  0.00    +0.000 N 
ATOM     18  H   UNL     1       7.604   6.431  15.630  0.00  0.00    +0.000 HD
BRANCH  15  19
ATOM     19  C   UNL     1       8.455   9.861  18.210  0.00  0.00    +0.000 A 
ATOM     20  C   UNL     1       9.198   9.718  19.389  0.00  0.00    +0.000 A 
ATOM     21  C   UNL     1       9.839  10.822  19.960  0.00  0.00    +0.000 A 
ATOM     22  C   UNL     1       9.736  12.067  19.348  0.00  0.00    +0.000 A 
ATOM     23  C   UNL     1       9.007  12.224  18.176  0.00  0.00    +0.000 A 
ATOM     24  C   UNL     1       8.365  11.121  17.604  0.00  0.00    +0.000 A 
BRANCH  22  25
ATOM     25  O   UNL     1      10.348  13.166  19.874  0.00  0.00    +0.000 OA
ATOM     26  H   UNL     1       9.954  13.963  19.482  0.00  0.00    +0.000 HD
ENDBRANCH  22  25
ENDBRANCH  15  19
ENDBRANCH   2  13
BRANCH   6  27
ATOM     27  C   UNL     1       3.041   4.087  19.549  0.00  0.00    +0.000 A 
ATOM     28  C   UNL     1       2.075   3.558  18.679  0.00  0.00    +0.000 A 
ATOM     29  C   UNL     1       0.984   2.852  19.185  0.00  0.00    +0.000 A 
ATOM     30  C   UNL     1       0.835   2.689  20.561  0.00  0.00    +0.000 A 
ATOM     31  C   UNL     1       1.769   3.245  21.433  0.00  0.00    +0.000 A 
ATOM     32  C   UNL     1       2.865   3.953  20.933  0.00  0.00    +0.000 A 
ENDBRANCH   6  27
TORSDOF 5
ENDMDL
MODEL 5
REMARK VINA RESULT:      -7.2      1.349      1.644
REMARK  Name = 
REMARK  7 active torsions:
REMARK  status: ('A' for Active; 'I' for Inactive)
REMARK    1  A    between atoms: C_1  and  C_2
REMARK    2  A    between atoms: N_4  and  C_5
REMARK    3  A    between atoms: C_6  and  C_7
REMARK    4  A    between atoms: C_9  and  C_10
REMARK    5  A    between atoms: C_13  and  O_14
REMARK    6  A    between atoms: C_19  and  C_20
REMARK    7  A    between atoms: N_22  and  C_23
REMARK                            x       y       z     vdW  Elec       q    Type
REMARK                         _______ _______ _______ _____ _____    ______ ____
ROOT
ATOM      1  C   UNL     1      -1.838  11.821  19.941  0.00  0.00    +0.000 A 
ATOM      2  C   UNL     1      -0.971  11.159  19.068  0.00  0.00    +0.000 A 
ATOM      3  C   UNL     1      -1.864  10.582  18.105  0.00  0.00    +0.000 A 
ATOM      4  C   UNL     1      -1.601   9.751  16.897  0.00  0.00    +0.000 C 
ATOM      5  N   UNL     1      -3.145  10.821  18.403  0.00  0.00    +0.000 NA
ATOM      6  N   UNL     1      -3.119  11.705  19.422  0.00  0.00    +0.000 N 
ENDROOT
BRANCH   1  10
ATOM      7  C   UNL     1      -0.871  15.049  23.632  0.00  0.00    +0.000 C 
ATOM      8  C   UNL     1      -1.118  13.848  22.806  0.00  0.00    +0.000 A 
ATOM      9  C   UNL     1      -1.315  13.745  21.446  0.00  0.00    +0.000 A 
ATOM     10  N   UNL     1      -1.557  12.415  21.176  0.00  0.00    +0.000 N 
ATOM     11  C   UNL     1      -1.437  11.783  22.402  0.00  0.00    +0.000 A 
ATOM     12  N   UNL     1      -1.194  12.614  23.388  0.00  0.00    +0.000 NA
ENDBRANCH   1  10
BRANCH   2  13
ATOM     13  C   UNL     1       0.510  10.916  19.199  0.00  0.00    +0.000 C 
ATOM     14  C   UNL     1       0.840   9.530  19.744  0.00  0.00    +0.000 C 
ATOM     15  C   UNL     1       1.776   9.021  18.680  0.00  0.00    +0.000 C 
ATOM     16  N   UNL     1       2.001   9.854  17.709  0.00  0.00    +0.000 NA
ATOM     17  N   UNL     1       1.173  10.907  17.901  0.00  0.00    +0.000 N 
ATOM     18  H   UNL     1       1.554  11.805  17.607  0.00  0.00    +0.000 HD
BRANCH  15  19
ATOM     19  C   UNL     1       2.386   7.671  18.772  0.00  0.00    +0.000 A 
ATOM     20  C   UNL     1       2.118   6.829  19.860  0.00  0.00    +0.000 A 
ATOM     21  C   UNL     1       2.682   5.551  19.923  0.00  0.00    +0.000 A 
ATOM     22  C   UNL     1       3.512   5.117  18.895  0.00  0.00    +0.000 A 
ATOM     23  C   UNL     1       3.784   5.937  17.807  0.00  0.00    +0.000 A 
ATOM     24  C   UNL     1       3.221   7.216  17.743  0.00  0.00    +0.000 A 
BRANCH  22  25
ATOM     25  O   UNL     1       4.080   3.877  18.920  0.00  0.00    +0.000 OA
ATOM     26  H   UNL     1       4.188   3.599  19.843  0.00  0.00    +0.000 HD
ENDBRANCH  22  25
ENDBRANCH  15  19
ENDBRANCH   2  13
BRANCH   6  27
ATOM     27  C   UNL     1      -4.326  12.402  19.731  0.00  0.00    +0.000 A 
ATOM     28  C   UNL     1      -5.207  12.732  18.689  0.00  0.00    +0.000 A 
ATOM     29  C   UNL     1      -6.408  13.387  18.963  0.00  0.00    +0.000 A 
ATOM     30  C   UNL     1      -6.727  13.739  20.273  0.00  0.00    +0.000 A 
ATOM     31  C   UNL     1      -5.840  13.451  21.308  0.00  0.00    +0.000 A 
ATOM     32  C   UNL     1      -4.636  12.794  21.040  0.00  0.00    +0.000 A 
ENDBRANCH   6  27
TORSDOF 5
ENDMDL
MODEL 6
REMARK VINA RESULT:      -7.2      0.843      1.338
REMARK  Name = 
REMARK  7 active torsions:
REMARK  status: ('A' for Active; 'I' for Inactive)
REMARK    1  A    between atoms: C_1  and  C_2
REMARK    2  A    between atoms: N_4  and  C_5
REMARK    3  A    between atoms: C_6  and  C_7
REMARK    4  A    between atoms: C_9  and  C_10
REMARK    5  A    between atoms: C_13  and  O_14
REMARK    6  A    between atoms: C_19  and  C_20
REMARK    7  A    between atoms: N_22  and  C_23
REMARK                            x       y       z     vdW  Elec       q    Type
REMARK                         _______ _______ _______ _____ _____    ______ ____
ROOT
ATOM      1  C   UNL     1      -2.908  12.319  20.084  0.00  0.00    +0.000 A 
ATOM      2  C   UNL     1      -1.905  11.754  19.292  0.00  0.00    +0.000 A 
ATOM      3  C   UNL     1      -2.645  11.140  18.228  0.00  0.00    +0.000 A 
ATOM      4  C   UNL     1      -2.194  10.369  17.036  0.00  0.00    +0.000 C 
ATOM      5  N   UNL     1      -3.966  11.268  18.396  0.00  0.00    +0.000 NA
ATOM      6  N   UNL     1      -4.116  12.119  19.432  0.00  0.00    +0.000 N 
ENDROOT
BRANCH   1  10
ATOM      7  C   UNL     1      -2.483  15.493  23.923  0.00  0.00    +0.000 C 
ATOM      8  C   UNL     1      -2.604  14.303  23.052  0.00  0.00    +0.000 A 
ATOM      9  C   UNL     1      -2.612  14.222  21.676  0.00  0.00    +0.000 A 
ATOM     10  N   UNL     1      -2.805  12.895  21.356  0.00  0.00    +0.000 N 
ATOM     11  C   UNL     1      -2.850  12.244  22.576  0.00  0.00    +0.000 A 
ATOM     12  N   UNL     1      -2.751  13.060  23.599  0.00  0.00    +0.000 NA
ENDBRANCH   1  10
BRANCH   2  13
ATOM     13  C   UNL     1      -0.431  11.624  19.572  0.00  0.00    +0.000 C 
ATOM     14  C   UNL     1      -0.029  10.218  20.004  0.00  0.00    +0.000 C 
ATOM     15  C   UNL     1       1.062   9.915  19.012  0.00  0.00    +0.000 C 
ATOM     16  N   UNL     1       1.309  10.869  18.167  0.00  0.00    +0.000 NA
ATOM     17  N   UNL     1       0.367  11.820  18.368  0.00  0.00    +0.000 N 
ATOM     18  H   UNL     1       0.688  12.775  18.217  0.00  0.00    +0.000 HD
BRANCH  15  19
ATOM     19  C   UNL     1       1.787   8.619  19.034  0.00  0.00    +0.000 A 
ATOM     20  C   UNL     1       1.711   7.768  20.145  0.00  0.00    +0.000 A 
ATOM     21  C   UNL     1       2.380   6.540  20.143  0.00  0.00    +0.000 A 
ATOM     22  C   UNL     1       3.123   6.166  19.029  0.00  0.00    +0.000 A 
ATOM     23  C   UNL     1       3.204   6.996  17.918  0.00  0.00    +0.000 A 
ATOM     24  C   UNL     1       2.536   8.225  17.918  0.00  0.00    +0.000 A 
BRANCH  22  25
ATOM     25  O   UNL     1       3.789   4.977  18.989  0.00  0.00    +0.000 OA
ATOM     26  H   UNL     1       3.433   4.441  18.263  0.00  0.00    +0.000 HD
ENDBRANCH  22  25
ENDBRANCH  15  19
ENDBRANCH   2  13
BRANCH   6  27
ATOM     27  C   UNL     1      -5.400  12.711  19.628  0.00  0.00    +0.000 A 
ATOM     28  C   UNL     1      -6.209  12.245  20.677  0.00  0.00    +0.000 A 
ATOM     29  C   UNL     1      -7.457  12.824  20.913  0.00  0.00    +0.000 A 
ATOM     30  C   UNL     1      -7.916  13.851  20.091  0.00  0.00    +0.000 A 
ATOM     31  C   UNL     1      -7.136  14.292  19.025  0.00  0.00    +0.000 A 
ATOM     32  C   UNL     1      -5.885  13.718  18.784  0.00  0.00    +0.000 A 
ENDBRANCH   6  27
TORSDOF 5
ENDMDL
MODEL 7
REMARK VINA RESULT:      -7.2      3.933      7.294
REMARK  Name = 
REMARK  7 active torsions:
REMARK  status: ('A' for Active; 'I' for Inactive)
REMARK    1  A    between atoms: C_1  and  C_2
REMARK    2  A    between atoms: N_4  and  C_5
REMARK    3  A    between atoms: C_6  and  C_7
REMARK    4  A    between atoms: C_9  and  C_10
REMARK    5  A    between atoms: C_13  and  O_14
REMARK    6  A    between atoms: C_19  and  C_20
REMARK    7  A    between atoms: N_22  and  C_23
REMARK                            x       y       z     vdW  Elec       q    Type
REMARK                         _______ _______ _______ _____ _____    ______ ____
ROOT
ATOM      1  C   UNL     1      -4.343  14.599  23.116  0.00  0.00    +0.000 A 
ATOM      2  C   UNL     1      -5.609  14.652  22.525  0.00  0.00    +0.000 A 
ATOM      3  C   UNL     1      -6.308  15.595  23.350  0.00  0.00    +0.000 A 
ATOM      4  C   UNL     1      -7.700  16.119  23.277  0.00  0.00    +0.000 C 
ATOM      5  N   UNL     1      -5.557  16.021  24.372  0.00  0.00    +0.000 NA
ATOM      6  N   UNL     1      -4.319  15.540  24.134  0.00  0.00    +0.000 N 
ENDROOT
BRANCH   1  10
ATOM      7  C   UNL     1      -1.202  10.711  23.091  0.00  0.00    +0.000 C 
ATOM      8  C   UNL     1      -1.893  11.997  22.857  0.00  0.00    +0.000 A 
ATOM      9  C   UNL     1      -3.015  12.512  23.470  0.00  0.00    +0.000 A 
ATOM     10  N   UNL     1      -3.288  13.716  22.856  0.00  0.00    +0.000 N 
ATOM     11  C   UNL     1      -2.268  13.878  21.935  0.00  0.00    +0.000 A 
ATOM     12  N   UNL     1      -1.437  12.863  21.903  0.00  0.00    +0.000 NA
ENDBRANCH   1  10
BRANCH   2  13
ATOM     13  C   UNL     1      -6.187  13.792  21.433  0.00  0.00    +0.000 C 
ATOM     14  C   UNL     1      -5.394  13.867  20.133  0.00  0.00    +0.000 C 
ATOM     15  C   UNL     1      -5.119  12.408  19.882  0.00  0.00    +0.000 C 
ATOM     16  N   UNL     1      -5.608  11.600  20.774  0.00  0.00    +0.000 NA
ATOM     17  N   UNL     1      -6.111  12.374  21.764  0.00  0.00    +0.000 N 
ATOM     18  H   UNL     1      -6.939  11.994  22.221  0.00  0.00    +0.000 HD
BRANCH  15  19
ATOM     19  C   UNL     1      -4.355  11.961  18.690  0.00  0.00    +0.000 A 
ATOM     20  C   UNL     1      -2.968  11.769  18.751  0.00  0.00    +0.000 A 
ATOM     21  C   UNL     1      -2.264  11.326  17.627  0.00  0.00    +0.000 A 
ATOM     22  C   UNL     1      -2.950  11.075  16.444  0.00  0.00    +0.000 A 
ATOM     23  C   UNL     1      -4.325  11.257  16.368  0.00  0.00    +0.000 A 
ATOM     24  C   UNL     1      -5.031  11.700  17.491  0.00  0.00    +0.000 A 
BRANCH  22  25
ATOM     25  O   UNL     1      -2.300  10.641  15.327  0.00  0.00    +0.000 OA
ATOM     26  H   UNL     1      -1.780   9.853  15.551  0.00  0.00    +0.000 HD
ENDBRANCH  22  25
ENDBRANCH  15  19
ENDBRANCH   2  13
BRANCH   6  27
ATOM     27  C   UNL     1      -3.232  16.106  24.867  0.00  0.00    +0.000 A 
ATOM     28  C   UNL     1      -2.388  15.253  25.595  0.00  0.00    +0.000 A 
ATOM     29  C   UNL     1      -1.299  15.773  26.297  0.00  0.00    +0.000 A 
ATOM     30  C   UNL     1      -1.061  17.146  26.299  0.00  0.00    +0.000 A 
ATOM     31  C   UNL     1      -1.917  18.002  25.610  0.00  0.00    +0.000 A 
ATOM     32  C   UNL     1      -3.009  17.488  24.904  0.00  0.00    +0.000 A 
ENDBRANCH   6  27
TORSDOF 5
ENDMDL
MODEL 8
REMARK VINA RESULT:      -7.1      1.352      2.064
REMARK  Name = 
REMARK  7 active torsions:
REMARK  status: ('A' for Active; 'I' for Inactive)
REMARK    1  A    between atoms: C_1  and  C_2
REMARK    2  A    between atoms: N_4  and  C_5
REMARK    3  A    between atoms: C_6  and  C_7
REMARK    4  A    between atoms: C_9  and  C_10
REMARK    5  A    between atoms: C_13  and  O_14
REMARK    6  A    between atoms: C_19  and  C_20
REMARK    7  A    between atoms: N_22  and  C_23
REMARK                            x       y       z     vdW  Elec       q    Type
REMARK                         _______ _______ _______ _____ _____    ______ ____
ROOT
ATOM      1  C   UNL     1      -1.792  11.840  19.898  0.00  0.00    +0.000 A 
ATOM      2  C   UNL     1      -0.914  11.164  19.046  0.00  0.00    +0.000 A 
ATOM      3  C   UNL     1      -1.794  10.589  18.069  0.00  0.00    +0.000 A 
ATOM      4  C   UNL     1      -1.516   9.748  16.872  0.00  0.00    +0.000 C 
ATOM      5  N   UNL     1      -3.079  10.841  18.342  0.00  0.00    +0.000 NA
ATOM      6  N   UNL     1      -3.065  11.731  19.355  0.00  0.00    +0.000 N 
ENDROOT
BRANCH   1  10
ATOM      7  C   UNL     1      -0.889  15.085  23.591  0.00  0.00    +0.000 C 
ATOM      8  C   UNL     1      -1.119  13.879  22.766  0.00  0.00    +0.000 A 
ATOM      9  C   UNL     1      -1.299  13.771  21.403  0.00  0.00    +0.000 A 
ATOM     10  N   UNL     1      -1.530  12.439  21.135  0.00  0.00    +0.000 N 
ATOM     11  C   UNL     1      -1.421  11.812  22.363  0.00  0.00    +0.000 A 
ATOM     12  N   UNL     1      -1.195  12.647  23.350  0.00  0.00    +0.000 NA
ENDBRANCH   1  10
BRANCH   2  13
ATOM     13  C   UNL     1       0.561  10.909  19.206  0.00  0.00    +0.000 C 
ATOM     14  C   UNL     1       0.870   9.511  19.729  0.00  0.00    +0.000 C 
ATOM     15  C   UNL     1       1.828   9.018  18.677  0.00  0.00    +0.000 C 
ATOM     16  N   UNL     1       2.081   9.870  17.730  0.00  0.00    +0.000 NA
ATOM     17  N   UNL     1       1.255  10.924  17.925  0.00  0.00    +0.000 N 
ATOM     18  H   UNL     1       1.647  11.826  17.659  0.00  0.00    +0.000 HD
BRANCH  15  19
ATOM     19  C   UNL     1       2.428   7.663  18.755  0.00  0.00    +0.000 A 
ATOM     20  C   UNL     1       3.317   7.208  17.771  0.00  0.00    +0.000 A 
ATOM     21  C   UNL     1       3.893   5.938  17.869  0.00  0.00    +0.000 A 
ATOM     22  C   UNL     1       3.579   5.125  18.953  0.00  0.00    +0.000 A 
ATOM     23  C   UNL     1       2.704   5.562  19.939  0.00  0.00    +0.000 A 
ATOM     24  C   UNL     1       2.127   6.833  19.843  0.00  0.00    +0.000 A 
BRANCH  22  25
ATOM     25  O   UNL     1       4.121   3.880  19.085  0.00  0.00    +0.000 OA
ATOM     26  H   UNL     1       4.207   3.480  18.205  0.00  0.00    +0.000 HD
ENDBRANCH  22  25
ENDBRANCH  15  19
ENDBRANCH   2  13
BRANCH   6  27
ATOM     27  C   UNL     1      -4.271  12.441  19.637  0.00  0.00    +0.000 A 
ATOM     28  C   UNL     1      -4.558  12.793  20.965  0.00  0.00    +0.000 A 
ATOM     29  C   UNL     1      -5.715  13.513  21.268  0.00  0.00    +0.000 A 
ATOM     30  C   UNL     1      -6.603  13.866  20.254  0.00  0.00    +0.000 A 
ATOM     31  C   UNL     1      -6.344  13.487  18.938  0.00  0.00    +0.000 A 
ATOM     32  C   UNL     1      -5.187  12.766  18.628  0.00  0.00    +0.000 A 
ENDBRANCH   6  27
TORSDOF 5
ENDMDL
MODEL 9
REMARK VINA RESULT:      -7.1      1.517      3.639
REMARK  Name = 
REMARK  7 active torsions:
REMARK  status: ('A' for Active; 'I' for Inactive)
REMARK    1  A    between atoms: C_1  and  C_2
REMARK    2  A    between atoms: N_4  and  C_5
REMARK    3  A    between atoms: C_6  and  C_7
REMARK    4  A    between atoms: C_9  and  C_10
REMARK    5  A    between atoms: C_13  and  O_14
REMARK    6  A    between atoms: C_19  and  C_20
REMARK    7  A    between atoms: N_22  and  C_23
REMARK                            x       y       z     vdW  Elec       q    Type
REMARK                         _______ _______ _______ _____ _____    ______ ____
ROOT
ATOM      1  C   UNL     1      -3.176  12.541  20.869  0.00  0.00    +0.000 A 
ATOM      2  C   UNL     1      -2.574  12.417  22.124  0.00  0.00    +0.000 A 
ATOM      3  C   UNL     1      -3.461  13.153  22.979  0.00  0.00    +0.000 A 
ATOM      4  C   UNL     1      -3.417  13.417  24.444  0.00  0.00    +0.000 C 
ATOM      5  N   UNL     1      -4.463  13.717  22.295  0.00  0.00    +0.000 NA
ATOM      6  N   UNL     1      -4.377  13.211  21.047  0.00  0.00    +0.000 N 
ENDROOT
BRANCH   1  10
ATOM      7  C   UNL     1      -2.319  10.335  16.466  0.00  0.00    +0.000 C 
ATOM      8  C   UNL     1      -2.288  11.194  17.669  0.00  0.00    +0.000 A 
ATOM      9  C   UNL     1      -3.044  11.118  18.820  0.00  0.00    +0.000 A 
ATOM     10  N   UNL     1      -2.672  12.182  19.614  0.00  0.00    +0.000 N 
ATOM     11  C   UNL     1      -1.664  12.811  18.904  0.00  0.00    +0.000 A 
ATOM     12  N   UNL     1      -1.430  12.255  17.739  0.00  0.00    +0.000 NA
ENDBRANCH   1  10
BRANCH   2  13
ATOM     13  C   UNL     1      -1.229  11.844  22.483  0.00  0.00    +0.000 C 
ATOM     14  C   UNL     1      -0.976  10.477  21.858  0.00  0.00    +0.000 C 
ATOM     15  C   UNL     1       0.333  10.722  21.156  0.00  0.00    +0.000 C 
ATOM     16  N   UNL     1       0.809  11.922  21.295  0.00  0.00    +0.000 NA
ATOM     17  N   UNL     1      -0.138  12.643  21.938  0.00  0.00    +0.000 N 
ATOM     18  H   UNL     1       0.226  13.358  22.566  0.00  0.00    +0.000 HD
BRANCH  15  19
ATOM     19  C   UNL     1       1.006   9.647  20.384  0.00  0.00    +0.000 A 
ATOM     20  C   UNL     1       1.358   8.434  20.990  0.00  0.00    +0.000 A 
ATOM     21  C   UNL     1       1.972   7.421  20.245  0.00  0.00    +0.000 A 
ATOM     22  C   UNL     1       2.230   7.625  18.894  0.00  0.00    +0.000 A 
ATOM     23  C   UNL     1       1.883   8.821  18.277  0.00  0.00    +0.000 A 
ATOM     24  C   UNL     1       1.270   9.835  19.020  0.00  0.00    +0.000 A 
BRANCH  22  25
ATOM     25  O   UNL     1       2.825   6.662  18.134  0.00  0.00    +0.000 OA
ATOM     26  H   UNL     1       3.661   7.010  17.783  0.00  0.00    +0.000 HD
ENDBRANCH  22  25
ENDBRANCH  15  19
ENDBRANCH   2  13
BRANCH   6  27
ATOM     27  C   UNL     1      -5.505  13.365  20.186  0.00  0.00    +0.000 A 
ATOM     28  C   UNL     1      -6.300  12.243  19.902  0.00  0.00    +0.000 A 
ATOM     29  C   UNL     1      -7.427  12.368  19.088  0.00  0.00    +0.000 A 
ATOM     30  C   UNL     1      -7.754  13.604  18.533  0.00  0.00    +0.000 A 
ATOM     31  C   UNL     1      -6.948  14.713  18.779  0.00  0.00    +0.000 A 
ATOM     32  C   UNL     1      -5.819  14.595  19.595  0.00  0.00    +0.000 A 
ENDBRANCH   6  27
TORSDOF 5
ENDMDL
