MODEL 1
REMARK VINA RESULT:      -8.2      0.000      0.000
REMARK  Name = 
REMARK  6 active torsions:
REMARK  status: ('A' for Active; 'I' for Inactive)
REMARK    1  A    between atoms: C_2  and  C_3
REMARK    2  A    between atoms: C_3  and  C_4
REMARK    3  A    between atoms: C_4  and  C_5
REMARK    4  A    between atoms: N_7  and  C_8
REMARK    5  A    between atoms: N_18  and  N_19
REMARK    6  A    between atoms: C_20  and  C_21
REMARK                            x       y       z     vdW  Elec       q    Type
REMARK                         _______ _______ _______ _____ _____    ______ ____
ROOT
ATOM      1  C   UNL     1       6.210   4.685  17.937  0.00  0.00    +0.000 C 
ATOM      2  O   UNL     1       6.565   4.402  19.080  0.00  0.00    +0.000 OA
ATOM      3  N   UNL     1       4.985   4.361  17.366  0.00  0.00    +0.000 N 
ATOM      4  H   UNL     1       4.904   4.478  16.366  0.00  0.00    +0.000 HD
ENDROOT
BRANCH   3   5
ATOM      5  C   UNL     1       3.915   3.692  18.036  0.00  0.00    +0.000 A 
ATOM      6  C   UNL     1       3.698   2.323  17.812  0.00  0.00    +0.000 A 
ATOM      7  C   UNL     1       2.622   1.651  18.384  0.00  0.00    +0.000 A 
ATOM      8  C   UNL     1       1.749   2.333  19.213  0.00  0.00    +0.000 A 
ATOM      9  C   UNL     1       1.951   3.686  19.505  0.00  0.00    +0.000 A 
ATOM     10  C   UNL     1       1.046   4.329  20.363  0.00  0.00    +0.000 A 
ATOM     11  C   UNL     1       1.197   5.672  20.689  0.00  0.00    +0.000 A 
ATOM     12  C   UNL     1       2.262   6.387  20.162  0.00  0.00    +0.000 A 
ATOM     13  C   UNL     1       3.173   5.763  19.298  0.00  0.00    +0.000 A 
ATOM     14  C   UNL     1       3.049   4.395  18.935  0.00  0.00    +0.000 A 
ENDBRANCH   3   5
BRANCH   1  15
ATOM     15  C   UNL     1       7.156   5.425  17.010  0.00  0.00    +0.000 C 
BRANCH  15  16
ATOM     16  C   UNL     1       6.912   6.933  17.135  0.00  0.00    +0.000 C 
BRANCH  16  18
ATOM     17  O   UNL     1       8.491   7.012  18.943  0.00  0.00    +0.000 OA
ATOM     18  C   UNL     1       7.874   7.620  18.075  0.00  0.00    +0.000 C 
ATOM     19  N   UNL     1       7.954   8.989  17.831  0.00  0.00    +0.000 N 
ATOM     20  H   UNL     1       7.397   9.416  17.095  0.00  0.00    +0.000 HD
BRANCH  19  21
ATOM     21  N   UNL     1       8.775   9.760  18.600  0.00  0.00    +0.000 NA
ATOM     22  C   UNL     1       9.346  10.769  18.021  0.00  0.00    +0.000 C 
BRANCH  22  23
ATOM     23  C   UNL     1      10.216  11.630  18.771  0.00  0.00    +0.000 A 
ATOM     24  C   UNL     1      11.553  11.525  19.102  0.00  0.00    +0.000 A 
ATOM     25  C   UNL     1      11.871  12.666  19.877  0.00  0.00    +0.000 A 
ATOM     26  C   UNL     1      10.711  13.399  19.967  0.00  0.00    +0.000 A 
ATOM     27  O   UNL     1       9.701  12.783  19.297  0.00  0.00    +0.000 OA
ENDBRANCH  22  23
ENDBRANCH  19  21
ENDBRANCH  16  18
ENDBRANCH  15  16
ENDBRANCH   1  15
TORSDOF 6
ENDMDL
MODEL 2
REMARK VINA RESULT:      -8.2      5.084      7.077
REMARK  Name = 
REMARK  6 active torsions:
REMARK  status: ('A' for Active; 'I' for Inactive)
REMARK    1  A    between atoms: C_2  and  C_3
REMARK    2  A    between atoms: C_3  and  C_4
REMARK    3  A    between atoms: C_4  and  C_5
REMARK    4  A    between atoms: N_7  and  C_8
REMARK    5  A    between atoms: N_18  and  N_19
REMARK    6  A    between atoms: C_20  and  C_21
REMARK                            x       y       z     vdW  Elec       q    Type
REMARK                         _______ _______ _______ _____ _____    ______ ____
ROOT
ATOM      1  C   UNL     1       1.766   4.910  20.802  0.00  0.00    +0.000 C 
ATOM      2  O   UNL     1       0.679   4.695  20.268  0.00  0.00    +0.000 OA
ATOM      3  N   UNL     1       2.558   6.034  20.603  0.00  0.00    +0.000 N 
ATOM      4  H   UNL     1       3.507   5.989  20.947  0.00  0.00    +0.000 HD
ENDROOT
BRANCH   3   5
ATOM      5  C   UNL     1       2.212   7.151  19.783  0.00  0.00    +0.000 A 
ATOM      6  C   UNL     1       2.614   7.184  18.438  0.00  0.00    +0.000 A 
ATOM      7  C   UNL     1       2.364   8.285  17.627  0.00  0.00    +0.000 A 
ATOM      8  C   UNL     1       1.683   9.376  18.141  0.00  0.00    +0.000 A 
ATOM      9  C   UNL     1       1.220   9.371  19.461  0.00  0.00    +0.000 A 
ATOM     10  C   UNL     1       0.523  10.495  19.930  0.00  0.00    +0.000 A 
ATOM     11  C   UNL     1       0.038  10.547  21.231  0.00  0.00    +0.000 A 
ATOM     12  C   UNL     1       0.243   9.468  22.080  0.00  0.00    +0.000 A 
ATOM     13  C   UNL     1       0.943   8.339  21.630  0.00  0.00    +0.000 A 
ATOM     14  C   UNL     1       1.460   8.251  20.310  0.00  0.00    +0.000 A 
ENDBRANCH   3   5
BRANCH   1  15
ATOM     15  C   UNL     1       2.361   3.884  21.749  0.00  0.00    +0.000 C 
BRANCH  15  16
ATOM     16  C   UNL     1       2.371   2.510  21.068  0.00  0.00    +0.000 C 
BRANCH  16  18
ATOM     17  O   UNL     1       2.601   1.996  18.734  0.00  0.00    +0.000 OA
ATOM     18  C   UNL     1       3.084   2.507  19.738  0.00  0.00    +0.000 C 
ATOM     19  N   UNL     1       4.325   3.136  19.811  0.00  0.00    +0.000 N 
ATOM     20  H   UNL     1       4.657   3.526  20.689  0.00  0.00    +0.000 HD
BRANCH  19  21
ATOM     21  N   UNL     1       5.104   3.212  18.694  0.00  0.00    +0.000 NA
ATOM     22  C   UNL     1       4.984   4.277  17.965  0.00  0.00    +0.000 C 
BRANCH  22  23
ATOM     23  C   UNL     1       5.780   4.430  16.779  0.00  0.00    +0.000 A 
ATOM     24  C   UNL     1       6.819   5.287  16.472  0.00  0.00    +0.000 A 
ATOM     25  C   UNL     1       7.206   4.997  15.143  0.00  0.00    +0.000 A 
ATOM     26  C   UNL     1       6.385   3.978  14.721  0.00  0.00    +0.000 A 
ATOM     27  O   UNL     1       5.518   3.623  15.707  0.00  0.00    +0.000 OA
ENDBRANCH  22  23
ENDBRANCH  19  21
ENDBRANCH  16  18
ENDBRANCH  15  16
ENDBRANCH   1  15
TORSDOF 6
ENDMDL
MODEL 3
REMARK VINA RESULT:      -8.1      3.799      6.834
REMARK  Name = 
REMARK  6 active torsions:
REMARK  status: ('A' for Active; 'I' for Inactive)
REMARK    1  A    between atoms: C_2  and  C_3
REMARK    2  A    between atoms: C_3  and  C_4
REMARK    3  A    between atoms: C_4  and  C_5
REMARK    4  A    between atoms: N_7  and  C_8
REMARK    5  A    between atoms: N_18  and  N_19
REMARK    6  A    between atoms: C_20  and  C_21
REMARK                            x       y       z     vdW  Elec       q    Type
REMARK                         _______ _______ _______ _____ _____    ______ ____
ROOT
ATOM      1  C   UNL     1       6.205   5.467  19.099  0.00  0.00    +0.000 C 
ATOM      2  O   UNL     1       6.379   4.790  20.111  0.00  0.00    +0.000 OA
ATOM      3  N   UNL     1       4.973   5.800  18.551  0.00  0.00    +0.000 N 
ATOM      4  H   UNL     1       4.980   6.189  17.618  0.00  0.00    +0.000 HD
ENDROOT
BRANCH   3   5
ATOM      5  C   UNL     1       3.703   5.454  19.106  0.00  0.00    +0.000 A 
ATOM      6  C   UNL     1       2.989   6.397  19.862  0.00  0.00    +0.000 A 
ATOM      7  C   UNL     1       1.787   6.078  20.483  0.00  0.00    +0.000 A 
ATOM      8  C   UNL     1       1.258   4.806  20.342  0.00  0.00    +0.000 A 
ATOM      9  C   UNL     1       1.907   3.846  19.558  0.00  0.00    +0.000 A 
ATOM     10  C   UNL     1       1.323   2.575  19.435  0.00  0.00    +0.000 A 
ATOM     11  C   UNL     1       1.922   1.582  18.670  0.00  0.00    +0.000 A 
ATOM     12  C   UNL     1       3.115   1.852  18.013  0.00  0.00    +0.000 A 
ATOM     13  C   UNL     1       3.716   3.113  18.130  0.00  0.00    +0.000 A 
ATOM     14  C   UNL     1       3.138   4.152  18.908  0.00  0.00    +0.000 A 
ENDBRANCH   3   5
BRANCH   1  15
ATOM     15  C   UNL     1       7.398   5.990  18.322  0.00  0.00    +0.000 C 
BRANCH  15  16
ATOM     16  C   UNL     1       6.931   7.073  17.342  0.00  0.00    +0.000 C 
BRANCH  16  18
ATOM     17  O   UNL     1       5.306   6.786  15.597  0.00  0.00    +0.000 OA
ATOM     18  C   UNL     1       6.419   6.517  16.036  0.00  0.00    +0.000 C 
ATOM     19  N   UNL     1       7.352   5.681  15.424  0.00  0.00    +0.000 N 
ATOM     20  H   UNL     1       8.251   5.502  15.862  0.00  0.00    +0.000 HD
BRANCH  19  21
ATOM     21  N   UNL     1       7.042   5.089  14.235  0.00  0.00    +0.000 NA
ATOM     22  C   UNL     1       6.105   4.193  14.251  0.00  0.00    +0.000 C 
BRANCH  22  23
ATOM     23  C   UNL     1       5.720   3.534  13.035  0.00  0.00    +0.000 A 
ATOM     24  C   UNL     1       4.523   3.500  12.346  0.00  0.00    +0.000 A 
ATOM     25  C   UNL     1       4.726   2.668  11.220  0.00  0.00    +0.000 A 
ATOM     26  C   UNL     1       6.034   2.249  11.287  0.00  0.00    +0.000 A 
ATOM     27  O   UNL     1       6.648   2.771  12.382  0.00  0.00    +0.000 OA
ENDBRANCH  22  23
ENDBRANCH  19  21
ENDBRANCH  16  18
ENDBRANCH  15  16
ENDBRANCH   1  15
TORSDOF 6
ENDMDL
MODEL 4
REMARK VINA RESULT:      -8.1      0.755      2.223
REMARK  Name = 
REMARK  6 active torsions:
REMARK  status: ('A' for Active; 'I' for Inactive)
REMARK    1  A    between atoms: C_2  and  C_3
REMARK    2  A    between atoms: C_3  and  C_4
REMARK    3  A    between atoms: C_4  and  C_5
REMARK    4  A    between atoms: N_7  and  C_8
REMARK    5  A    between atoms: N_18  and  N_19
REMARK    6  A    between atoms: C_20  and  C_21
REMARK                            x       y       z     vdW  Elec       q    Type
REMARK                         _______ _______ _______ _____ _____    ______ ____
ROOT
ATOM      1  C   UNL     1       5.944   4.909  18.202  0.00  0.00    +0.000 C 
ATOM      2  O   UNL     1       6.168   4.172  19.161  0.00  0.00    +0.000 OA
ATOM      3  N   UNL     1       4.726   5.510  17.910  0.00  0.00    +0.000 N 
ATOM      4  H   UNL     1       4.631   5.924  16.994  0.00  0.00    +0.000 HD
ENDROOT
BRANCH   3   5
ATOM      5  C   UNL     1       3.546   5.412  18.709  0.00  0.00    +0.000 A 
ATOM      6  C   UNL     1       3.161   6.489  19.523  0.00  0.00    +0.000 A 
ATOM      7  C   UNL     1       2.063   6.408  20.373  0.00  0.00    +0.000 A 
ATOM      8  C   UNL     1       1.309   5.247  20.411  0.00  0.00    +0.000 A 
ATOM      9  C   UNL     1       1.625   4.164  19.584  0.00  0.00    +0.000 A 
ATOM     10  C   UNL     1       0.821   3.015  19.650  0.00  0.00    +0.000 A 
ATOM     11  C   UNL     1       1.085   1.908  18.851  0.00  0.00    +0.000 A 
ATOM     12  C   UNL     1       2.158   1.942  17.972  0.00  0.00    +0.000 A 
ATOM     13  C   UNL     1       2.975   3.078  17.897  0.00  0.00    +0.000 A 
ATOM     14  C   UNL     1       2.742   4.226  18.701  0.00  0.00    +0.000 A 
ENDBRANCH   3   5
BRANCH   1  15
ATOM     15  C   UNL     1       7.044   5.203  17.200  0.00  0.00    +0.000 C 
BRANCH  15  16
ATOM     16  C   UNL     1       7.115   6.715  16.955  0.00  0.00    +0.000 C 
BRANCH  16  18
ATOM     17  O   UNL     1       8.371   6.897  18.994  0.00  0.00    +0.000 OA
ATOM     18  C   UNL     1       7.909   7.455  18.005  0.00  0.00    +0.000 C 
ATOM     19  N   UNL     1       8.032   8.811  17.706  0.00  0.00    +0.000 N 
ATOM     20  H   UNL     1       7.607   9.196  16.866  0.00  0.00    +0.000 HD
BRANCH  19  21
ATOM     21  N   UNL     1       8.715   9.626  18.560  0.00  0.00    +0.000 NA
ATOM     22  C   UNL     1       8.935  10.839  18.164  0.00  0.00    +0.000 C 
BRANCH  22  23
ATOM     23  C   UNL     1       9.640  11.757  19.014  0.00  0.00    +0.000 A 
ATOM     24  C   UNL     1      10.323  11.573  20.201  0.00  0.00    +0.000 A 
ATOM     25  C   UNL     1      10.799  12.845  20.598  0.00  0.00    +0.000 A 
ATOM     26  C   UNL     1      10.384  13.726  19.627  0.00  0.00    +0.000 A 
ATOM     27  O   UNL     1       9.684  13.077  18.659  0.00  0.00    +0.000 OA
ENDBRANCH  22  23
ENDBRANCH  19  21
ENDBRANCH  16  18
ENDBRANCH  15  16
ENDBRANCH   1  15
TORSDOF 6
ENDMDL
MODEL 5
REMARK VINA RESULT:      -7.9      1.225      1.279
REMARK  Name = 
REMARK  6 active torsions:
REMARK  status: ('A' for Active; 'I' for Inactive)
REMARK    1  A    between atoms: C_2  and  C_3
REMARK    2  A    between atoms: C_3  and  C_4
REMARK    3  A    between atoms: C_4  and  C_5
REMARK    4  A    between atoms: N_7  and  C_8
REMARK    5  A    between atoms: N_18  and  N_19
REMARK    6  A    between atoms: C_20  and  C_21
REMARK                            x       y       z     vdW  Elec       q    Type
REMARK                         _______ _______ _______ _____ _____    ______ ____
ROOT
ATOM      1  C   UNL     1       5.879   4.926  17.119  0.00  0.00    +0.000 C 
ATOM      2  O   UNL     1       5.098   5.373  16.281  0.00  0.00    +0.000 OA
ATOM      3  N   UNL     1       5.551   4.047  18.143  0.00  0.00    +0.000 N 
ATOM      4  H   UNL     1       6.240   3.918  18.871  0.00  0.00    +0.000 HD
ENDROOT
BRANCH   3   5
ATOM      5  C   UNL     1       4.258   3.477  18.358  0.00  0.00    +0.000 A 
ATOM      6  C   UNL     1       3.937   2.236  17.785  0.00  0.00    +0.000 A 
ATOM      7  C   UNL     1       2.667   1.682  17.905  0.00  0.00    +0.000 A 
ATOM      8  C   UNL     1       1.691   2.352  18.624  0.00  0.00    +0.000 A 
ATOM      9  C   UNL     1       1.977   3.568  19.254  0.00  0.00    +0.000 A 
ATOM     10  C   UNL     1       0.957   4.201  19.982  0.00  0.00    +0.000 A 
ATOM     11  C   UNL     1       1.183   5.410  20.629  0.00  0.00    +0.000 A 
ATOM     12  C   UNL     1       2.437   5.999  20.558  0.00  0.00    +0.000 A 
ATOM     13  C   UNL     1       3.465   5.385  19.830  0.00  0.00    +0.000 A 
ATOM     14  C   UNL     1       3.273   4.153  19.149  0.00  0.00    +0.000 A 
ENDBRANCH   3   5
BRANCH   1  15
ATOM     15  C   UNL     1       7.335   5.353  17.103  0.00  0.00    +0.000 C 
BRANCH  15  16
ATOM     16  C   UNL     1       7.616   6.242  18.320  0.00  0.00    +0.000 C 
BRANCH  16  18
ATOM     17  O   UNL     1       7.513   8.187  16.916  0.00  0.00    +0.000 OA
ATOM     18  C   UNL     1       7.912   7.677  17.957  0.00  0.00    +0.000 C 
ATOM     19  N   UNL     1       8.677   8.314  18.931  0.00  0.00    +0.000 N 
ATOM     20  H   UNL     1       8.976   7.813  19.764  0.00  0.00    +0.000 HD
BRANCH  19  21
ATOM     21  N   UNL     1       9.039   9.617  18.753  0.00  0.00    +0.000 NA
ATOM     22  C   UNL     1       9.363  10.288  19.813  0.00  0.00    +0.000 C 
BRANCH  22  23
ATOM     23  C   UNL     1       9.764  11.662  19.700  0.00  0.00    +0.000 A 
ATOM     24  C   UNL     1      10.474  12.486  20.551  0.00  0.00    +0.000 A 
ATOM     25  C   UNL     1      10.549  13.752  19.923  0.00  0.00    +0.000 A 
ATOM     26  C   UNL     1       9.886  13.622  18.725  0.00  0.00    +0.000 A 
ATOM     27  O   UNL     1       9.409  12.357  18.577  0.00  0.00    +0.000 OA
ENDBRANCH  22  23
ENDBRANCH  19  21
ENDBRANCH  16  18
ENDBRANCH  15  16
ENDBRANCH   1  15
TORSDOF 6
ENDMDL
MODEL 6
REMARK VINA RESULT:      -7.9      1.115      1.256
REMARK  Name = 
REMARK  6 active torsions:
REMARK  status: ('A' for Active; 'I' for Inactive)
REMARK    1  A    between atoms: C_2  and  C_3
REMARK    2  A    between atoms: C_3  and  C_4
REMARK    3  A    between atoms: C_4  and  C_5
REMARK    4  A    between atoms: N_7  and  C_8
REMARK    5  A    between atoms: N_18  and  N_19
REMARK    6  A    between atoms: C_20  and  C_21
REMARK                            x       y       z     vdW  Elec       q    Type
REMARK                         _______ _______ _______ _____ _____    ______ ____
ROOT
ATOM      1  C   UNL     1       6.394   5.157  18.290  0.00  0.00    +0.000 C 
ATOM      2  O   UNL     1       6.679   4.772  19.423  0.00  0.00    +0.000 OA
ATOM      3  N   UNL     1       5.262   4.791  17.573  0.00  0.00    +0.000 N 
ATOM      4  H   UNL     1       5.252   5.020  16.589  0.00  0.00    +0.000 HD
ENDROOT
BRANCH   3   5
ATOM      5  C   UNL     1       4.215   3.947  18.057  0.00  0.00    +0.000 A 
ATOM      6  C   UNL     1       4.161   2.602  17.660  0.00  0.00    +0.000 A 
ATOM      7  C   UNL     1       3.118   1.767  18.046  0.00  0.00    +0.000 A 
ATOM      8  C   UNL     1       2.113   2.258  18.863  0.00  0.00    +0.000 A 
ATOM      9  C   UNL     1       2.148   3.578  19.324  0.00  0.00    +0.000 A 
ATOM     10  C   UNL     1       1.113   4.023  20.161  0.00  0.00    +0.000 A 
ATOM     11  C   UNL     1       1.096   5.323  20.651  0.00  0.00    +0.000 A 
ATOM     12  C   UNL     1       2.121   6.194  20.311  0.00  0.00    +0.000 A 
ATOM     13  C   UNL     1       3.160   5.769  19.472  0.00  0.00    +0.000 A 
ATOM     14  C   UNL     1       3.210   4.450  18.945  0.00  0.00    +0.000 A 
ENDBRANCH   3   5
BRANCH   1  15
ATOM     15  C   UNL     1       7.331   6.090  17.548  0.00  0.00    +0.000 C 
BRANCH  15  16
ATOM     16  C   UNL     1       8.048   6.997  18.555  0.00  0.00    +0.000 C 
BRANCH  16  18
ATOM     17  O   UNL     1       7.509   8.859  17.137  0.00  0.00    +0.000 OA
ATOM     18  C   UNL     1       8.110   8.441  18.121  0.00  0.00    +0.000 C 
ATOM     19  N   UNL     1       8.920   9.203  18.961  0.00  0.00    +0.000 N 
ATOM     20  H   UNL     1       9.392   8.775  19.753  0.00  0.00    +0.000 HD
BRANCH  19  21
ATOM     21  N   UNL     1       9.090  10.532  18.703  0.00  0.00    +0.000 NA
ATOM     22  C   UNL     1      10.305  10.945  18.522  0.00  0.00    +0.000 C 
BRANCH  22  23
ATOM     23  C   UNL     1      10.559  12.329  18.237  0.00  0.00    +0.000 A 
ATOM     24  C   UNL     1      10.992  12.968  17.091  0.00  0.00    +0.000 A 
ATOM     25  C   UNL     1      11.083  14.345  17.404  0.00  0.00    +0.000 A 
ATOM     26  C   UNL     1      10.695  14.463  18.718  0.00  0.00    +0.000 A 
ATOM     27  O   UNL     1      10.372  13.247  19.233  0.00  0.00    +0.000 OA
ENDBRANCH  22  23
ENDBRANCH  19  21
ENDBRANCH  16  18
ENDBRANCH  15  16
ENDBRANCH   1  15
TORSDOF 6
ENDMDL
MODEL 7
REMARK VINA RESULT:      -7.8      1.459      2.641
REMARK  Name = 
REMARK  6 active torsions:
REMARK  status: ('A' for Active; 'I' for Inactive)
REMARK    1  A    between atoms: C_2  and  C_3
REMARK    2  A    between atoms: C_3  and  C_4
REMARK    3  A    between atoms: C_4  and  C_5
REMARK    4  A    between atoms: N_7  and  C_8
REMARK    5  A    between atoms: N_18  and  N_19
REMARK    6  A    between atoms: C_20  and  C_21
REMARK                            x       y       z     vdW  Elec       q    Type
REMARK                         _______ _______ _______ _____ _____    ______ ____
ROOT
ATOM      1  C   UNL     1       4.339   7.045  17.289  0.00  0.00    +0.000 C 
ATOM      2  O   UNL     1       3.402   7.817  17.092  0.00  0.00    +0.000 OA
ATOM      3  N   UNL     1       4.328   5.965  18.162  0.00  0.00    +0.000 N 
ATOM      4  H   UNL     1       5.220   5.540  18.373  0.00  0.00    +0.000 HD
ENDROOT
BRANCH   3   5
ATOM      5  C   UNL     1       3.203   5.541  18.935  0.00  0.00    +0.000 A 
ATOM      6  C   UNL     1       2.630   6.414  19.874  0.00  0.00    +0.000 A 
ATOM      7  C   UNL     1       1.585   6.016  20.699  0.00  0.00    +0.000 A 
ATOM      8  C   UNL     1       1.072   4.734  20.587  0.00  0.00    +0.000 A 
ATOM      9  C   UNL     1       1.577   3.844  19.634  0.00  0.00    +0.000 A 
ATOM     10  C   UNL     1       1.013   2.561  19.551  0.00  0.00    +0.000 A 
ATOM     11  C   UNL     1       1.474   1.634  18.623  0.00  0.00    +0.000 A 
ATOM     12  C   UNL     1       2.504   1.984  17.762  0.00  0.00    +0.000 A 
ATOM     13  C   UNL     1       3.083   3.259  17.835  0.00  0.00    +0.000 A 
ATOM     14  C   UNL     1       2.645   4.231  18.774  0.00  0.00    +0.000 A 
ENDBRANCH   3   5
BRANCH   1  15
ATOM     15  C   UNL     1       5.658   7.255  16.569  0.00  0.00    +0.000 C 
BRANCH  15  16
ATOM     16  C   UNL     1       6.695   6.264  17.111  0.00  0.00    +0.000 C 
BRANCH  16  18
ATOM     17  O   UNL     1       8.152   6.240  19.020  0.00  0.00    +0.000 OA
ATOM     18  C   UNL     1       7.651   6.881  18.103  0.00  0.00    +0.000 C 
ATOM     19  N   UNL     1       7.872   8.232  17.843  0.00  0.00    +0.000 N 
ATOM     20  H   UNL     1       7.406   8.692  17.064  0.00  0.00    +0.000 HD
BRANCH  19  21
ATOM     21  N   UNL     1       8.707   8.943  18.654  0.00  0.00    +0.000 NA
ATOM     22  C   UNL     1       8.973  10.161  18.301  0.00  0.00    +0.000 C 
BRANCH  22  23
ATOM     23  C   UNL     1       9.838  10.972  19.111  0.00  0.00    +0.000 A 
ATOM     24  C   UNL     1      11.104  11.477  18.887  0.00  0.00    +0.000 A 
ATOM     25  C   UNL     1      11.469  12.191  20.052  0.00  0.00    +0.000 A 
ATOM     26  C   UNL     1      10.403  12.084  20.914  0.00  0.00    +0.000 A 
ATOM     27  O   UNL     1       9.406  11.350  20.353  0.00  0.00    +0.000 OA
ENDBRANCH  22  23
ENDBRANCH  19  21
ENDBRANCH  16  18
ENDBRANCH  15  16
ENDBRANCH   1  15
TORSDOF 6
ENDMDL
MODEL 8
REMARK VINA RESULT:      -7.8      1.357      2.605
REMARK  Name = 
REMARK  6 active torsions:
REMARK  status: ('A' for Active; 'I' for Inactive)
REMARK    1  A    between atoms: C_2  and  C_3
REMARK    2  A    between atoms: C_3  and  C_4
REMARK    3  A    between atoms: C_4  and  C_5
REMARK    4  A    between atoms: N_7  and  C_8
REMARK    5  A    between atoms: N_18  and  N_19
REMARK    6  A    between atoms: C_20  and  C_21
REMARK                            x       y       z     vdW  Elec       q    Type
REMARK                         _______ _______ _______ _____ _____    ______ ____
ROOT
ATOM      1  C   UNL     1       5.764   5.865  18.534  0.00  0.00    +0.000 C 
ATOM      2  O   UNL     1       6.112   5.306  19.573  0.00  0.00    +0.000 OA
ATOM      3  N   UNL     1       4.453   6.084  18.132  0.00  0.00    +0.000 N 
ATOM      4  H   UNL     1       4.312   6.372  17.174  0.00  0.00    +0.000 HD
ENDROOT
BRANCH   3   5
ATOM      5  C   UNL     1       3.291   5.742  18.890  0.00  0.00    +0.000 A 
ATOM      6  C   UNL     1       2.738   6.676  19.781  0.00  0.00    +0.000 A 
ATOM      7  C   UNL     1       1.654   6.359  20.593  0.00  0.00    +0.000 A 
ATOM      8  C   UNL     1       1.083   5.100  20.514  0.00  0.00    +0.000 A 
ATOM      9  C   UNL     1       1.568   4.151  19.607  0.00  0.00    +0.000 A 
ATOM     10  C   UNL     1       0.945   2.894  19.556  0.00  0.00    +0.000 A 
ATOM     11  C   UNL     1       1.382   1.913  18.674  0.00  0.00    +0.000 A 
ATOM     12  C   UNL     1       2.449   2.182  17.828  0.00  0.00    +0.000 A 
ATOM     13  C   UNL     1       3.087   3.429  17.870  0.00  0.00    +0.000 A 
ATOM     14  C   UNL     1       2.674   4.455  18.761  0.00  0.00    +0.000 A 
ENDBRANCH   3   5
BRANCH   1  15
ATOM     15  C   UNL     1       6.811   6.354  17.550  0.00  0.00    +0.000 C 
BRANCH  15  16
ATOM     16  C   UNL     1       8.005   6.927  18.323  0.00  0.00    +0.000 C 
BRANCH  16  18
ATOM     17  O   UNL     1       7.584   9.052  17.286  0.00  0.00    +0.000 OA
ATOM     18  C   UNL     1       8.156   8.421  18.168  0.00  0.00    +0.000 C 
ATOM     19  N   UNL     1       9.009   8.961  19.129  0.00  0.00    +0.000 N 
ATOM     20  H   UNL     1       9.452   8.363  19.822  0.00  0.00    +0.000 HD
BRANCH  19  21
ATOM     21  N   UNL     1       9.260  10.301  19.125  0.00  0.00    +0.000 NA
ATOM     22  C   UNL     1       9.482  10.862  20.272  0.00  0.00    +0.000 C 
BRANCH  22  23
ATOM     23  C   UNL     1       9.764  12.268  20.343  0.00  0.00    +0.000 A 
ATOM     24  C   UNL     1       9.794  13.148  21.407  0.00  0.00    +0.000 A 
ATOM     25  C   UNL     1      10.110  14.420  20.875  0.00  0.00    +0.000 A 
ATOM     26  C   UNL     1      10.260  14.238  19.520  0.00  0.00    +0.000 A 
ATOM     27  O   UNL     1      10.055  12.936  19.186  0.00  0.00    +0.000 OA
ENDBRANCH  22  23
ENDBRANCH  19  21
ENDBRANCH  16  18
ENDBRANCH  15  16
ENDBRANCH   1  15
TORSDOF 6
ENDMDL
MODEL 9
REMARK VINA RESULT:      -7.8      0.992      1.144
REMARK  Name = 
REMARK  6 active torsions:
REMARK  status: ('A' for Active; 'I' for Inactive)
REMARK    1  A    between atoms: C_2  and  C_3
REMARK    2  A    between atoms: C_3  and  C_4
REMARK    3  A    between atoms: C_4  and  C_5
REMARK    4  A    between atoms: N_7  and  C_8
REMARK    5  A    between atoms: N_18  and  N_19
REMARK    6  A    between atoms: C_20  and  C_21
REMARK                            x       y       z     vdW  Elec       q    Type
REMARK                         _______ _______ _______ _____ _____    ______ ____
ROOT
ATOM      1  C   UNL     1       5.661   4.645  16.955  0.00  0.00    +0.000 C 
ATOM      2  O   UNL     1       4.875   4.708  16.011  0.00  0.00    +0.000 OA
ATOM      3  N   UNL     1       5.394   4.075  18.193  0.00  0.00    +0.000 N 
ATOM      4  H   UNL     1       6.053   4.268  18.935  0.00  0.00    +0.000 HD
ENDROOT
BRANCH   3   5
ATOM      5  C   UNL     1       4.177   3.419  18.554  0.00  0.00    +0.000 A 
ATOM      6  C   UNL     1       3.970   2.079  18.189  0.00  0.00    +0.000 A 
ATOM      7  C   UNL     1       2.771   1.426  18.453  0.00  0.00    +0.000 A 
ATOM      8  C   UNL     1       1.754   2.098  19.111  0.00  0.00    +0.000 A 
ATOM      9  C   UNL     1       1.930   3.419  19.537  0.00  0.00    +0.000 A 
ATOM     10  C   UNL     1       0.874   4.052  20.211  0.00  0.00    +0.000 A 
ATOM     11  C   UNL     1       0.992   5.362  20.659  0.00  0.00    +0.000 A 
ATOM     12  C   UNL     1       2.173   6.055  20.438  0.00  0.00    +0.000 A 
ATOM     13  C   UNL     1       3.236   5.442  19.761  0.00  0.00    +0.000 A 
ATOM     14  C   UNL     1       3.152   4.107  19.282  0.00  0.00    +0.000 A 
ENDBRANCH   3   5
BRANCH   1  15
ATOM     15  C   UNL     1       7.047   5.249  16.829  0.00  0.00    +0.000 C 
BRANCH  15  16
ATOM     16  C   UNL     1       6.939   6.778  16.846  0.00  0.00    +0.000 C 
BRANCH  16  18
ATOM     17  O   UNL     1       8.274   6.801  18.842  0.00  0.00    +0.000 OA
ATOM     18  C   UNL     1       7.805   7.427  17.898  0.00  0.00    +0.000 C 
ATOM     19  N   UNL     1       7.987   8.788  17.656  0.00  0.00    +0.000 N 
ATOM     20  H   UNL     1       7.553   9.232  16.852  0.00  0.00    +0.000 HD
BRANCH  19  21
ATOM     21  N   UNL     1       8.741   9.527  18.520  0.00  0.00    +0.000 NA
ATOM     22  C   UNL     1       8.906  10.779  18.231  0.00  0.00    +0.000 C 
BRANCH  22  23
ATOM     23  C   UNL     1       9.681  11.621  19.100  0.00  0.00    +0.000 A 
ATOM     24  C   UNL     1       9.450  12.887  19.600  0.00  0.00    +0.000 A 
ATOM     25  C   UNL     1      10.574  13.224  20.390  0.00  0.00    +0.000 A 
ATOM     26  C   UNL     1      11.420  12.141  20.330  0.00  0.00    +0.000 A 
ATOM     27  O   UNL     1      10.887  11.160  19.553  0.00  0.00    +0.000 OA
ENDBRANCH  22  23
ENDBRANCH  19  21
ENDBRANCH  16  18
ENDBRANCH  15  16
ENDBRANCH   1  15
TORSDOF 6
ENDMDL
