MODEL 1
REMARK VINA RESULT:      -8.0      0.000      0.000
REMARK  Name = 
REMARK  6 active torsions:
REMARK  status: ('A' for Active; 'I' for Inactive)
REMARK    1  A    between atoms: C_1  and  C_2
REMARK    2  A    between atoms: C_2  and  C_3
REMARK    3  A    between atoms: C_2  and  C_4
REMARK    4  A    between atoms: C_4  and  C_5
REMARK    5  A    between atoms: C_5  and  N_6
REMARK    6  A    between atoms: N_21  and  C_22
REMARK                            x       y       z     vdW  Elec       q    Type
REMARK                         _______ _______ _______ _____ _____    ______ ____
ROOT
ATOM      1  N   UNL     1       3.351   5.789  19.293  0.00  0.00    +0.000 N 
ATOM      2  C   UNL     1       3.199   7.003  18.631  0.00  0.00    +0.000 A 
ATOM      3  N   UNL     1       2.099   7.784  18.810  0.00  0.00    +0.000 N 
ATOM      4  C   UNL     1       1.724   8.782  17.812  0.00  0.00    +0.000 C 
ATOM      5  C   UNL     1       1.379  10.026  18.625  0.00  0.00    +0.000 C 
ATOM      6  C   UNL     1       0.824   9.462  19.918  0.00  0.00    +0.000 C 
ATOM      7  C   UNL     1       1.633   8.189  20.139  0.00  0.00    +0.000 C 
ATOM      8  N   UNL     1       4.192   7.179  17.774  0.00  0.00    +0.000 NA
ATOM      9  C   UNL     1       5.016   6.101  17.934  0.00  0.00    +0.000 A 
ATOM     10  C   UNL     1       4.528   5.229  18.863  0.00  0.00    +0.000 A 
ATOM     11  C   UNL     1       5.184   4.009  19.192  0.00  0.00    +0.000 A 
ATOM     12  O   UNL     1       4.800   3.178  20.008  0.00  0.00    +0.000 OA
ATOM     13  N   UNL     1       6.346   3.826  18.480  0.00  0.00    +0.000 N 
ATOM     14  C   UNL     1       6.888   4.668  17.536  0.00  0.00    +0.000 A 
ATOM     15  O   UNL     1       7.940   4.338  16.985  0.00  0.00    +0.000 OA
ATOM     16  N   UNL     1       6.194   5.843  17.254  0.00  0.00    +0.000 N 
ATOM     17  C   UNL     1       6.707   6.763  16.261  0.00  0.00    +0.000 C 
ATOM     18  H   UNL     1       6.856   2.976  18.666  0.00  0.00    +0.000 HD
ENDROOT
BRANCH   1  19
ATOM     19  C   UNL     1       2.387   5.148  20.160  0.00  0.00    +0.000 C 
BRANCH  19  20
ATOM     20  C   UNL     1       1.327   4.354  19.385  0.00  0.00    +0.000 C 
BRANCH  20  22
ATOM     21  C   UNL     1       1.690   1.897  19.113  0.00  0.00    +0.000 C 
ATOM     22  C   UNL     1       1.049   2.973  19.991  0.00  0.00    +0.000 C 
ATOM     23  C   UNL     1       1.571   2.869  21.423  0.00  0.00    +0.000 C 
ENDBRANCH  20  22
ENDBRANCH  19  20
ENDBRANCH   1  19
TORSDOF 3
ENDMDL
MODEL 2
REMARK VINA RESULT:      -7.2      0.713      1.050
REMARK  Name = 
REMARK  6 active torsions:
REMARK  status: ('A' for Active; 'I' for Inactive)
REMARK    1  A    between atoms: C_1  and  C_2
REMARK    2  A    between atoms: C_2  and  C_3
REMARK    3  A    between atoms: C_2  and  C_4
REMARK    4  A    between atoms: C_4  and  C_5
REMARK    5  A    between atoms: C_5  and  N_6
REMARK    6  A    between atoms: N_21  and  C_22
REMARK                            x       y       z     vdW  Elec       q    Type
REMARK                         _______ _______ _______ _____ _____    ______ ____
ROOT
ATOM      1  N   UNL     1       3.289   5.690  19.586  0.00  0.00    +0.000 N 
ATOM      2  C   UNL     1       3.035   6.908  18.967  0.00  0.00    +0.000 A 
ATOM      3  N   UNL     1       1.941   7.656  19.278  0.00  0.00    +0.000 N 
ATOM      4  C   UNL     1       1.434   8.658  18.344  0.00  0.00    +0.000 C 
ATOM      5  C   UNL     1       1.148   9.880  19.212  0.00  0.00    +0.000 C 
ATOM      6  C   UNL     1       0.753   9.282  20.548  0.00  0.00    +0.000 C 
ATOM      7  C   UNL     1       1.613   8.029  20.657  0.00  0.00    +0.000 C 
ATOM      8  N   UNL     1       3.924   7.124  18.009  0.00  0.00    +0.000 NA
ATOM      9  C   UNL     1       4.787   6.067  18.060  0.00  0.00    +0.000 A 
ATOM     10  C   UNL     1       4.426   5.168  19.020  0.00  0.00    +0.000 A 
ATOM     11  C   UNL     1       5.144   3.961  19.254  0.00  0.00    +0.000 A 
ATOM     12  O   UNL     1       4.874   3.108  20.092  0.00  0.00    +0.000 OA
ATOM     13  N   UNL     1       6.227   3.821  18.417  0.00  0.00    +0.000 N 
ATOM     14  C   UNL     1       6.641   4.691  17.435  0.00  0.00    +0.000 A 
ATOM     15  O   UNL     1       7.633   4.399  16.767  0.00  0.00    +0.000 OA
ATOM     16  N   UNL     1       5.890   5.851  17.251  0.00  0.00    +0.000 N 
ATOM     17  C   UNL     1       6.268   6.800  16.225  0.00  0.00    +0.000 C 
ATOM     18  H   UNL     1       6.775   2.983  18.531  0.00  0.00    +0.000 HD
ENDROOT
BRANCH   1  19
ATOM     19  C   UNL     1       2.442   5.009  20.541  0.00  0.00    +0.000 C 
BRANCH  19  20
ATOM     20  C   UNL     1       1.198   4.386  19.894  0.00  0.00    +0.000 C 
BRANCH  20  22
ATOM     21  C   UNL     1       0.670   2.167  18.875  0.00  0.00    +0.000 C 
ATOM     22  C   UNL     1       1.535   3.423  18.751  0.00  0.00    +0.000 C 
ATOM     23  C   UNL     1       1.332   4.074  17.384  0.00  0.00    +0.000 C 
ENDBRANCH  20  22
ENDBRANCH  19  20
ENDBRANCH   1  19
TORSDOF 3
ENDMDL
MODEL 3
REMARK VINA RESULT:      -7.2      1.702      4.519
REMARK  Name = 
REMARK  6 active torsions:
REMARK  status: ('A' for Active; 'I' for Inactive)
REMARK    1  A    between atoms: C_1  and  C_2
REMARK    2  A    between atoms: C_2  and  C_3
REMARK    3  A    between atoms: C_2  and  C_4
REMARK    4  A    between atoms: C_4  and  C_5
REMARK    5  A    between atoms: C_5  and  N_6
REMARK    6  A    between atoms: N_21  and  C_22
REMARK                            x       y       z     vdW  Elec       q    Type
REMARK                         _______ _______ _______ _____ _____    ______ ____
ROOT
ATOM      1  N   UNL     1       3.736   6.057  17.688  0.00  0.00    +0.000 N 
ATOM      2  C   UNL     1       2.756   6.461  18.588  0.00  0.00    +0.000 A 
ATOM      3  N   UNL     1       2.462   7.776  18.786  0.00  0.00    +0.000 N 
ATOM      4  C   UNL     1       1.802   8.215  20.012  0.00  0.00    +0.000 C 
ATOM      5  C   UNL     1       0.723   9.184  19.538  0.00  0.00    +0.000 C 
ATOM      6  C   UNL     1       1.327   9.810  18.297  0.00  0.00    +0.000 C 
ATOM      7  C   UNL     1       2.144   8.682  17.679  0.00  0.00    +0.000 C 
ATOM      8  N   UNL     1       2.287   5.414  19.249  0.00  0.00    +0.000 NA
ATOM      9  C   UNL     1       2.927   4.328  18.723  0.00  0.00    +0.000 A 
ATOM     10  C   UNL     1       3.823   4.688  17.760  0.00  0.00    +0.000 A 
ATOM     11  C   UNL     1       4.642   3.745  17.078  0.00  0.00    +0.000 A 
ATOM     12  O   UNL     1       5.470   3.998  16.210  0.00  0.00    +0.000 OA
ATOM     13  N   UNL     1       4.419   2.453  17.496  0.00  0.00    +0.000 N 
ATOM     14  C   UNL     1       3.531   2.029  18.458  0.00  0.00    +0.000 A 
ATOM     15  O   UNL     1       3.469   0.826  18.715  0.00  0.00    +0.000 OA
ATOM     16  N   UNL     1       2.763   3.003  19.093  0.00  0.00    +0.000 N 
ATOM     17  C   UNL     1       1.820   2.620  20.122  0.00  0.00    +0.000 C 
ATOM     18  H   UNL     1       4.973   1.738  17.052  0.00  0.00    +0.000 HD
ENDROOT
BRANCH   1  19
ATOM     19  C   UNL     1       4.617   6.912  16.923  0.00  0.00    +0.000 C 
BRANCH  19  20
ATOM     20  C   UNL     1       5.697   7.577  17.786  0.00  0.00    +0.000 C 
BRANCH  20  22
ATOM     21  C   UNL     1       8.093   8.271  17.644  0.00  0.00    +0.000 C 
ATOM     22  C   UNL     1       7.115   7.113  17.437  0.00  0.00    +0.000 C 
ATOM     23  C   UNL     1       7.537   5.906  18.273  0.00  0.00    +0.000 C 
ENDBRANCH  20  22
ENDBRANCH  19  20
ENDBRANCH   1  19
TORSDOF 3
ENDMDL
MODEL 4
REMARK VINA RESULT:      -6.8      0.832      1.140
REMARK  Name = 
REMARK  6 active torsions:
REMARK  status: ('A' for Active; 'I' for Inactive)
REMARK    1  A    between atoms: C_1  and  C_2
REMARK    2  A    between atoms: C_2  and  C_3
REMARK    3  A    between atoms: C_2  and  C_4
REMARK    4  A    between atoms: C_4  and  C_5
REMARK    5  A    between atoms: C_5  and  N_6
REMARK    6  A    between atoms: N_21  and  C_22
REMARK                            x       y       z     vdW  Elec       q    Type
REMARK                         _______ _______ _______ _____ _____    ______ ____
ROOT
ATOM      1  N   UNL     1       3.044   5.838  18.308  0.00  0.00    +0.000 N 
ATOM      2  C   UNL     1       3.181   7.214  18.169  0.00  0.00    +0.000 A 
ATOM      3  N   UNL     1       2.135   8.062  18.365  0.00  0.00    +0.000 N 
ATOM      4  C   UNL     1       2.144   9.403  17.788  0.00  0.00    +0.000 C 
ATOM      5  C   UNL     1       1.660  10.309  18.915  0.00  0.00    +0.000 C 
ATOM      6  C   UNL     1       0.709   9.426  19.698  0.00  0.00    +0.000 C 
ATOM      7  C   UNL     1       1.324   8.036  19.586  0.00  0.00    +0.000 C 
ATOM      8  N   UNL     1       4.394   7.506  17.726  0.00  0.00    +0.000 NA
ATOM      9  C   UNL     1       5.055   6.314  17.642  0.00  0.00    +0.000 A 
ATOM     10  C   UNL     1       4.254   5.268  17.995  0.00  0.00    +0.000 A 
ATOM     11  C   UNL     1       4.695   3.915  17.963  0.00  0.00    +0.000 A 
ATOM     12  O   UNL     1       4.029   2.929  18.259  0.00  0.00    +0.000 OA
ATOM     13  N   UNL     1       6.001   3.796  17.548  0.00  0.00    +0.000 N 
ATOM     14  C   UNL     1       6.856   4.810  17.182  0.00  0.00    +0.000 A 
ATOM     15  O   UNL     1       7.998   4.519  16.823  0.00  0.00    +0.000 OA
ATOM     16  N   UNL     1       6.361   6.112  17.228  0.00  0.00    +0.000 N 
ATOM     17  C   UNL     1       7.209   7.220  16.844  0.00  0.00    +0.000 C 
ATOM     18  H   UNL     1       6.371   2.860  17.500  0.00  0.00    +0.000 HD
ENDROOT
BRANCH   1  19
ATOM     19  C   UNL     1       1.823   5.111  18.582  0.00  0.00    +0.000 C 
BRANCH  19  20
ATOM     20  C   UNL     1       1.718   4.655  20.043  0.00  0.00    +0.000 C 
BRANCH  20  22
ATOM     21  C   UNL     1       1.319   2.780  21.644  0.00  0.00    +0.000 C 
ATOM     22  C   UNL     1       1.654   3.131  20.194  0.00  0.00    +0.000 C 
ATOM     23  C   UNL     1       0.628   2.512  19.247  0.00  0.00    +0.000 C 
ENDBRANCH  20  22
ENDBRANCH  19  20
ENDBRANCH   1  19
TORSDOF 3
ENDMDL
MODEL 5
REMARK VINA RESULT:      -6.5      2.220      4.948
REMARK  Name = 
REMARK  6 active torsions:
REMARK  status: ('A' for Active; 'I' for Inactive)
REMARK    1  A    between atoms: C_1  and  C_2
REMARK    2  A    between atoms: C_2  and  C_3
REMARK    3  A    between atoms: C_2  and  C_4
REMARK    4  A    between atoms: C_4  and  C_5
REMARK    5  A    between atoms: C_5  and  N_6
REMARK    6  A    between atoms: N_21  and  C_22
REMARK                            x       y       z     vdW  Elec       q    Type
REMARK                         _______ _______ _______ _____ _____    ______ ____
ROOT
ATOM      1  N   UNL     1       3.882   5.263  18.851  0.00  0.00    +0.000 N 
ATOM      2  C   UNL     1       4.292   5.825  17.648  0.00  0.00    +0.000 A 
ATOM      3  N   UNL     1       5.227   5.228  16.858  0.00  0.00    +0.000 N 
ATOM      4  C   UNL     1       5.977   6.003  15.874  0.00  0.00    +0.000 C 
ATOM      5  C   UNL     1       5.964   5.141  14.617  0.00  0.00    +0.000 C 
ATOM      6  C   UNL     1       5.944   3.725  15.157  0.00  0.00    +0.000 C 
ATOM      7  C   UNL     1       5.113   3.830  16.430  0.00  0.00    +0.000 C 
ATOM      8  N   UNL     1       3.734   7.015  17.490  0.00  0.00    +0.000 NA
ATOM      9  C   UNL     1       2.914   7.186  18.569  0.00  0.00    +0.000 A 
ATOM     10  C   UNL     1       2.980   6.125  19.424  0.00  0.00    +0.000 A 
ATOM     11  C   UNL     1       2.245   6.071  20.642  0.00  0.00    +0.000 A 
ATOM     12  O   UNL     1       2.263   5.156  21.458  0.00  0.00    +0.000 OA
ATOM     13  N   UNL     1       1.472   7.191  20.842  0.00  0.00    +0.000 N 
ATOM     14  C   UNL     1       1.362   8.287  20.017  0.00  0.00    +0.000 A 
ATOM     15  O   UNL     1       0.625   9.212  20.360  0.00  0.00    +0.000 OA
ATOM     16  N   UNL     1       2.114   8.282  18.844  0.00  0.00    +0.000 N 
ATOM     17  C   UNL     1       2.050   9.412  17.942  0.00  0.00    +0.000 C 
ATOM     18  H   UNL     1       0.929   7.214  21.691  0.00  0.00    +0.000 HD
ENDROOT
BRANCH   1  19
ATOM     19  C   UNL     1       4.409   4.068  19.474  0.00  0.00    +0.000 C 
BRANCH  19  20
ATOM     20  C   UNL     1       3.347   2.976  19.658  0.00  0.00    +0.000 C 
BRANCH  20  22
ATOM     21  C   UNL     1       2.531   1.964  17.525  0.00  0.00    +0.000 C 
ATOM     22  C   UNL     1       2.247   3.023  18.592  0.00  0.00    +0.000 C 
ATOM     23  C   UNL     1       0.862   2.808  19.198  0.00  0.00    +0.000 C 
ENDBRANCH  20  22
ENDBRANCH  19  20
ENDBRANCH   1  19
TORSDOF 3
ENDMDL
MODEL 6
REMARK VINA RESULT:      -6.4      2.894      6.262
REMARK  Name = 
REMARK  6 active torsions:
REMARK  status: ('A' for Active; 'I' for Inactive)
REMARK    1  A    between atoms: C_1  and  C_2
REMARK    2  A    between atoms: C_2  and  C_3
REMARK    3  A    between atoms: C_2  and  C_4
REMARK    4  A    between atoms: C_4  and  C_5
REMARK    5  A    between atoms: C_5  and  N_6
REMARK    6  A    between atoms: N_21  and  C_22
REMARK                            x       y       z     vdW  Elec       q    Type
REMARK                         _______ _______ _______ _____ _____    ______ ____
ROOT
ATOM      1  N   UNL     1       2.368   6.533  18.918  0.00  0.00    +0.000 N 
ATOM      2  C   UNL     1       2.038   5.799  20.050  0.00  0.00    +0.000 A 
ATOM      3  N   UNL     1       2.251   4.456  20.122  0.00  0.00    +0.000 N 
ATOM      4  C   UNL     1       1.510   3.633  21.073  0.00  0.00    +0.000 C 
ATOM      5  C   UNL     1       2.563   2.719  21.692  0.00  0.00    +0.000 C 
ATOM      6  C   UNL     1       3.563   2.521  20.570  0.00  0.00    +0.000 C 
ATOM      7  C   UNL     1       3.556   3.854  19.833  0.00  0.00    +0.000 C 
ATOM      8  N   UNL     1       1.414   6.571  20.926  0.00  0.00    +0.000 NA
ATOM      9  C   UNL     1       1.403   7.821  20.375  0.00  0.00    +0.000 A 
ATOM     10  C   UNL     1       1.984   7.833  19.141  0.00  0.00    +0.000 A 
ATOM     11  C   UNL     1       2.071   9.007  18.342  0.00  0.00    +0.000 A 
ATOM     12  O   UNL     1       2.571   9.088  17.225  0.00  0.00    +0.000 OA
ATOM     13  N   UNL     1       1.517  10.106  18.957  0.00  0.00    +0.000 N 
ATOM     14  C   UNL     1       0.921  10.157  20.196  0.00  0.00    +0.000 A 
ATOM     15  O   UNL     1       0.465  11.232  20.588  0.00  0.00    +0.000 OA
ATOM     16  N   UNL     1       0.861   8.971  20.925  0.00  0.00    +0.000 N 
ATOM     17  C   UNL     1       0.236   8.958  22.231  0.00  0.00    +0.000 C 
ATOM     18  H   UNL     1       1.544  10.970  18.438  0.00  0.00    +0.000 HD
ENDROOT
BRANCH   1  19
ATOM     19  C   UNL     1       2.881   6.016  17.668  0.00  0.00    +0.000 C 
BRANCH  19  20
ATOM     20  C   UNL     1       4.387   6.258  17.498  0.00  0.00    +0.000 C 
BRANCH  20  22
ATOM     21  C   UNL     1       5.444   5.699  15.304  0.00  0.00    +0.000 C 
ATOM     22  C   UNL     1       5.084   5.158  16.689  0.00  0.00    +0.000 C 
ATOM     23  C   UNL     1       6.335   4.642  17.398  0.00  0.00    +0.000 C 
ENDBRANCH  20  22
ENDBRANCH  19  20
ENDBRANCH   1  19
TORSDOF 3
ENDMDL
MODEL 7
REMARK VINA RESULT:      -6.3      2.433      5.002
REMARK  Name = 
REMARK  6 active torsions:
REMARK  status: ('A' for Active; 'I' for Inactive)
REMARK    1  A    between atoms: C_1  and  C_2
REMARK    2  A    between atoms: C_2  and  C_3
REMARK    3  A    between atoms: C_2  and  C_4
REMARK    4  A    between atoms: C_4  and  C_5
REMARK    5  A    between atoms: C_5  and  N_6
REMARK    6  A    between atoms: N_21  and  C_22
REMARK                            x       y       z     vdW  Elec       q    Type
REMARK                         _______ _______ _______ _____ _____    ______ ____
ROOT
ATOM      1  N   UNL     1       3.325   5.838  18.962  0.00  0.00    +0.000 N 
ATOM      2  C   UNL     1       3.885   6.309  17.780  0.00  0.00    +0.000 A 
ATOM      3  N   UNL     1       4.810   5.588  17.088  0.00  0.00    +0.000 N 
ATOM      4  C   UNL     1       5.714   6.244  16.147  0.00  0.00    +0.000 C 
ATOM      5  C   UNL     1       5.709   5.339  14.919  0.00  0.00    +0.000 C 
ATOM      6  C   UNL     1       5.496   3.955  15.498  0.00  0.00    +0.000 C 
ATOM      7  C   UNL     1       4.583   4.194  16.694  0.00  0.00    +0.000 C 
ATOM      8  N   UNL     1       3.471   7.543  17.541  0.00  0.00    +0.000 NA
ATOM      9  C   UNL     1       2.591   7.838  18.544  0.00  0.00    +0.000 A 
ATOM     10  C   UNL     1       2.477   6.810  19.432  0.00  0.00    +0.000 A 
ATOM     11  C   UNL     1       1.647   6.879  20.587  0.00  0.00    +0.000 A 
ATOM     12  O   UNL     1       1.502   5.999  21.428  0.00  0.00    +0.000 OA
ATOM     13  N   UNL     1       0.983   8.080  20.688  0.00  0.00    +0.000 N 
ATOM     14  C   UNL     1       1.055   9.149  19.826  0.00  0.00    +0.000 A 
ATOM     15  O   UNL     1       0.396  10.158  20.079  0.00  0.00    +0.000 OA
ATOM     16  N   UNL     1       1.893   9.021  18.718  0.00  0.00    +0.000 N 
ATOM     17  C   UNL     1       2.020  10.117  17.781  0.00  0.00    +0.000 C 
ATOM     18  H   UNL     1       0.381   8.191  21.489  0.00  0.00    +0.000 HD
ENDROOT
BRANCH   1  19
ATOM     19  C   UNL     1       3.671   4.620  19.661  0.00  0.00    +0.000 C 
BRANCH  19  20
ATOM     20  C   UNL     1       2.909   3.396  19.136  0.00  0.00    +0.000 C 
BRANCH  20  22
ATOM     21  C   UNL     1       0.644   2.382  18.852  0.00  0.00    +0.000 C 
ATOM     22  C   UNL     1       1.521   3.237  19.767  0.00  0.00    +0.000 C 
ATOM     23  C   UNL     1       1.601   2.614  21.159  0.00  0.00    +0.000 C 
ENDBRANCH  20  22
ENDBRANCH  19  20
ENDBRANCH   1  19
TORSDOF 3
ENDMDL
MODEL 8
REMARK VINA RESULT:      -6.2      2.799      5.322
REMARK  Name = 
REMARK  6 active torsions:
REMARK  status: ('A' for Active; 'I' for Inactive)
REMARK    1  A    between atoms: C_1  and  C_2
REMARK    2  A    between atoms: C_2  and  C_3
REMARK    3  A    between atoms: C_2  and  C_4
REMARK    4  A    between atoms: C_4  and  C_5
REMARK    5  A    between atoms: C_5  and  N_6
REMARK    6  A    between atoms: N_21  and  C_22
REMARK                            x       y       z     vdW  Elec       q    Type
REMARK                         _______ _______ _______ _____ _____    ______ ____
ROOT
ATOM      1  N   UNL     1       2.560   6.770  19.362  0.00  0.00    +0.000 N 
ATOM      2  C   UNL     1       3.293   7.025  18.208  0.00  0.00    +0.000 A 
ATOM      3  N   UNL     1       4.144   6.102  17.681  0.00  0.00    +0.000 N 
ATOM      4  C   UNL     1       5.223   6.509  16.786  0.00  0.00    +0.000 C 
ATOM      5  C   UNL     1       5.177   5.496  15.646  0.00  0.00    +0.000 C 
ATOM      6  C   UNL     1       4.688   4.228  16.317  0.00  0.00    +0.000 C 
ATOM      7  C   UNL     1       3.725   4.728  17.387  0.00  0.00    +0.000 C 
ATOM      8  N   UNL     1       3.111   8.278  17.822  0.00  0.00    +0.000 NA
ATOM      9  C   UNL     1       2.207   8.807  18.699  0.00  0.00    +0.000 A 
ATOM     10  C   UNL     1       1.846   7.906  19.656  0.00  0.00    +0.000 A 
ATOM     11  C   UNL     1       0.940   8.220  20.708  0.00  0.00    +0.000 A 
ATOM     12  O   UNL     1       0.579   7.464  21.603  0.00  0.00    +0.000 OA
ATOM     13  N   UNL     1       0.478   9.514  20.637  0.00  0.00    +0.000 N 
ATOM     14  C   UNL     1       0.802  10.465  19.697  0.00  0.00    +0.000 A 
ATOM     15  O   UNL     1       0.299  11.585  19.793  0.00  0.00    +0.000 OA
ATOM     16  N   UNL     1       1.701  10.097  18.698  0.00  0.00    +0.000 N 
ATOM     17  C   UNL     1       2.091  11.058  17.688  0.00  0.00    +0.000 C 
ATOM     18  H   UNL     1      -0.166   9.799  21.358  0.00  0.00    +0.000 HD
ENDROOT
BRANCH   1  19
ATOM     19  C   UNL     1       2.637   5.591  20.196  0.00  0.00    +0.000 C 
BRANCH  19  20
ATOM     20  C   UNL     1       1.407   4.684  20.057  0.00  0.00    +0.000 C 
BRANCH  20  22
ATOM     21  C   UNL     1       1.457   2.655  21.515  0.00  0.00    +0.000 C 
ATOM     22  C   UNL     1       1.753   3.191  20.113  0.00  0.00    +0.000 C 
ATOM     23  C   UNL     1       0.980   2.392  19.066  0.00  0.00    +0.000 C 
ENDBRANCH  20  22
ENDBRANCH  19  20
ENDBRANCH   1  19
TORSDOF 3
ENDMDL
MODEL 9
REMARK VINA RESULT:      -6.2      1.446      1.802
REMARK  Name = 
REMARK  6 active torsions:
REMARK  status: ('A' for Active; 'I' for Inactive)
REMARK    1  A    between atoms: C_1  and  C_2
REMARK    2  A    between atoms: C_2  and  C_3
REMARK    3  A    between atoms: C_2  and  C_4
REMARK    4  A    between atoms: C_4  and  C_5
REMARK    5  A    between atoms: C_5  and  N_6
REMARK    6  A    between atoms: N_21  and  C_22
REMARK                            x       y       z     vdW  Elec       q    Type
REMARK                         _______ _______ _______ _____ _____    ______ ____
ROOT
ATOM      1  N   UNL     1       2.897   5.023  18.372  0.00  0.00    +0.000 N 
ATOM      2  C   UNL     1       3.011   6.340  18.802  0.00  0.00    +0.000 A 
ATOM      3  N   UNL     1       1.987   6.980  19.431  0.00  0.00    +0.000 N 
ATOM      4  C   UNL     1       1.927   8.439  19.462  0.00  0.00    +0.000 C 
ATOM      5  C   UNL     1       1.562   8.776  20.904  0.00  0.00    +0.000 C 
ATOM      6  C   UNL     1       0.704   7.604  21.337  0.00  0.00    +0.000 C 
ATOM      7  C   UNL     1       1.311   6.415  20.602  0.00  0.00    +0.000 C 
ATOM      8  N   UNL     1       4.168   6.848  18.407  0.00  0.00    +0.000 NA
ATOM      9  C   UNL     1       4.823   5.829  17.775  0.00  0.00    +0.000 A 
ATOM     10  C   UNL     1       4.070   4.693  17.738  0.00  0.00    +0.000 A 
ATOM     11  C   UNL     1       4.512   3.496  17.107  0.00  0.00    +0.000 A 
ATOM     12  O   UNL     1       3.887   2.444  17.030  0.00  0.00    +0.000 OA
ATOM     13  N   UNL     1       5.767   3.622  16.558  0.00  0.00    +0.000 N 
ATOM     14  C   UNL     1       6.573   4.738  16.565  0.00  0.00    +0.000 A 
ATOM     15  O   UNL     1       7.672   4.676  16.012  0.00  0.00    +0.000 OA
ATOM     16  N   UNL     1       6.079   5.880  17.193  0.00  0.00    +0.000 N 
ATOM     17  C   UNL     1       6.875   7.088  17.223  0.00  0.00    +0.000 C 
ATOM     18  H   UNL     1       6.136   2.808  16.092  0.00  0.00    +0.000 HD
ENDROOT
BRANCH   1  19
ATOM     19  C   UNL     1       1.717   4.189  18.434  0.00  0.00    +0.000 C 
BRANCH  19  20
ATOM     20  C   UNL     1       1.929   2.922  19.274  0.00  0.00    +0.000 C 
BRANCH  20  22
ATOM     21  C   UNL     1       1.813   2.853  21.769  0.00  0.00    +0.000 C 
ATOM     22  C   UNL     1       2.704   3.184  20.570  0.00  0.00    +0.000 C 
ATOM     23  C   UNL     1       3.996   2.372  20.630  0.00  0.00    +0.000 C 
ENDBRANCH  20  22
ENDBRANCH  19  20
ENDBRANCH   1  19
TORSDOF 3
ENDMDL
