MODEL 1
REMARK VINA RESULT:      -8.0      0.000      0.000
REMARK  Name = 
REMARK  8 active torsions:
REMARK  status: ('A' for Active; 'I' for Inactive)
REMARK    1  A    between atoms: C_1  and  N_2
REMARK    2  A    between atoms: C_3  and  C_5
REMARK    3  A    between atoms: C_7  and  C_8
REMARK    4  A    between atoms: N_10  and  C_11
REMARK    5  A    between atoms: C_14  and  O_15
REMARK    6  A    between atoms: N_18  and  C_19
REMARK    7  A    between atoms: C_19  and  C_20
REMARK    8  A    between atoms: C_19  and  C_21
REMARK                            x       y       z     vdW  Elec       q    Type
REMARK                         _______ _______ _______ _____ _____    ______ ____
ROOT
ATOM      1  C   UNL     1       5.200   5.909  16.685  0.00  0.00    +0.000 A 
ATOM      2  C   UNL     1       4.713   7.059  17.355  0.00  0.00    +0.000 A 
ATOM      3  C   UNL     1       3.503   6.704  17.928  0.00  0.00    +0.000 A 
ATOM      4  N   UNL     1       3.315   5.385  17.557  0.00  0.00    +0.000 N 
ATOM      5  N   UNL     1       4.346   4.882  16.828  0.00  0.00    +0.000 NA
ENDROOT
BRANCH   1   8
ATOM      6  C   UNL     1       7.420   4.946  13.819  0.00  0.00    +0.000 C 
ATOM      7  N   UNL     1       6.305   5.215  14.683  0.00  0.00    +0.000 N 
ATOM      8  C   UNL     1       6.459   5.792  15.927  0.00  0.00    +0.000 C 
ATOM      9  O   UNL     1       7.534   6.172  16.371  0.00  0.00    +0.000 OA
ATOM     10  H   UNL     1       5.361   4.930  14.437  0.00  0.00    +0.000 HD
ENDBRANCH   1   8
BRANCH   3  11
ATOM     11  C   UNL     1       2.579   7.493  18.721  0.00  0.00    +0.000 C 
ATOM     12  O   UNL     1       2.380   7.298  19.917  0.00  0.00    +0.000 OA
ATOM     13  N   UNL     1       1.932   8.501  18.029  0.00  0.00    +0.000 N 
ATOM     14  H   UNL     1       2.185   8.665  17.064  0.00  0.00    +0.000 HD
BRANCH  13  15
ATOM     15  C   UNL     1       1.014   9.409  18.653  0.00  0.00    +0.000 C 
ATOM     16  C   UNL     1      -0.112  10.000  17.844  0.00  0.00    +0.000 C 
ATOM     17  C   UNL     1      -1.377  10.513  18.488  0.00  0.00    +0.000 C 
ATOM     18  C   UNL     1      -1.039  11.966  18.854  0.00  0.00    +0.000 C 
ATOM     19  C   UNL     1       0.459  11.935  19.204  0.00  0.00    +0.000 C 
ATOM     20  C   UNL     1       1.023  10.874  18.290  0.00  0.00    +0.000 C 
BRANCH  18  21
ATOM     21  O   UNL     1      -1.259  12.816  17.725  0.00  0.00    +0.000 OA
ATOM     22  H   UNL     1      -0.408  13.227  17.493  0.00  0.00    +0.000 HD
ENDBRANCH  18  21
ENDBRANCH  13  15
ENDBRANCH   3  11
BRANCH   4  23
ATOM     23  C   UNL     1       2.168   4.517  17.871  0.00  0.00    +0.000 C 
ATOM     24  C   UNL     1       1.861   3.500  16.760  0.00  0.00    +0.000 C 
BRANCH  23  25
ATOM     25  C   UNL     1       2.345   3.832  19.220  0.00  0.00    +0.000 A 
ATOM     26  C   UNL     1       1.331   3.929  20.191  0.00  0.00    +0.000 A 
ATOM     27  C   UNL     1       1.451   3.281  21.422  0.00  0.00    +0.000 A 
ATOM     28  C   UNL     1       2.587   2.523  21.705  0.00  0.00    +0.000 A 
ATOM     29  C   UNL     1       3.600   2.422  20.754  0.00  0.00    +0.000 A 
ATOM     30 CL   UNL     1       5.000   1.484  21.103  0.00  0.00    +0.000 Cl
ATOM     31  C   UNL     1       3.486   3.068  19.522  0.00  0.00    +0.000 A 
ENDBRANCH  23  25
ENDBRANCH   4  23
TORSDOF 6
ENDMDL
MODEL 2
REMARK VINA RESULT:      -7.7      2.139      3.268
REMARK  Name = 
REMARK  8 active torsions:
REMARK  status: ('A' for Active; 'I' for Inactive)
REMARK    1  A    between atoms: C_1  and  N_2
REMARK    2  A    between atoms: C_3  and  C_5
REMARK    3  A    between atoms: C_7  and  C_8
REMARK    4  A    between atoms: N_10  and  C_11
REMARK    5  A    between atoms: C_14  and  O_15
REMARK    6  A    between atoms: N_18  and  C_19
REMARK    7  A    between atoms: C_19  and  C_20
REMARK    8  A    between atoms: C_19  and  C_21
REMARK                            x       y       z     vdW  Elec       q    Type
REMARK                         _______ _______ _______ _____ _____    ______ ____
ROOT
ATOM      1  C   UNL     1       5.991   4.329  14.380  0.00  0.00    +0.000 A 
ATOM      2  C   UNL     1       5.690   5.670  14.722  0.00  0.00    +0.000 A 
ATOM      3  C   UNL     1       5.489   5.696  16.093  0.00  0.00    +0.000 A 
ATOM      4  N   UNL     1       5.654   4.382  16.494  0.00  0.00    +0.000 N 
ATOM      5  N   UNL     1       5.985   3.548  15.473  0.00  0.00    +0.000 NA
ENDROOT
BRANCH   1   8
ATOM      6  C   UNL     1       5.705   2.007  11.448  0.00  0.00    +0.000 C 
ATOM      7  N   UNL     1       5.521   2.709  12.687  0.00  0.00    +0.000 N 
ATOM      8  C   UNL     1       6.285   3.804  13.034  0.00  0.00    +0.000 C 
ATOM      9  O   UNL     1       7.133   4.299  12.303  0.00  0.00    +0.000 OA
ATOM     10  H   UNL     1       4.860   2.386  13.389  0.00  0.00    +0.000 HD
ENDBRANCH   1   8
BRANCH   3  11
ATOM     11  C   UNL     1       5.151   6.804  16.967  0.00  0.00    +0.000 C 
ATOM     12  O   UNL     1       5.984   7.585  17.418  0.00  0.00    +0.000 OA
ATOM     13  N   UNL     1       3.804   6.927  17.256  0.00  0.00    +0.000 N 
ATOM     14  H   UNL     1       3.153   6.301  16.802  0.00  0.00    +0.000 HD
BRANCH  13  15
ATOM     15  C   UNL     1       3.275   7.984  18.068  0.00  0.00    +0.000 C 
ATOM     16  C   UNL     1       1.963   7.785  18.785  0.00  0.00    +0.000 C 
ATOM     17  C   UNL     1       1.599   8.573  20.018  0.00  0.00    +0.000 C 
ATOM     18  C   UNL     1       0.961   9.854  19.460  0.00  0.00    +0.000 C 
ATOM     19  C   UNL     1       1.721  10.121  18.150  0.00  0.00    +0.000 C 
ATOM     20  C   UNL     1       2.046   8.741  17.631  0.00  0.00    +0.000 C 
BRANCH  18  21
ATOM     21  O   UNL     1      -0.423   9.629  19.184  0.00  0.00    +0.000 OA
ATOM     22  H   UNL     1      -0.705  10.285  18.522  0.00  0.00    +0.000 HD
ENDBRANCH  18  21
ENDBRANCH  13  15
ENDBRANCH   3  11
BRANCH   4  23
ATOM     23  C   UNL     1       5.522   3.833  17.854  0.00  0.00    +0.000 C 
ATOM     24  C   UNL     1       6.360   4.595  18.893  0.00  0.00    +0.000 C 
BRANCH  23  25
ATOM     25  C   UNL     1       4.061   3.741  18.274  0.00  0.00    +0.000 A 
ATOM     26  C   UNL     1       3.056   3.651  17.293  0.00  0.00    +0.000 A 
ATOM     27  C   UNL     1       1.712   3.528  17.650  0.00  0.00    +0.000 A 
ATOM     28  C   UNL     1       1.347   3.492  18.996  0.00  0.00    +0.000 A 
ATOM     29  C   UNL     1       2.331   3.583  19.978  0.00  0.00    +0.000 A 
ATOM     30 CL   UNL     1       1.881   3.535  21.638  0.00  0.00    +0.000 Cl
ATOM     31  C   UNL     1       3.677   3.707  19.626  0.00  0.00    +0.000 A 
ENDBRANCH  23  25
ENDBRANCH   4  23
TORSDOF 6
ENDMDL
MODEL 3
REMARK VINA RESULT:      -7.6      1.970      2.424
REMARK  Name = 
REMARK  8 active torsions:
REMARK  status: ('A' for Active; 'I' for Inactive)
REMARK    1  A    between atoms: C_1  and  N_2
REMARK    2  A    between atoms: C_3  and  C_5
REMARK    3  A    between atoms: C_7  and  C_8
REMARK    4  A    between atoms: N_10  and  C_11
REMARK    5  A    between atoms: C_14  and  O_15
REMARK    6  A    between atoms: N_18  and  C_19
REMARK    7  A    between atoms: C_19  and  C_20
REMARK    8  A    between atoms: C_19  and  C_21
REMARK                            x       y       z     vdW  Elec       q    Type
REMARK                         _______ _______ _______ _____ _____    ______ ____
ROOT
ATOM      1  C   UNL     1       5.080   5.544  16.750  0.00  0.00    +0.000 A 
ATOM      2  C   UNL     1       4.687   6.867  17.072  0.00  0.00    +0.000 A 
ATOM      3  C   UNL     1       3.444   6.777  17.676  0.00  0.00    +0.000 A 
ATOM      4  N   UNL     1       3.148   5.426  17.666  0.00  0.00    +0.000 N 
ATOM      5  N   UNL     1       4.140   4.665  17.134  0.00  0.00    +0.000 NA
ENDROOT
BRANCH   1   8
ATOM      6  C   UNL     1       7.502   5.079  13.923  0.00  0.00    +0.000 C 
ATOM      7  N   UNL     1       6.396   5.460  14.758  0.00  0.00    +0.000 N 
ATOM      8  C   UNL     1       6.333   5.127  16.094  0.00  0.00    +0.000 C 
ATOM      9  O   UNL     1       7.225   4.538  16.691  0.00  0.00    +0.000 OA
ATOM     10  H   UNL     1       5.583   5.937  14.377  0.00  0.00    +0.000 HD
ENDBRANCH   1   8
BRANCH   3  11
ATOM     11  C   UNL     1       2.582   7.821  18.198  0.00  0.00    +0.000 C 
ATOM     12  O   UNL     1       2.250   8.809  17.550  0.00  0.00    +0.000 OA
ATOM     13  N   UNL     1       2.145   7.621  19.496  0.00  0.00    +0.000 N 
ATOM     14  H   UNL     1       2.389   6.756  19.960  0.00  0.00    +0.000 HD
BRANCH  13  15
ATOM     15  C   UNL     1       1.255   8.523  20.166  0.00  0.00    +0.000 C 
ATOM     16  C   UNL     1       1.620   9.049  21.532  0.00  0.00    +0.000 C 
ATOM     17  C   UNL     1       1.055  10.341  22.068  0.00  0.00    +0.000 C 
ATOM     18  C   UNL     1      -0.272   9.921  22.716  0.00  0.00    +0.000 C 
ATOM     19  C   UNL     1      -0.777   8.761  21.841  0.00  0.00    +0.000 C 
ATOM     20  C   UNL     1       0.488   8.074  21.385  0.00  0.00    +0.000 C 
BRANCH  18  21
ATOM     21  O   UNL     1      -0.038   9.460  24.049  0.00  0.00    +0.000 OA
ATOM     22  H   UNL     1      -0.528  10.043  24.655  0.00  0.00    +0.000 HD
ENDBRANCH  18  21
ENDBRANCH  13  15
ENDBRANCH   3  11
BRANCH   4  23
ATOM     23  C   UNL     1       1.927   4.769  18.161  0.00  0.00    +0.000 C 
ATOM     24  C   UNL     1       1.223   3.921  17.090  0.00  0.00    +0.000 C 
BRANCH  23  25
ATOM     25  C   UNL     1       2.207   3.957  19.420  0.00  0.00    +0.000 A 
ATOM     26  C   UNL     1       1.236   3.887  20.436  0.00  0.00    +0.000 A 
ATOM     27  C   UNL     1       1.451   3.121  21.583  0.00  0.00    +0.000 A 
ATOM     28  C   UNL     1       2.641   2.409  21.735  0.00  0.00    +0.000 A 
ATOM     29  C   UNL     1       3.612   2.473  20.739  0.00  0.00    +0.000 A 
ATOM     30 CL   UNL     1       5.079   1.592  20.925  0.00  0.00    +0.000 Cl
ATOM     31  C   UNL     1       3.403   3.238  19.589  0.00  0.00    +0.000 A 
ENDBRANCH  23  25
ENDBRANCH   4  23
TORSDOF 6
ENDMDL
MODEL 4
REMARK VINA RESULT:      -7.3      4.086      8.294
REMARK  Name = 
REMARK  8 active torsions:
REMARK  status: ('A' for Active; 'I' for Inactive)
REMARK    1  A    between atoms: C_1  and  N_2
REMARK    2  A    between atoms: C_3  and  C_5
REMARK    3  A    between atoms: C_7  and  C_8
REMARK    4  A    between atoms: N_10  and  C_11
REMARK    5  A    between atoms: C_14  and  O_15
REMARK    6  A    between atoms: N_18  and  C_19
REMARK    7  A    between atoms: C_19  and  C_20
REMARK    8  A    between atoms: C_19  and  C_21
REMARK                            x       y       z     vdW  Elec       q    Type
REMARK                         _______ _______ _______ _____ _____    ______ ____
ROOT
ATOM      1  C   UNL     1       1.719  12.650  18.397  0.00  0.00    +0.000 A 
ATOM      2  C   UNL     1       2.539  11.525  18.134  0.00  0.00    +0.000 A 
ATOM      3  C   UNL     1       1.755  10.403  18.345  0.00  0.00    +0.000 A 
ATOM      4  N   UNL     1       0.529  10.904  18.742  0.00  0.00    +0.000 N 
ATOM      5  N   UNL     1       0.483  12.262  18.752  0.00  0.00    +0.000 NA
ENDROOT
BRANCH   1   8
ATOM      6  C   UNL     1       3.887  15.582  17.514  0.00  0.00    +0.000 C 
ATOM      7  N   UNL     1       3.300  14.277  17.646  0.00  0.00    +0.000 N 
ATOM      8  C   UNL     1       2.107  14.070  18.306  0.00  0.00    +0.000 C 
ATOM      9  O   UNL     1       1.426  14.971  18.779  0.00  0.00    +0.000 OA
ATOM     10  H   UNL     1       3.776  13.444  17.311  0.00  0.00    +0.000 HD
ENDBRANCH   1   8
BRANCH   3  11
ATOM     11  C   UNL     1       2.088   8.996  18.225  0.00  0.00    +0.000 C 
ATOM     12  O   UNL     1       2.351   8.453  17.155  0.00  0.00    +0.000 OA
ATOM     13  N   UNL     1       2.098   8.296  19.419  0.00  0.00    +0.000 N 
ATOM     14  H   UNL     1       1.945   8.805  20.279  0.00  0.00    +0.000 HD
BRANCH  13  15
ATOM     15  C   UNL     1       2.444   6.907  19.504  0.00  0.00    +0.000 C 
ATOM     16  C   UNL     1       1.499   5.871  18.950  0.00  0.00    +0.000 C 
ATOM     17  C   UNL     1       1.972   4.503  18.526  0.00  0.00    +0.000 C 
ATOM     18  C   UNL     1       1.922   3.679  19.821  0.00  0.00    +0.000 C 
ATOM     19  C   UNL     1       2.272   4.687  20.930  0.00  0.00    +0.000 C 
ATOM     20  C   UNL     1       1.690   5.988  20.434  0.00  0.00    +0.000 C 
BRANCH  18  21
ATOM     21  O   UNL     1       0.602   3.169  20.024  0.00  0.00    +0.000 OA
ATOM     22  H   UNL     1       0.323   3.417  20.922  0.00  0.00    +0.000 HD
ENDBRANCH  18  21
ENDBRANCH  13  15
ENDBRANCH   3  11
BRANCH   4  23
ATOM     23  C   UNL     1      -0.673  10.143  19.125  0.00  0.00    +0.000 C 
ATOM     24  C   UNL     1      -1.039  10.304  20.609  0.00  0.00    +0.000 C 
BRANCH  23  25
ATOM     25  C   UNL     1      -1.851  10.477  18.219  0.00  0.00    +0.000 A 
ATOM     26  C   UNL     1      -2.938  11.210  18.730  0.00  0.00    +0.000 A 
ATOM     27  C   UNL     1      -4.015  11.562  17.914  0.00  0.00    +0.000 A 
ATOM     28  C   UNL     1      -4.024  11.188  16.570  0.00  0.00    +0.000 A 
ATOM     29  C   UNL     1      -2.955  10.460  16.052  0.00  0.00    +0.000 A 
ATOM     30 CL   UNL     1      -2.965  10.002  14.393  0.00  0.00    +0.000 Cl
ATOM     31  C   UNL     1      -1.876  10.105  16.864  0.00  0.00    +0.000 A 
ENDBRANCH  23  25
ENDBRANCH   4  23
TORSDOF 6
ENDMDL
MODEL 5
REMARK VINA RESULT:      -7.2      4.579      7.577
REMARK  Name = 
REMARK  8 active torsions:
REMARK  status: ('A' for Active; 'I' for Inactive)
REMARK    1  A    between atoms: C_1  and  N_2
REMARK    2  A    between atoms: C_3  and  C_5
REMARK    3  A    between atoms: C_7  and  C_8
REMARK    4  A    between atoms: N_10  and  C_11
REMARK    5  A    between atoms: C_14  and  O_15
REMARK    6  A    between atoms: N_18  and  C_19
REMARK    7  A    between atoms: C_19  and  C_20
REMARK    8  A    between atoms: C_19  and  C_21
REMARK                            x       y       z     vdW  Elec       q    Type
REMARK                         _______ _______ _______ _____ _____    ______ ____
ROOT
ATOM      1  C   UNL     1       1.666   8.203  19.900  0.00  0.00    +0.000 A 
ATOM      2  C   UNL     1       1.270   8.335  21.254  0.00  0.00    +0.000 A 
ATOM      3  C   UNL     1       0.565   9.524  21.349  0.00  0.00    +0.000 A 
ATOM      4  N   UNL     1       0.594  10.049  20.070  0.00  0.00    +0.000 N 
ATOM      5  N   UNL     1       1.232   9.249  19.176  0.00  0.00    +0.000 NA
ENDROOT
BRANCH   1   8
ATOM      6  C   UNL     1       3.504   4.934  19.825  0.00  0.00    +0.000 C 
ATOM      7  N   UNL     1       2.703   6.070  20.188  0.00  0.00    +0.000 N 
ATOM      8  C   UNL     1       2.439   7.097  19.306  0.00  0.00    +0.000 C 
ATOM      9  O   UNL     1       2.808   7.102  18.139  0.00  0.00    +0.000 OA
ATOM     10  H   UNL     1       2.353   6.192  21.134  0.00  0.00    +0.000 HD
ENDBRANCH   1   8
BRANCH   3  11
ATOM     11  C   UNL     1      -0.061  10.148  22.499  0.00  0.00    +0.000 C 
ATOM     12  O   UNL     1       0.145   9.791  23.656  0.00  0.00    +0.000 OA
ATOM     13  N   UNL     1      -0.914  11.195  22.200  0.00  0.00    +0.000 N 
ATOM     14  H   UNL     1      -0.993  11.495  21.238  0.00  0.00    +0.000 HD
BRANCH  13  15
ATOM     15  C   UNL     1      -1.591  11.960  23.207  0.00  0.00    +0.000 C 
ATOM     16  C   UNL     1      -3.053  12.285  23.033  0.00  0.00    +0.000 C 
ATOM     17  C   UNL     1      -3.947  12.601  24.207  0.00  0.00    +0.000 C 
ATOM     18  C   UNL     1      -3.759  14.111  24.416  0.00  0.00    +0.000 C 
ATOM     19  C   UNL     1      -2.295  14.373  24.027  0.00  0.00    +0.000 C 
ATOM     20  C   UNL     1      -2.028  13.376  22.925  0.00  0.00    +0.000 C 
BRANCH  18  21
ATOM     21  O   UNL     1      -4.633  14.835  23.546  0.00  0.00    +0.000 OA
ATOM     22  H   UNL     1      -5.347  15.212  24.089  0.00  0.00    +0.000 HD
ENDBRANCH  18  21
ENDBRANCH  13  15
ENDBRANCH   3  11
BRANCH   4  23
ATOM     23  C   UNL     1       0.018  11.323  19.608  0.00  0.00    +0.000 C 
ATOM     24  C   UNL     1       1.000  12.158  18.770  0.00  0.00    +0.000 C 
BRANCH  23  25
ATOM     25  C   UNL     1      -1.296  11.102  18.870  0.00  0.00    +0.000 A 
ATOM     26  C   UNL     1      -1.369  10.137  17.849  0.00  0.00    +0.000 A 
ATOM     27  C   UNL     1      -2.570   9.887  17.180  0.00  0.00    +0.000 A 
ATOM     28  C   UNL     1      -3.720  10.597  17.523  0.00  0.00    +0.000 A 
ATOM     29  C   UNL     1      -3.661  11.557  18.531  0.00  0.00    +0.000 A 
ATOM     30 CL   UNL     1      -5.082  12.430  18.956  0.00  0.00    +0.000 Cl
ATOM     31  C   UNL     1      -2.463  11.811  19.202  0.00  0.00    +0.000 A 
ENDBRANCH  23  25
ENDBRANCH   4  23
TORSDOF 6
ENDMDL
MODEL 6
REMARK VINA RESULT:      -7.2      2.268      3.126
REMARK  Name = 
REMARK  8 active torsions:
REMARK  status: ('A' for Active; 'I' for Inactive)
REMARK    1  A    between atoms: C_1  and  N_2
REMARK    2  A    between atoms: C_3  and  C_5
REMARK    3  A    between atoms: C_7  and  C_8
REMARK    4  A    between atoms: N_10  and  C_11
REMARK    5  A    between atoms: C_14  and  O_15
REMARK    6  A    between atoms: N_18  and  C_19
REMARK    7  A    between atoms: C_19  and  C_20
REMARK    8  A    between atoms: C_19  and  C_21
REMARK                            x       y       z     vdW  Elec       q    Type
REMARK                         _______ _______ _______ _____ _____    ______ ____
ROOT
ATOM      1  C   UNL     1       5.677   4.420  14.634  0.00  0.00    +0.000 A 
ATOM      2  C   UNL     1       5.302   5.752  14.937  0.00  0.00    +0.000 A 
ATOM      3  C   UNL     1       5.247   5.846  16.318  0.00  0.00    +0.000 A 
ATOM      4  N   UNL     1       5.564   4.577  16.767  0.00  0.00    +0.000 N 
ATOM      5  N   UNL     1       5.853   3.710  15.761  0.00  0.00    +0.000 NA
ENDROOT
BRANCH   1   8
ATOM      6  C   UNL     1       4.664   2.869  11.372  0.00  0.00    +0.000 C 
ATOM      7  N   UNL     1       4.690   3.515  12.656  0.00  0.00    +0.000 N 
ATOM      8  C   UNL     1       5.869   3.837  13.294  0.00  0.00    +0.000 C 
ATOM      9  O   UNL     1       6.977   3.657  12.805  0.00  0.00    +0.000 OA
ATOM     10  H   UNL     1       3.836   3.700  13.174  0.00  0.00    +0.000 HD
ENDBRANCH   1   8
BRANCH   3  11
ATOM     11  C   UNL     1       4.913   6.976  17.164  0.00  0.00    +0.000 C 
ATOM     12  O   UNL     1       5.754   7.720  17.661  0.00  0.00    +0.000 OA
ATOM     13  N   UNL     1       3.558   7.169  17.370  0.00  0.00    +0.000 N 
ATOM     14  H   UNL     1       2.905   6.572  16.880  0.00  0.00    +0.000 HD
BRANCH  13  15
ATOM     15  C   UNL     1       3.034   8.257  18.143  0.00  0.00    +0.000 C 
ATOM     16  C   UNL     1       1.738   8.079  18.893  0.00  0.00    +0.000 C 
ATOM     17  C   UNL     1       1.389   8.919  20.096  0.00  0.00    +0.000 C 
ATOM     18  C   UNL     1       0.728  10.167  19.492  0.00  0.00    +0.000 C 
ATOM     19  C   UNL     1       1.460  10.381  18.157  0.00  0.00    +0.000 C 
ATOM     20  C   UNL     1       1.789   8.982  17.696  0.00  0.00    +0.000 C 
BRANCH  18  21
ATOM     21  O   UNL     1      -0.659   9.917  19.254  0.00  0.00    +0.000 OA
ATOM     22  H   UNL     1      -1.165  10.646  19.653  0.00  0.00    +0.000 HD
ENDBRANCH  18  21
ENDBRANCH  13  15
ENDBRANCH   3  11
BRANCH   4  23
ATOM     23  C   UNL     1       5.624   4.104  18.160  0.00  0.00    +0.000 C 
ATOM     24  C   UNL     1       6.643   4.876  19.013  0.00  0.00    +0.000 C 
BRANCH  23  25
ATOM     25  C   UNL     1       4.244   4.104  18.805  0.00  0.00    +0.000 A 
ATOM     26  C   UNL     1       3.955   5.015  19.837  0.00  0.00    +0.000 A 
ATOM     27  C   UNL     1       2.687   5.062  20.421  0.00  0.00    +0.000 A 
ATOM     28  C   UNL     1       1.684   4.197  19.982  0.00  0.00    +0.000 A 
ATOM     29  C   UNL     1       1.958   3.287  18.964  0.00  0.00    +0.000 A 
ATOM     30 CL   UNL     1       0.719   2.223  18.421  0.00  0.00    +0.000 Cl
ATOM     31  C   UNL     1       3.224   3.236  18.377  0.00  0.00    +0.000 A 
ENDBRANCH  23  25
ENDBRANCH   4  23
TORSDOF 6
ENDMDL
MODEL 7
REMARK VINA RESULT:      -7.2      4.060      8.685
REMARK  Name = 
REMARK  8 active torsions:
REMARK  status: ('A' for Active; 'I' for Inactive)
REMARK    1  A    between atoms: C_1  and  N_2
REMARK    2  A    between atoms: C_3  and  C_5
REMARK    3  A    between atoms: C_7  and  C_8
REMARK    4  A    between atoms: N_10  and  C_11
REMARK    5  A    between atoms: C_14  and  O_15
REMARK    6  A    between atoms: N_18  and  C_19
REMARK    7  A    between atoms: C_19  and  C_20
REMARK    8  A    between atoms: C_19  and  C_21
REMARK                            x       y       z     vdW  Elec       q    Type
REMARK                         _______ _______ _______ _____ _____    ______ ____
ROOT
ATOM      1  C   UNL     1       1.591  13.028  18.609  0.00  0.00    +0.000 A 
ATOM      2  C   UNL     1       2.224  11.762  18.641  0.00  0.00    +0.000 A 
ATOM      3  C   UNL     1       1.247  10.836  18.968  0.00  0.00    +0.000 A 
ATOM      4  N   UNL     1       0.098  11.587  19.136  0.00  0.00    +0.000 N 
ATOM      5  N   UNL     1       0.284  12.912  18.896  0.00  0.00    +0.000 NA
ENDROOT
BRANCH   1   8
ATOM      6  C   UNL     1       4.346  15.375  17.621  0.00  0.00    +0.000 C 
ATOM      7  N   UNL     1       3.534  14.222  17.895  0.00  0.00    +0.000 N 
ATOM      8  C   UNL     1       2.222  14.326  18.305  0.00  0.00    +0.000 C 
ATOM      9  O   UNL     1       1.626  15.390  18.413  0.00  0.00    +0.000 OA
ATOM     10  H   UNL     1       3.918  13.282  17.859  0.00  0.00    +0.000 HD
ENDBRANCH   1   8
BRANCH   3  11
ATOM     11  C   UNL     1       1.342   9.398  19.139  0.00  0.00    +0.000 C 
ATOM     12  O   UNL     1       0.818   8.793  20.069  0.00  0.00    +0.000 OA
ATOM     13  N   UNL     1       2.070   8.743  18.161  0.00  0.00    +0.000 N 
ATOM     14  H   UNL     1       2.420   9.279  17.378  0.00  0.00    +0.000 HD
BRANCH  13  15
ATOM     15  C   UNL     1       2.239   7.320  18.139  0.00  0.00    +0.000 C 
ATOM     16  C   UNL     1       2.982   6.642  19.263  0.00  0.00    +0.000 C 
ATOM     17  C   UNL     1       2.768   5.187  19.600  0.00  0.00    +0.000 C 
ATOM     18  C   UNL     1       3.744   4.449  18.672  0.00  0.00    +0.000 C 
ATOM     19  C   UNL     1       3.780   5.304  17.394  0.00  0.00    +0.000 C 
ATOM     20  C   UNL     1       3.601   6.716  17.898  0.00  0.00    +0.000 C 
BRANCH  18  21
ATOM     21  O   UNL     1       5.043   4.404  19.267  0.00  0.00    +0.000 OA
ATOM     22  H   UNL     1       5.392   5.313  19.286  0.00  0.00    +0.000 HD
ENDBRANCH  18  21
ENDBRANCH  13  15
ENDBRANCH   3  11
BRANCH   4  23
ATOM     23  C   UNL     1      -1.241  11.110  19.521  0.00  0.00    +0.000 C 
ATOM     24  C   UNL     1      -1.894  11.968  20.616  0.00  0.00    +0.000 C 
BRANCH  23  25
ATOM     25  C   UNL     1      -2.150  10.971  18.305  0.00  0.00    +0.000 A 
ATOM     26  C   UNL     1      -1.799  10.087  17.269  0.00  0.00    +0.000 A 
ATOM     27  C   UNL     1      -2.630   9.912  16.161  0.00  0.00    +0.000 A 
ATOM     28  C   UNL     1      -3.829  10.618  16.069  0.00  0.00    +0.000 A 
ATOM     29  C   UNL     1      -4.187  11.499  17.087  0.00  0.00    +0.000 A 
ATOM     30 CL   UNL     1      -5.669  12.368  16.975  0.00  0.00    +0.000 Cl
ATOM     31  C   UNL     1      -3.359  11.678  18.197  0.00  0.00    +0.000 A 
ENDBRANCH  23  25
ENDBRANCH   4  23
TORSDOF 6
ENDMDL
MODEL 8
REMARK VINA RESULT:      -7.1      1.804      1.939
REMARK  Name = 
REMARK  8 active torsions:
REMARK  status: ('A' for Active; 'I' for Inactive)
REMARK    1  A    between atoms: C_1  and  N_2
REMARK    2  A    between atoms: C_3  and  C_5
REMARK    3  A    between atoms: C_7  and  C_8
REMARK    4  A    between atoms: N_10  and  C_11
REMARK    5  A    between atoms: C_14  and  O_15
REMARK    6  A    between atoms: N_18  and  C_19
REMARK    7  A    between atoms: C_19  and  C_20
REMARK    8  A    between atoms: C_19  and  C_21
REMARK                            x       y       z     vdW  Elec       q    Type
REMARK                         _______ _______ _______ _____ _____    ______ ____
ROOT
ATOM      1  C   UNL     1       5.167   6.064  16.822  0.00  0.00    +0.000 A 
ATOM      2  C   UNL     1       4.519   7.206  17.355  0.00  0.00    +0.000 A 
ATOM      3  C   UNL     1       3.296   6.777  17.846  0.00  0.00    +0.000 A 
ATOM      4  N   UNL     1       3.264   5.423  17.565  0.00  0.00    +0.000 N 
ATOM      5  N   UNL     1       4.400   4.971  16.971  0.00  0.00    +0.000 NA
ENDROOT
BRANCH   1   8
ATOM      6  C   UNL     1       7.707   5.197  14.201  0.00  0.00    +0.000 C 
ATOM      7  N   UNL     1       6.499   5.408  14.950  0.00  0.00    +0.000 N 
ATOM      8  C   UNL     1       6.497   6.016  16.188  0.00  0.00    +0.000 C 
ATOM      9  O   UNL     1       7.499   6.474  16.721  0.00  0.00    +0.000 OA
ATOM     10  H   UNL     1       5.603   5.057  14.623  0.00  0.00    +0.000 HD
ENDBRANCH   1   8
BRANCH   3  11
ATOM     11  C   UNL     1       2.235   7.526  18.492  0.00  0.00    +0.000 C 
ATOM     12  O   UNL     1       1.439   8.232  17.880  0.00  0.00    +0.000 OA
ATOM     13  N   UNL     1       2.174   7.382  19.867  0.00  0.00    +0.000 N 
ATOM     14  H   UNL     1       2.808   6.732  20.313  0.00  0.00    +0.000 HD
BRANCH  13  15
ATOM     15  C   UNL     1       1.169   8.011  20.672  0.00  0.00    +0.000 C 
ATOM     16  C   UNL     1       0.807   9.452  20.416  0.00  0.00    +0.000 C 
ATOM     17  C   UNL     1      -0.530  10.024  20.817  0.00  0.00    +0.000 C 
ATOM     18  C   UNL     1      -0.319  10.462  22.274  0.00  0.00    +0.000 C 
ATOM     19  C   UNL     1       0.670   9.433  22.845  0.00  0.00    +0.000 C 
ATOM     20  C   UNL     1       1.547   9.081  21.667  0.00  0.00    +0.000 C 
BRANCH  18  21
ATOM     21  O   UNL     1       0.260  11.769  22.310  0.00  0.00    +0.000 OA
ATOM     22  H   UNL     1       0.879  11.798  23.061  0.00  0.00    +0.000 HD
ENDBRANCH  18  21
ENDBRANCH  13  15
ENDBRANCH   3  11
BRANCH   4  23
ATOM     23  C   UNL     1       2.175   4.472  17.846  0.00  0.00    +0.000 C 
ATOM     24  C   UNL     1       1.990   3.426  16.735  0.00  0.00    +0.000 C 
BRANCH  23  25
ATOM     25  C   UNL     1       2.352   3.814  19.208  0.00  0.00    +0.000 A 
ATOM     26  C   UNL     1       1.340   3.932  20.178  0.00  0.00    +0.000 A 
ATOM     27  C   UNL     1       1.459   3.309  21.422  0.00  0.00    +0.000 A 
ATOM     28  C   UNL     1       2.593   2.555  21.719  0.00  0.00    +0.000 A 
ATOM     29  C   UNL     1       3.605   2.431  20.769  0.00  0.00    +0.000 A 
ATOM     30 CL   UNL     1       5.003   1.497  21.135  0.00  0.00    +0.000 Cl
ATOM     31  C   UNL     1       3.491   3.053  19.524  0.00  0.00    +0.000 A 
ENDBRANCH  23  25
ENDBRANCH   4  23
TORSDOF 6
ENDMDL
MODEL 9
REMARK VINA RESULT:      -7.1      4.280      8.321
REMARK  Name = 
REMARK  8 active torsions:
REMARK  status: ('A' for Active; 'I' for Inactive)
REMARK    1  A    between atoms: C_1  and  N_2
REMARK    2  A    between atoms: C_3  and  C_5
REMARK    3  A    between atoms: C_7  and  C_8
REMARK    4  A    between atoms: N_10  and  C_11
REMARK    5  A    between atoms: C_14  and  O_15
REMARK    6  A    between atoms: N_18  and  C_19
REMARK    7  A    between atoms: C_19  and  C_20
REMARK    8  A    between atoms: C_19  and  C_21
REMARK                            x       y       z     vdW  Elec       q    Type
REMARK                         _______ _______ _______ _____ _____    ______ ____
ROOT
ATOM      1  C   UNL     1       1.918  12.525  18.361  0.00  0.00    +0.000 A 
ATOM      2  C   UNL     1       2.693  11.377  18.065  0.00  0.00    +0.000 A 
ATOM      3  C   UNL     1       1.887  10.277  18.314  0.00  0.00    +0.000 A 
ATOM      4  N   UNL     1       0.694  10.815  18.764  0.00  0.00    +0.000 N 
ATOM      5  N   UNL     1       0.688  12.174  18.772  0.00  0.00    +0.000 NA
ENDROOT
BRANCH   1   8
ATOM      6  C   UNL     1       4.259  15.376  17.678  0.00  0.00    +0.000 C 
ATOM      7  N   UNL     1       3.633  14.087  17.789  0.00  0.00    +0.000 N 
ATOM      8  C   UNL     1       2.343  13.933  18.249  0.00  0.00    +0.000 C 
ATOM      9  O   UNL     1       1.609  14.868  18.544  0.00  0.00    +0.000 OA
ATOM     10  H   UNL     1       4.143  13.231  17.592  0.00  0.00    +0.000 HD
ENDBRANCH   1   8
BRANCH   3  11
ATOM     11  C   UNL     1       2.173   8.861  18.183  0.00  0.00    +0.000 C 
ATOM     12  O   UNL     1       2.415   8.318  17.109  0.00  0.00    +0.000 OA
ATOM     13  N   UNL     1       2.161   8.153  19.371  0.00  0.00    +0.000 N 
ATOM     14  H   UNL     1       2.027   8.660  20.236  0.00  0.00    +0.000 HD
BRANCH  13  15
ATOM     15  C   UNL     1       2.461   6.753  19.446  0.00  0.00    +0.000 C 
ATOM     16  C   UNL     1       1.426   5.747  19.009  0.00  0.00    +0.000 C 
ATOM     17  C   UNL     1       1.801   4.355  18.563  0.00  0.00    +0.000 C 
ATOM     18  C   UNL     1       1.853   3.553  19.872  0.00  0.00    +0.000 C 
ATOM     19  C   UNL     1       2.352   4.561  20.921  0.00  0.00    +0.000 C 
ATOM     20  C   UNL     1       1.772   5.877  20.464  0.00  0.00    +0.000 C 
BRANCH  18  21
ATOM     21  O   UNL     1       0.543   3.098  20.217  0.00  0.00    +0.000 OA
ATOM     22  H   UNL     1       0.067   3.843  20.624  0.00  0.00    +0.000 HD
ENDBRANCH  18  21
ENDBRANCH  13  15
ENDBRANCH   3  11
BRANCH   4  23
ATOM     23  C   UNL     1      -0.511  10.090  19.202  0.00  0.00    +0.000 C 
ATOM     24  C   UNL     1      -0.858  10.337  20.679  0.00  0.00    +0.000 C 
BRANCH  23  25
ATOM     25  C   UNL     1      -1.696  10.387  18.293  0.00  0.00    +0.000 A 
ATOM     26  C   UNL     1      -1.738   9.837  16.998  0.00  0.00    +0.000 A 
ATOM     27  C   UNL     1      -2.829  10.063  16.157  0.00  0.00    +0.000 A 
ATOM     28  C   UNL     1      -3.900  10.841  16.595  0.00  0.00    +0.000 A 
ATOM     29  C   UNL     1      -3.870  11.394  17.873  0.00  0.00    +0.000 A 
ATOM     30 CL   UNL     1      -5.193  12.352  18.415  0.00  0.00    +0.000 Cl
ATOM     31  C   UNL     1      -2.781  11.172  18.719  0.00  0.00    +0.000 A 
ENDBRANCH  23  25
ENDBRANCH   4  23
TORSDOF 6
ENDMDL
