MODEL 1
REMARK VINA RESULT:      -7.7      0.000      0.000
REMARK  Name = 
REMARK  0 active torsions:
REMARK  status: ('A' for Active; 'I' for Inactive)
REMARK                            x       y       z     vdW  Elec       q    Type
REMARK                         _______ _______ _______ _____ _____    ______ ____
ROOT
ATOM      1  O   UNL     1       5.641   3.996  14.954  0.00  0.00    +0.000 OA
ATOM      2  C   UNL     1       5.984   4.196  16.112  0.00  0.00    +0.000 A 
ATOM      3  N   UNL     1       7.266   4.541  16.450  0.00  0.00    +0.000 N 
ATOM      4  C   UNL     1       7.651   4.764  17.741  0.00  0.00    +0.000 A 
ATOM      5  N   UNL     1       6.866   4.675  18.757  0.00  0.00    +0.000 NA
ATOM      6  C   UNL     1       5.530   4.325  18.506  0.00  0.00    +0.000 A 
ATOM      7  N   UNL     1       4.754   4.245  19.607  0.00  0.00    +0.000 NA
ATOM      8  C   UNL     1       3.457   3.915  19.449  0.00  0.00    +0.000 A 
ATOM      9  C   UNL     1       2.633   3.825  20.563  0.00  0.00    +0.000 A 
ATOM     10  C   UNL     1       1.279   3.486  20.453  0.00  0.00    +0.000 A 
ATOM     11  C   UNL     1       0.729   3.228  19.203  0.00  0.00    +0.000 A 
ATOM     12  C   UNL     1       1.530   3.310  18.067  0.00  0.00    +0.000 A 
ATOM     13  C   UNL     1       2.888   3.650  18.182  0.00  0.00    +0.000 A 
ATOM     14  C   UNL     1       3.712   3.738  17.056  0.00  0.00    +0.000 A 
ATOM     15  C   UNL     1       5.047   4.080  17.233  0.00  0.00    +0.000 A 
ATOM     16  H   UNL     1       7.926   4.625  15.690  0.00  0.00    +0.000 HD
ENDROOT
TORSDOF 0
ENDMDL
MODEL 2
REMARK VINA RESULT:      -7.5      2.257      4.758
REMARK  Name = 
REMARK  0 active torsions:
REMARK  status: ('A' for Active; 'I' for Inactive)
REMARK                            x       y       z     vdW  Elec       q    Type
REMARK                         _______ _______ _______ _____ _____    ______ ____
ROOT
ATOM      1  O   UNL     1       1.147   4.329  17.198  0.00  0.00    +0.000 OA
ATOM      2  C   UNL     1       1.923   3.800  17.983  0.00  0.00    +0.000 A 
ATOM      3  N   UNL     1       1.577   2.708  18.734  0.00  0.00    +0.000 N 
ATOM      4  C   UNL     1       2.440   2.116  19.612  0.00  0.00    +0.000 A 
ATOM      5  N   UNL     1       3.645   2.514  19.821  0.00  0.00    +0.000 NA
ATOM      6  C   UNL     1       4.088   3.630  19.095  0.00  0.00    +0.000 A 
ATOM      7  N   UNL     1       5.358   4.003  19.356  0.00  0.00    +0.000 NA
ATOM      8  C   UNL     1       5.858   5.067  18.697  0.00  0.00    +0.000 A 
ATOM      9  C   UNL     1       7.161   5.475  18.944  0.00  0.00    +0.000 A 
ATOM     10  C   UNL     1       7.727   6.573  18.286  0.00  0.00    +0.000 A 
ATOM     11  C   UNL     1       6.978   7.286  17.357  0.00  0.00    +0.000 A 
ATOM     12  C   UNL     1       5.667   6.902  17.088  0.00  0.00    +0.000 A 
ATOM     13  C   UNL     1       5.103   5.799  17.751  0.00  0.00    +0.000 A 
ATOM     14  C   UNL     1       3.789   5.395  17.498  0.00  0.00    +0.000 A 
ATOM     15  C   UNL     1       3.287   4.296  18.183  0.00  0.00    +0.000 A 
ATOM     16  H   UNL     1       0.639   2.352  18.610  0.00  0.00    +0.000 HD
ENDROOT
TORSDOF 0
ENDMDL
MODEL 3
REMARK VINA RESULT:      -7.5      1.562      1.612
REMARK  Name = 
REMARK  0 active torsions:
REMARK  status: ('A' for Active; 'I' for Inactive)
REMARK                            x       y       z     vdW  Elec       q    Type
REMARK                         _______ _______ _______ _____ _____    ______ ____
ROOT
ATOM      1  O   UNL     1       5.871   7.002  16.162  0.00  0.00    +0.000 OA
ATOM      2  C   UNL     1       6.193   6.441  17.201  0.00  0.00    +0.000 A 
ATOM      3  N   UNL     1       7.402   6.656  17.808  0.00  0.00    +0.000 N 
ATOM      4  C   UNL     1       7.764   6.030  18.967  0.00  0.00    +0.000 A 
ATOM      5  N   UNL     1       7.022   5.188  19.597  0.00  0.00    +0.000 NA
ATOM      6  C   UNL     1       5.763   4.906  19.048  0.00  0.00    +0.000 A 
ATOM      7  N   UNL     1       5.029   4.016  19.750  0.00  0.00    +0.000 NA
ATOM      8  C   UNL     1       3.806   3.693  19.287  0.00  0.00    +0.000 A 
ATOM      9  C   UNL     1       3.028   2.782  19.988  0.00  0.00    +0.000 A 
ATOM     10  C   UNL     1       1.751   2.413  19.549  0.00  0.00    +0.000 A 
ATOM     11  C   UNL     1       1.233   2.962  18.383  0.00  0.00    +0.000 A 
ATOM     12  C   UNL     1       1.989   3.879  17.658  0.00  0.00    +0.000 A 
ATOM     13  C   UNL     1       3.271   4.247  18.101  0.00  0.00    +0.000 A 
ATOM     14  C   UNL     1       4.049   5.164  17.390  0.00  0.00    +0.000 A 
ATOM     15  C   UNL     1       5.308   5.490  17.878  0.00  0.00    +0.000 A 
ATOM     16  H   UNL     1       8.026   7.308  17.354  0.00  0.00    +0.000 HD
ENDROOT
TORSDOF 0
ENDMDL
MODEL 4
REMARK VINA RESULT:      -7.5      1.594      2.405
REMARK  Name = 
REMARK  0 active torsions:
REMARK  status: ('A' for Active; 'I' for Inactive)
REMARK                            x       y       z     vdW  Elec       q    Type
REMARK                         _______ _______ _______ _____ _____    ______ ____
ROOT
ATOM      1  O   UNL     1       7.682   5.070  18.926  0.00  0.00    +0.000 OA
ATOM      2  C   UNL     1       6.995   4.743  17.968  0.00  0.00    +0.000 A 
ATOM      3  N   UNL     1       7.502   4.653  16.698  0.00  0.00    +0.000 N 
ATOM      4  C   UNL     1       6.739   4.289  15.626  0.00  0.00    +0.000 A 
ATOM      5  N   UNL     1       5.487   3.997  15.694  0.00  0.00    +0.000 NA
ATOM      6  C   UNL     1       4.881   4.062  16.957  0.00  0.00    +0.000 A 
ATOM      7  N   UNL     1       3.568   3.747  16.969  0.00  0.00    +0.000 NA
ATOM      8  C   UNL     1       2.915   3.785  18.146  0.00  0.00    +0.000 A 
ATOM      9  C   UNL     1       1.564   3.467  18.191  0.00  0.00    +0.000 A 
ATOM     10  C   UNL     1       0.840   3.491  19.388  0.00  0.00    +0.000 A 
ATOM     11  C   UNL     1       1.473   3.841  20.574  0.00  0.00    +0.000 A 
ATOM     12  C   UNL     1       2.827   4.167  20.562  0.00  0.00    +0.000 A 
ATOM     13  C   UNL     1       3.551   4.142  19.359  0.00  0.00    +0.000 A 
ATOM     14  C   UNL     1       4.910   4.464  19.322  0.00  0.00    +0.000 A 
ATOM     15  C   UNL     1       5.572   4.421  18.102  0.00  0.00    +0.000 A 
ATOM     16  H   UNL     1       8.482   4.872  16.586  0.00  0.00    +0.000 HD
ENDROOT
TORSDOF 0
ENDMDL
MODEL 5
REMARK VINA RESULT:      -7.3      1.350      1.360
REMARK  Name = 
REMARK  0 active torsions:
REMARK  status: ('A' for Active; 'I' for Inactive)
REMARK                            x       y       z     vdW  Elec       q    Type
REMARK                         _______ _______ _______ _____ _____    ______ ____
ROOT
ATOM      1  O   UNL     1       4.930   6.812  16.082  0.00  0.00    +0.000 OA
ATOM      2  C   UNL     1       5.524   6.076  16.859  0.00  0.00    +0.000 A 
ATOM      3  N   UNL     1       6.891   5.997  16.895  0.00  0.00    +0.000 N 
ATOM      4  C   UNL     1       7.558   5.176  17.760  0.00  0.00    +0.000 A 
ATOM      5  N   UNL     1       6.983   4.405  18.615  0.00  0.00    +0.000 NA
ATOM      6  C   UNL     1       5.580   4.420  18.650  0.00  0.00    +0.000 A 
ATOM      7  N   UNL     1       5.032   3.592  19.564  0.00  0.00    +0.000 NA
ATOM      8  C   UNL     1       3.689   3.549  19.661  0.00  0.00    +0.000 A 
ATOM      9  C   UNL     1       3.095   2.708  20.592  0.00  0.00    +0.000 A 
ATOM     10  C   UNL     1       1.705   2.627  20.731  0.00  0.00    +0.000 A 
ATOM     11  C   UNL     1       0.881   3.402  19.924  0.00  0.00    +0.000 A 
ATOM     12  C   UNL     1       1.446   4.255  18.980  0.00  0.00    +0.000 A 
ATOM     13  C   UNL     1       2.842   4.334  18.843  0.00  0.00    +0.000 A 
ATOM     14  C   UNL     1       3.432   5.182  17.902  0.00  0.00    +0.000 A 
ATOM     15  C   UNL     1       4.819   5.218  17.814  0.00  0.00    +0.000 A 
ATOM     16  H   UNL     1       7.395   6.581  16.243  0.00  0.00    +0.000 HD
ENDROOT
TORSDOF 0
ENDMDL
MODEL 6
REMARK VINA RESULT:      -7.2      2.683      5.411
REMARK  Name = 
REMARK  0 active torsions:
REMARK  status: ('A' for Active; 'I' for Inactive)
REMARK                            x       y       z     vdW  Elec       q    Type
REMARK                         _______ _______ _______ _____ _____    ______ ____
ROOT
ATOM      1  O   UNL     1       4.310   3.428  18.374  0.00  0.00    +0.000 OA
ATOM      2  C   UNL     1       5.274   4.163  18.206  0.00  0.00    +0.000 A 
ATOM      3  N   UNL     1       5.871   4.838  19.238  0.00  0.00    +0.000 N 
ATOM      4  C   UNL     1       6.946   5.660  19.055  0.00  0.00    +0.000 A 
ATOM      5  N   UNL     1       7.500   5.883  17.915  0.00  0.00    +0.000 NA
ATOM      6  C   UNL     1       6.954   5.233  16.798  0.00  0.00    +0.000 A 
ATOM      7  N   UNL     1       7.574   5.505  15.630  0.00  0.00    +0.000 NA
ATOM      8  C   UNL     1       7.109   4.917  14.510  0.00  0.00    +0.000 A 
ATOM      9  C   UNL     1       7.726   5.177  13.294  0.00  0.00    +0.000 A 
ATOM     10  C   UNL     1       7.281   4.592  12.102  0.00  0.00    +0.000 A 
ATOM     11  C   UNL     1       6.194   3.727  12.119  0.00  0.00    +0.000 A 
ATOM     12  C   UNL     1       5.554   3.447  13.323  0.00  0.00    +0.000 A 
ATOM     13  C   UNL     1       6.003   4.036  14.517  0.00  0.00    +0.000 A 
ATOM     14  C   UNL     1       5.376   3.771  15.737  0.00  0.00    +0.000 A 
ATOM     15  C   UNL     1       5.866   4.382  16.884  0.00  0.00    +0.000 A 
ATOM     16  H   UNL     1       5.475   4.700  20.158  0.00  0.00    +0.000 HD
ENDROOT
TORSDOF 0
ENDMDL
MODEL 7
REMARK VINA RESULT:      -7.2      1.911      2.408
REMARK  Name = 
REMARK  0 active torsions:
REMARK  status: ('A' for Active; 'I' for Inactive)
REMARK                            x       y       z     vdW  Elec       q    Type
REMARK                         _______ _______ _______ _____ _____    ______ ____
ROOT
ATOM      1  O   UNL     1       6.728   7.380  17.077  0.00  0.00    +0.000 OA
ATOM      2  C   UNL     1       6.438   6.268  16.657  0.00  0.00    +0.000 A 
ATOM      3  N   UNL     1       7.144   5.654  15.657  0.00  0.00    +0.000 N 
ATOM      4  C   UNL     1       6.824   4.413  15.185  0.00  0.00    +0.000 A 
ATOM      5  N   UNL     1       5.843   3.704  15.622  0.00  0.00    +0.000 NA
ATOM      6  C   UNL     1       5.062   4.253  16.650  0.00  0.00    +0.000 A 
ATOM      7  N   UNL     1       4.048   3.466  17.068  0.00  0.00    +0.000 NA
ATOM      8  C   UNL     1       3.252   3.923  18.054  0.00  0.00    +0.000 A 
ATOM      9  C   UNL     1       2.201   3.137  18.506  0.00  0.00    +0.000 A 
ATOM     10  C   UNL     1       1.346   3.566  19.528  0.00  0.00    +0.000 A 
ATOM     11  C   UNL     1       1.539   4.809  20.117  0.00  0.00    +0.000 A 
ATOM     12  C   UNL     1       2.584   5.622  19.685  0.00  0.00    +0.000 A 
ATOM     13  C   UNL     1       3.440   5.188  18.659  0.00  0.00    +0.000 A 
ATOM     14  C   UNL     1       4.496   5.986  18.209  0.00  0.00    +0.000 A 
ATOM     15  C   UNL     1       5.309   5.502  17.192  0.00  0.00    +0.000 A 
ATOM     16  H   UNL     1       7.926   6.167  15.275  0.00  0.00    +0.000 HD
ENDROOT
TORSDOF 0
ENDMDL
MODEL 8
REMARK VINA RESULT:      -7.1      2.239      2.831
REMARK  Name = 
REMARK  0 active torsions:
REMARK  status: ('A' for Active; 'I' for Inactive)
REMARK                            x       y       z     vdW  Elec       q    Type
REMARK                         _______ _______ _______ _____ _____    ______ ____
ROOT
ATOM      1  O   UNL     1       7.756   5.226  20.215  0.00  0.00    +0.000 OA
ATOM      2  C   UNL     1       7.177   5.698  19.246  0.00  0.00    +0.000 A 
ATOM      3  N   UNL     1       7.751   6.638  18.432  0.00  0.00    +0.000 N 
ATOM      4  C   UNL     1       7.107   7.167  17.350  0.00  0.00    +0.000 A 
ATOM      5  N   UNL     1       5.914   6.845  16.989  0.00  0.00    +0.000 NA
ATOM      6  C   UNL     1       5.246   5.886  17.766  0.00  0.00    +0.000 A 
ATOM      7  N   UNL     1       4.000   5.588  17.342  0.00  0.00    +0.000 NA
ATOM      8  C   UNL     1       3.293   4.675  18.035  0.00  0.00    +0.000 A 
ATOM      9  C   UNL     1       2.008   4.346  17.623  0.00  0.00    +0.000 A 
ATOM     10  C   UNL     1       1.232   3.405  18.308  0.00  0.00    +0.000 A 
ATOM     11  C   UNL     1       1.745   2.771  19.434  0.00  0.00    +0.000 A 
ATOM     12  C   UNL     1       3.030   3.080  19.873  0.00  0.00    +0.000 A 
ATOM     13  C   UNL     1       3.806   4.026  19.182  0.00  0.00    +0.000 A 
ATOM     14  C   UNL     1       5.098   4.352  19.604  0.00  0.00    +0.000 A 
ATOM     15  C   UNL     1       5.817   5.294  18.879  0.00  0.00    +0.000 A 
ATOM     16  H   UNL     1       8.689   6.930  18.670  0.00  0.00    +0.000 HD
ENDROOT
TORSDOF 0
ENDMDL
MODEL 9
REMARK VINA RESULT:      -7.0      1.277      1.277
REMARK  Name = 
REMARK  0 active torsions:
REMARK  status: ('A' for Active; 'I' for Inactive)
REMARK                            x       y       z     vdW  Elec       q    Type
REMARK                         _______ _______ _______ _____ _____    ______ ____
ROOT
ATOM      1  O   UNL     1       6.021   3.618  15.113  0.00  0.00    +0.000 OA
ATOM      2  C   UNL     1       5.905   4.519  15.933  0.00  0.00    +0.000 A 
ATOM      3  N   UNL     1       6.762   5.586  15.979  0.00  0.00    +0.000 N 
ATOM      4  C   UNL     1       6.636   6.592  16.894  0.00  0.00    +0.000 A 
ATOM      5  N   UNL     1       5.716   6.643  17.792  0.00  0.00    +0.000 NA
ATOM      6  C   UNL     1       4.789   5.590  17.821  0.00  0.00    +0.000 A 
ATOM      7  N   UNL     1       3.848   5.695  18.783  0.00  0.00    +0.000 NA
ATOM      8  C   UNL     1       2.921   4.722  18.875  0.00  0.00    +0.000 A 
ATOM      9  C   UNL     1       1.939   4.802  19.854  0.00  0.00    +0.000 A 
ATOM     10  C   UNL     1       0.954   3.818  19.991  0.00  0.00    +0.000 A 
ATOM     11  C   UNL     1       0.942   2.724  19.134  0.00  0.00    +0.000 A 
ATOM     12  C   UNL     1       1.913   2.615  18.143  0.00  0.00    +0.000 A 
ATOM     13  C   UNL     1       2.901   3.604  18.008  0.00  0.00    +0.000 A 
ATOM     14  C   UNL     1       3.886   3.517  17.020  0.00  0.00    +0.000 A 
ATOM     15  C   UNL     1       4.836   4.527  16.935  0.00  0.00    +0.000 A 
ATOM     16  H   UNL     1       7.507   5.597  15.296  0.00  0.00    +0.000 HD
ENDROOT
TORSDOF 0
ENDMDL
