MODEL 1
REMARK VINA RESULT:      -6.8      0.000      0.000
REMARK  Name = 
REMARK  2 active torsions:
REMARK  status: ('A' for Active; 'I' for Inactive)
REMARK    1  A    between atoms: N_3  and  N_4
REMARK    2  A    between atoms: C_5  and  C_6
REMARK                            x       y       z     vdW  Elec       q    Type
REMARK                         _______ _______ _______ _____ _____    ______ ____
ROOT
ATOM      1  O   UNL     1       1.160   8.476  21.998  0.00  0.00    +0.000 OA
ATOM      2  C   UNL     1       1.473   8.095  20.878  0.00  0.00    +0.000 C 
ATOM      3  N   UNL     1       2.025   6.840  20.699  0.00  0.00    +0.000 N 
ATOM      4  N   UNL     1       1.345   8.787  19.693  0.00  0.00    +0.000 N 
ATOM      5  C   UNL     1       0.887  10.049  19.430  0.00  0.00    +0.000 A 
ATOM      6  N   UNL     1       0.858  10.502  18.217  0.00  0.00    +0.000 NA
ATOM      7  N   UNL     1       0.357  11.775  18.235  0.00  0.00    +0.000 N 
ATOM      8  C   UNL     1      -0.007  12.294  19.448  0.00  0.00    +0.000 A 
ATOM      9  S   UNL     1      -0.657  13.803  19.660  0.00  0.00    +0.000 S 
ATOM     10  S   UNL     1       0.324  11.111  20.679  0.00  0.00    +0.000 S 
ATOM     11  H   UNL     1       2.158   6.277  21.534  0.00  0.00    +0.000 HD
ATOM     12  H   UNL     1       1.658   8.249  18.898  0.00  0.00    +0.000 HD
ATOM     13  H   UNL     1       0.251  12.285  17.364  0.00  0.00    +0.000 HD
ENDROOT
BRANCH   3  14
ATOM     14  N   UNL     1       2.396   6.386  19.467  0.00  0.00    +0.000 NA
ATOM     15  C   UNL     1       3.664   6.143  19.333  0.00  0.00    +0.000 C 
BRANCH  15  16
ATOM     16  C   UNL     1       4.222   5.656  18.056  0.00  0.00    +0.000 A 
ATOM     17  C   UNL     1       4.758   6.558  17.130  0.00  0.00    +0.000 A 
ATOM     18  C   UNL     1       5.295   6.088  15.931  0.00  0.00    +0.000 A 
ATOM     19  C   UNL     1       5.293   4.720  15.663  0.00  0.00    +0.000 A 
ATOM     20 BR   UNL     1       6.027   4.086  14.041  0.00  0.00    +0.000 Br
ATOM     21  C   UNL     1       4.756   3.817  16.582  0.00  0.00    +0.000 A 
ATOM     22  C   UNL     1       4.217   4.285  17.784  0.00  0.00    +0.000 A 
ENDBRANCH  15  16
ENDBRANCH   3  14
TORSDOF 2
ENDMDL
MODEL 2
REMARK VINA RESULT:      -6.6      0.624      1.273
REMARK  Name = 
REMARK  2 active torsions:
REMARK  status: ('A' for Active; 'I' for Inactive)
REMARK    1  A    between atoms: N_3  and  N_4
REMARK    2  A    between atoms: C_5  and  C_6
REMARK                            x       y       z     vdW  Elec       q    Type
REMARK                         _______ _______ _______ _____ _____    ______ ____
ROOT
ATOM      1  O   UNL     1       0.555   8.594  22.096  0.00  0.00    +0.000 OA
ATOM      2  C   UNL     1       1.124   8.425  21.025  0.00  0.00    +0.000 C 
ATOM      3  N   UNL     1       1.805   7.249  20.776  0.00  0.00    +0.000 N 
ATOM      4  N   UNL     1       1.183   9.303  19.963  0.00  0.00    +0.000 N 
ATOM      5  C   UNL     1       0.683  10.566  19.808  0.00  0.00    +0.000 A 
ATOM      6  N   UNL     1       0.866  11.218  18.703  0.00  0.00    +0.000 NA
ATOM      7  N   UNL     1       0.266  12.442  18.811  0.00  0.00    +0.000 N 
ATOM      8  C   UNL     1      -0.383  12.728  19.982  0.00  0.00    +0.000 A 
ATOM      9  S   UNL     1      -1.189  14.145  20.281  0.00  0.00    +0.000 S 
ATOM     10  S   UNL     1      -0.213  11.370  21.055  0.00  0.00    +0.000 S 
ATOM     11  H   UNL     1       1.811   6.559  21.522  0.00  0.00    +0.000 HD
ATOM     12  H   UNL     1       1.698   8.925  19.181  0.00  0.00    +0.000 HD
ATOM     13  H   UNL     1       0.298  13.088  18.028  0.00  0.00    +0.000 HD
ENDROOT
BRANCH   3  14
ATOM     14  N   UNL     1       2.459   7.031  19.599  0.00  0.00    +0.000 NA
ATOM     15  C   UNL     1       3.016   5.864  19.491  0.00  0.00    +0.000 C 
BRANCH  15  16
ATOM     16  C   UNL     1       3.769   5.481  18.281  0.00  0.00    +0.000 A 
ATOM     17  C   UNL     1       3.927   4.132  17.944  0.00  0.00    +0.000 A 
ATOM     18  C   UNL     1       4.629   3.779  16.791  0.00  0.00    +0.000 A 
ATOM     19  C   UNL     1       5.173   4.775  15.982  0.00  0.00    +0.000 A 
ATOM     20 BR   UNL     1       6.119   4.295  14.417  0.00  0.00    +0.000 Br
ATOM     21  C   UNL     1       5.023   6.122  16.316  0.00  0.00    +0.000 A 
ATOM     22  C   UNL     1       4.319   6.479  17.470  0.00  0.00    +0.000 A 
ENDBRANCH  15  16
ENDBRANCH   3  14
TORSDOF 2
ENDMDL
MODEL 3
REMARK VINA RESULT:      -6.6      5.093      7.789
REMARK  Name = 
REMARK  2 active torsions:
REMARK  status: ('A' for Active; 'I' for Inactive)
REMARK    1  A    between atoms: N_3  and  N_4
REMARK    2  A    between atoms: C_5  and  C_6
REMARK                            x       y       z     vdW  Elec       q    Type
REMARK                         _______ _______ _______ _____ _____    ______ ____
ROOT
ATOM      1  O   UNL     1       3.537   4.125  19.669  0.00  0.00    +0.000 OA
ATOM      2  C   UNL     1       3.177   5.291  19.557  0.00  0.00    +0.000 C 
ATOM      3  N   UNL     1       2.335   5.853  20.498  0.00  0.00    +0.000 N 
ATOM      4  N   UNL     1       3.516   6.178  18.558  0.00  0.00    +0.000 N 
ATOM      5  C   UNL     1       4.284   6.023  17.437  0.00  0.00    +0.000 A 
ATOM      6  N   UNL     1       4.467   7.012  16.620  0.00  0.00    +0.000 NA
ATOM      7  N   UNL     1       5.270   6.593  15.595  0.00  0.00    +0.000 N 
ATOM      8  C   UNL     1       5.711   5.297  15.626  0.00  0.00    +0.000 A 
ATOM      9  S   UNL     1       6.709   4.624  14.489  0.00  0.00    +0.000 S 
ATOM     10  S   UNL     1       5.052   4.521  17.036  0.00  0.00    +0.000 S 
ATOM     11  H   UNL     1       2.037   5.250  21.260  0.00  0.00    +0.000 HD
ATOM     12  H   UNL     1       3.105   7.089  18.698  0.00  0.00    +0.000 HD
ATOM     13  H   UNL     1       5.531   7.245  14.862  0.00  0.00    +0.000 HD
ENDROOT
BRANCH   3  14
ATOM     14  N   UNL     1       1.905   7.143  20.400  0.00  0.00    +0.000 NA
ATOM     15  C   UNL     1       1.083   7.518  21.332  0.00  0.00    +0.000 C 
BRANCH  15  16
ATOM     16  C   UNL     1       0.521   8.883  21.358  0.00  0.00    +0.000 A 
ATOM     17  C   UNL     1       0.547   9.679  20.207  0.00  0.00    +0.000 A 
ATOM     18  C   UNL     1       0.002  10.963  20.236  0.00  0.00    +0.000 A 
ATOM     19  C   UNL     1      -0.564  11.446  21.415  0.00  0.00    +0.000 A 
ATOM     20 BR   UNL     1      -1.307  13.184  21.450  0.00  0.00    +0.000 Br
ATOM     21  C   UNL     1      -0.587  10.657  22.567  0.00  0.00    +0.000 A 
ATOM     22  C   UNL     1      -0.043   9.370  22.540  0.00  0.00    +0.000 A 
ENDBRANCH  15  16
ENDBRANCH   3  14
TORSDOF 2
ENDMDL
MODEL 4
REMARK VINA RESULT:      -6.6      5.080      7.814
REMARK  Name = 
REMARK  2 active torsions:
REMARK  status: ('A' for Active; 'I' for Inactive)
REMARK    1  A    between atoms: N_3  and  N_4
REMARK    2  A    between atoms: C_5  and  C_6
REMARK                            x       y       z     vdW  Elec       q    Type
REMARK                         _______ _______ _______ _____ _____    ______ ____
ROOT
ATOM      1  O   UNL     1       3.584   4.161  19.739  0.00  0.00    +0.000 OA
ATOM      2  C   UNL     1       3.191   5.313  19.605  0.00  0.00    +0.000 C 
ATOM      3  N   UNL     1       2.339   5.871  20.539  0.00  0.00    +0.000 N 
ATOM      4  N   UNL     1       3.498   6.187  18.584  0.00  0.00    +0.000 N 
ATOM      5  C   UNL     1       4.263   6.030  17.461  0.00  0.00    +0.000 A 
ATOM      6  N   UNL     1       4.412   7.005  16.622  0.00  0.00    +0.000 NA
ATOM      7  N   UNL     1       5.220   6.587  15.601  0.00  0.00    +0.000 N 
ATOM      8  C   UNL     1       5.698   5.305  15.656  0.00  0.00    +0.000 A 
ATOM      9  S   UNL     1       6.708   4.635  14.527  0.00  0.00    +0.000 S 
ATOM     10  S   UNL     1       5.071   4.542  17.088  0.00  0.00    +0.000 S 
ATOM     11  H   UNL     1       2.063   5.277  21.316  0.00  0.00    +0.000 HD
ATOM     12  H   UNL     1       3.062   7.089  18.707  0.00  0.00    +0.000 HD
ATOM     13  H   UNL     1       5.457   7.230  14.852  0.00  0.00    +0.000 HD
ENDROOT
BRANCH   3  14
ATOM     14  N   UNL     1       1.872   7.147  20.416  0.00  0.00    +0.000 NA
ATOM     15  C   UNL     1       1.078   7.532  21.367  0.00  0.00    +0.000 C 
BRANCH  15  16
ATOM     16  C   UNL     1       0.481   8.882  21.370  0.00  0.00    +0.000 A 
ATOM     17  C   UNL     1      -0.077   9.405  22.542  0.00  0.00    +0.000 A 
ATOM     18  C   UNL     1      -0.628  10.687  22.540  0.00  0.00    +0.000 A 
ATOM     19  C   UNL     1      -0.619  11.439  21.367  0.00  0.00    +0.000 A 
ATOM     20 BR   UNL     1      -1.360  13.179  21.368  0.00  0.00    +0.000 Br
ATOM     21  C   UNL     1      -0.068  10.921  20.194  0.00  0.00    +0.000 A 
ATOM     22  C   UNL     1       0.485   9.637  20.193  0.00  0.00    +0.000 A 
ENDBRANCH  15  16
ENDBRANCH   3  14
TORSDOF 2
ENDMDL
MODEL 5
REMARK VINA RESULT:      -6.4      6.311      7.959
REMARK  Name = 
REMARK  2 active torsions:
REMARK  status: ('A' for Active; 'I' for Inactive)
REMARK    1  A    between atoms: N_3  and  N_4
REMARK    2  A    between atoms: C_5  and  C_6
REMARK                            x       y       z     vdW  Elec       q    Type
REMARK                         _______ _______ _______ _____ _____    ______ ____
ROOT
ATOM      1  O   UNL     1       6.392   5.326  15.869  0.00  0.00    +0.000 OA
ATOM      2  C   UNL     1       6.561   6.134  16.773  0.00  0.00    +0.000 C 
ATOM      3  N   UNL     1       7.627   7.012  16.732  0.00  0.00    +0.000 N 
ATOM      4  N   UNL     1       5.787   6.299  17.902  0.00  0.00    +0.000 N 
ATOM      5  C   UNL     1       4.680   5.627  18.343  0.00  0.00    +0.000 A 
ATOM      6  N   UNL     1       4.106   5.958  19.457  0.00  0.00    +0.000 NA
ATOM      7  N   UNL     1       3.030   5.137  19.658  0.00  0.00    +0.000 N 
ATOM      8  C   UNL     1       2.771   4.189  18.704  0.00  0.00    +0.000 A 
ATOM      9  S   UNL     1       1.499   3.129  18.765  0.00  0.00    +0.000 S 
ATOM     10  S   UNL     1       3.980   4.308  17.461  0.00  0.00    +0.000 S 
ATOM     11  H   UNL     1       8.246   6.940  15.930  0.00  0.00    +0.000 HD
ATOM     12  H   UNL     1       6.122   7.046  18.492  0.00  0.00    +0.000 HD
ATOM     13  H   UNL     1       2.451   5.261  20.482  0.00  0.00    +0.000 HD
ENDROOT
BRANCH   3  14
ATOM     14  N   UNL     1       7.853   7.918  17.727  0.00  0.00    +0.000 NA
ATOM     15  C   UNL     1       8.419   9.021  17.344  0.00  0.00    +0.000 C 
BRANCH  15  16
ATOM     16  C   UNL     1       8.739  10.094  18.305  0.00  0.00    +0.000 A 
ATOM     17  C   UNL     1       9.082   9.781  19.625  0.00  0.00    +0.000 A 
ATOM     18  C   UNL     1       9.395  10.801  20.524  0.00  0.00    +0.000 A 
ATOM     19  C   UNL     1       9.362  12.129  20.100  0.00  0.00    +0.000 A 
ATOM     20 BR   UNL     1       9.793  13.509  21.319  0.00  0.00    +0.000 Br
ATOM     21  C   UNL     1       9.016  12.447  18.786  0.00  0.00    +0.000 A 
ATOM     22  C   UNL     1       8.702  11.427  17.883  0.00  0.00    +0.000 A 
ENDBRANCH  15  16
ENDBRANCH   3  14
TORSDOF 2
ENDMDL
MODEL 6
REMARK VINA RESULT:      -6.3      2.747      3.389
REMARK  Name = 
REMARK  2 active torsions:
REMARK  status: ('A' for Active; 'I' for Inactive)
REMARK    1  A    between atoms: N_3  and  N_4
REMARK    2  A    between atoms: C_5  and  C_6
REMARK                            x       y       z     vdW  Elec       q    Type
REMARK                         _______ _______ _______ _____ _____    ______ ____
ROOT
ATOM      1  O   UNL     1       1.472  11.984  18.396  0.00  0.00    +0.000 OA
ATOM      2  C   UNL     1       1.436  10.796  18.690  0.00  0.00    +0.000 C 
ATOM      3  N   UNL     1       2.009   9.855  17.857  0.00  0.00    +0.000 N 
ATOM      4  N   UNL     1       0.864  10.229  19.809  0.00  0.00    +0.000 N 
ATOM      5  C   UNL     1       0.176  10.787  20.851  0.00  0.00    +0.000 A 
ATOM      6  N   UNL     1      -0.283  10.047  21.811  0.00  0.00    +0.000 NA
ATOM      7  N   UNL     1      -0.920  10.849  22.718  0.00  0.00    +0.000 N 
ATOM      8  C   UNL     1      -0.945  12.195  22.465  0.00  0.00    +0.000 A 
ATOM      9  S   UNL     1      -1.645  13.318  23.461  0.00  0.00    +0.000 S 
ATOM     10  S   UNL     1      -0.128  12.491  20.959  0.00  0.00    +0.000 S 
ATOM     11  H   UNL     1       2.442  10.203  17.005  0.00  0.00    +0.000 HD
ATOM     12  H   UNL     1       0.981   9.227  19.834  0.00  0.00    +0.000 HD
ATOM     13  H   UNL     1      -1.334  10.438  23.548  0.00  0.00    +0.000 HD
ENDROOT
BRANCH   3  14
ATOM     14  N   UNL     1       1.978   8.522  18.146  0.00  0.00    +0.000 NA
ATOM     15  C   UNL     1       2.980   7.839  17.684  0.00  0.00    +0.000 C 
BRANCH  15  16
ATOM     16  C   UNL     1       3.084   6.383  17.905  0.00  0.00    +0.000 A 
ATOM     17  C   UNL     1       1.930   5.595  17.974  0.00  0.00    +0.000 A 
ATOM     18  C   UNL     1       2.038   4.218  18.171  0.00  0.00    +0.000 A 
ATOM     19  C   UNL     1       3.297   3.635  18.300  0.00  0.00    +0.000 A 
ATOM     20 BR   UNL     1       3.441   1.768  18.559  0.00  0.00    +0.000 Br
ATOM     21  C   UNL     1       4.451   4.418  18.236  0.00  0.00    +0.000 A 
ATOM     22  C   UNL     1       4.347   5.798  18.039  0.00  0.00    +0.000 A 
ENDBRANCH  15  16
ENDBRANCH   3  14
TORSDOF 2
ENDMDL
MODEL 7
REMARK VINA RESULT:      -6.2      3.048      3.791
REMARK  Name = 
REMARK  2 active torsions:
REMARK  status: ('A' for Active; 'I' for Inactive)
REMARK    1  A    between atoms: N_3  and  N_4
REMARK    2  A    between atoms: C_5  and  C_6
REMARK                            x       y       z     vdW  Elec       q    Type
REMARK                         _______ _______ _______ _____ _____    ______ ____
ROOT
ATOM      1  O   UNL     1      -0.446  11.820  20.444  0.00  0.00    +0.000 OA
ATOM      2  C   UNL     1      -0.175  10.778  19.860  0.00  0.00    +0.000 C 
ATOM      3  N   UNL     1       1.004  10.112  20.136  0.00  0.00    +0.000 N 
ATOM      4  N   UNL     1      -0.930  10.137  18.901  0.00  0.00    +0.000 N 
ATOM      5  C   UNL     1      -2.124  10.468  18.322  0.00  0.00    +0.000 A 
ATOM      6  N   UNL     1      -2.657   9.703  17.423  0.00  0.00    +0.000 NA
ATOM      7  N   UNL     1      -3.839  10.259  17.017  0.00  0.00    +0.000 N 
ATOM      8  C   UNL     1      -4.220  11.436  17.605  0.00  0.00    +0.000 A 
ATOM      9  S   UNL     1      -5.627  12.238  17.261  0.00  0.00    +0.000 S 
ATOM     10  S   UNL     1      -2.993  11.908  18.743  0.00  0.00    +0.000 S 
ATOM     11  H   UNL     1       1.615  10.535  20.829  0.00  0.00    +0.000 HD
ATOM     12  H   UNL     1      -0.499   9.281  18.582  0.00  0.00    +0.000 HD
ATOM     13  H   UNL     1      -4.404   9.785  16.319  0.00  0.00    +0.000 HD
ENDROOT
BRANCH   3  14
ATOM     14  N   UNL     1       1.344   8.956  19.497  0.00  0.00    +0.000 NA
ATOM     15  C   UNL     1       1.747   7.999  20.276  0.00  0.00    +0.000 C 
BRANCH  15  16
ATOM     16  C   UNL     1       2.160   6.690  19.734  0.00  0.00    +0.000 A 
ATOM     17  C   UNL     1       2.822   6.612  18.504  0.00  0.00    +0.000 A 
ATOM     18  C   UNL     1       3.221   5.372  18.004  0.00  0.00    +0.000 A 
ATOM     19  C   UNL     1       2.954   4.215  18.735  0.00  0.00    +0.000 A 
ATOM     20 BR   UNL     1       3.502   2.537  18.059  0.00  0.00    +0.000 Br
ATOM     21  C   UNL     1       2.290   4.287  19.960  0.00  0.00    +0.000 A 
ATOM     22  C   UNL     1       1.889   5.528  20.463  0.00  0.00    +0.000 A 
ENDBRANCH  15  16
ENDBRANCH   3  14
TORSDOF 2
ENDMDL
MODEL 8
REMARK VINA RESULT:      -6.2      3.032      3.871
REMARK  Name = 
REMARK  2 active torsions:
REMARK  status: ('A' for Active; 'I' for Inactive)
REMARK    1  A    between atoms: N_3  and  N_4
REMARK    2  A    between atoms: C_5  and  C_6
REMARK                            x       y       z     vdW  Elec       q    Type
REMARK                         _______ _______ _______ _____ _____    ______ ____
ROOT
ATOM      1  O   UNL     1      -0.247  11.808  20.332  0.00  0.00    +0.000 OA
ATOM      2  C   UNL     1      -0.021  10.743  19.771  0.00  0.00    +0.000 C 
ATOM      3  N   UNL     1       1.151  10.057  20.026  0.00  0.00    +0.000 N 
ATOM      4  N   UNL     1      -0.825  10.091  18.861  0.00  0.00    +0.000 N 
ATOM      5  C   UNL     1      -2.032  10.433  18.316  0.00  0.00    +0.000 A 
ATOM      6  N   UNL     1      -2.615   9.653  17.461  0.00  0.00    +0.000 NA
ATOM      7  N   UNL     1      -3.799  10.225  17.081  0.00  0.00    +0.000 N 
ATOM      8  C   UNL     1      -4.130  11.428  17.644  0.00  0.00    +0.000 A 
ATOM      9  S   UNL     1      -5.531  12.253  17.327  0.00  0.00    +0.000 S 
ATOM     10  S   UNL     1      -2.851  11.906  18.722  0.00  0.00    +0.000 S 
ATOM     11  H   UNL     1       1.797  10.487  20.682  0.00  0.00    +0.000 HD
ATOM     12  H   UNL     1      -0.426   9.216  18.554  0.00  0.00    +0.000 HD
ATOM     13  H   UNL     1      -4.399   9.744  16.419  0.00  0.00    +0.000 HD
ENDROOT
BRANCH   3  14
ATOM     14  N   UNL     1       1.441   8.874  19.411  0.00  0.00    +0.000 NA
ATOM     15  C   UNL     1       1.804   7.918  20.210  0.00  0.00    +0.000 C 
BRANCH  15  16
ATOM     16  C   UNL     1       2.161   6.581  19.696  0.00  0.00    +0.000 A 
ATOM     17  C   UNL     1       1.947   5.443  20.481  0.00  0.00    +0.000 A 
ATOM     18  C   UNL     1       2.275   4.182  19.982  0.00  0.00    +0.000 A 
ATOM     19  C   UNL     1       2.816   4.064  18.704  0.00  0.00    +0.000 A 
ATOM     20 BR   UNL     1       3.254   2.354  18.028  0.00  0.00    +0.000 Br
ATOM     21  C   UNL     1       3.036   5.197  17.919  0.00  0.00    +0.000 A 
ATOM     22  C   UNL     1       2.708   6.462  18.415  0.00  0.00    +0.000 A 
ENDBRANCH  15  16
ENDBRANCH   3  14
TORSDOF 2
ENDMDL
MODEL 9
REMARK VINA RESULT:      -6.2      5.163      8.815
REMARK  Name = 
REMARK  2 active torsions:
REMARK  status: ('A' for Active; 'I' for Inactive)
REMARK    1  A    between atoms: N_3  and  N_4
REMARK    2  A    between atoms: C_5  and  C_6
REMARK                            x       y       z     vdW  Elec       q    Type
REMARK                         _______ _______ _______ _____ _____    ______ ____
ROOT
ATOM      1  O   UNL     1       2.479   8.979  17.144  0.00  0.00    +0.000 OA
ATOM      2  C   UNL     1       1.872   9.159  18.192  0.00  0.00    +0.000 C 
ATOM      3  N   UNL     1       1.181  10.337  18.403  0.00  0.00    +0.000 N 
ATOM      4  N   UNL     1       1.778   8.296  19.263  0.00  0.00    +0.000 N 
ATOM      5  C   UNL     1       2.328   7.062  19.478  0.00  0.00    +0.000 A 
ATOM      6  N   UNL     1       2.102   6.421  20.581  0.00  0.00    +0.000 NA
ATOM      7  N   UNL     1       2.762   5.224  20.536  0.00  0.00    +0.000 N 
ATOM      8  C   UNL     1       3.482   4.939  19.407  0.00  0.00    +0.000 A 
ATOM      9  S   UNL     1       4.319   3.531  19.164  0.00  0.00    +0.000 S 
ATOM     10  S   UNL     1       3.350   6.284  18.313  0.00  0.00    +0.000 S 
ATOM     11  H   UNL     1       1.216  11.026  17.656  0.00  0.00    +0.000 HD
ATOM     12  H   UNL     1       1.204   8.666  20.006  0.00  0.00    +0.000 HD
ATOM     13  H   UNL     1       2.687   4.580  21.317  0.00  0.00    +0.000 HD
ENDROOT
BRANCH   3  14
ATOM     14  N   UNL     1       0.505  10.578  19.563  0.00  0.00    +0.000 NA
ATOM     15  C   UNL     1      -0.535  11.346  19.440  0.00  0.00    +0.000 C 
BRANCH  15  16
ATOM     16  C   UNL     1      -1.365  11.707  20.606  0.00  0.00    +0.000 A 
ATOM     17  C   UNL     1      -1.003  11.283  21.889  0.00  0.00    +0.000 A 
ATOM     18  C   UNL     1      -1.785  11.640  22.987  0.00  0.00    +0.000 A 
ATOM     19  C   UNL     1      -2.927  12.417  22.798  0.00  0.00    +0.000 A 
ATOM     20 BR   UNL     1      -3.983  12.905  24.288  0.00  0.00    +0.000 Br
ATOM     21  C   UNL     1      -3.295  12.838  21.519  0.00  0.00    +0.000 A 
ATOM     22  C   UNL     1      -2.512  12.483  20.417  0.00  0.00    +0.000 A 
ENDBRANCH  15  16
ENDBRANCH   3  14
TORSDOF 2
ENDMDL
