MODEL 1
REMARK VINA RESULT:      -8.3      0.000      0.000
REMARK  Name = 
REMARK  9 active torsions:
REMARK  status: ('A' for Active; 'I' for Inactive)
REMARK    1  A    between atoms: C_1  and  O_2
REMARK    2  A    between atoms: O_2  and  C_3
REMARK    3  A    between atoms: C_7  and  N_8
REMARK    4  A    between atoms: C_9  and  C_11
REMARK    5  A    between atoms: C_11  and  N_12
REMARK    6  A    between atoms: N_12  and  C_13
REMARK    7  A    between atoms: C_14  and  C_16
REMARK    8  A    between atoms: C_18  and  C_19
REMARK    9  A    between atoms: C_29  and  C_30
REMARK                            x       y       z     vdW  Elec       q    Type
REMARK                         _______ _______ _______ _____ _____    ______ ____
ROOT
ATOM      1  N   UNL     1       1.625   8.418  19.623  0.00  0.00    +0.000 N 
ATOM      2  C   UNL     1       2.002   8.977  18.292  0.00  0.00    +0.000 C 
ATOM      3  C   UNL     1       0.859   9.144  20.695  0.00  0.00    +0.000 C 
ATOM      4  O   UNL     1       0.466   8.499  21.668  0.00  0.00    +0.000 OA
ENDROOT
BRANCH   3   5
ATOM      5  C   UNL     1       0.786  10.798  20.692  0.00  0.00    +0.000 A 
ATOM      6  C   UNL     1      -0.368  10.991  21.399  0.00  0.00    +0.000 A 
ATOM      7  C   UNL     1      -1.275  11.748  20.764  0.00  0.00    +0.000 A 
ATOM      8  N   UNL     1      -0.825  12.964  20.914  0.00  0.00    +0.000 NA
ATOM      9  C   UNL     1       0.274  13.162  20.215  0.00  0.00    +0.000 A 
ATOM     10  C   UNL     1       0.135  14.392  19.606  0.00  0.00    +0.000 A 
ATOM     11  C   UNL     1       0.961  14.828  18.626  0.00  0.00    +0.000 A 
ATOM     12  C   UNL     1       2.168  14.174  18.487  0.00  0.00    +0.000 A 
ATOM     13  C   UNL     1       3.174  15.131  17.871  0.00  0.00    +0.000 C 
ATOM     14  C   UNL     1       2.323  12.843  19.080  0.00  0.00    +0.000 A 
ATOM     15  C   UNL     1       1.261  12.143  19.955  0.00  0.00    +0.000 A 
BRANCH   7  16
ATOM     16  C   UNL     1      -1.819  11.555  19.362  0.00  0.00    +0.000 A 
ATOM     17  C   UNL     1      -2.967  12.200  18.859  0.00  0.00    +0.000 A 
ATOM     18  C   UNL     1      -3.805  11.541  17.949  0.00  0.00    +0.000 A 
ATOM     19  C   UNL     1      -3.486  10.264  17.498  0.00  0.00    +0.000 A 
ATOM     20  C   UNL     1      -2.275   9.688  17.860  0.00  0.00    +0.000 A 
ATOM     21  C   UNL     1      -1.421  10.360  18.728  0.00  0.00    +0.000 A 
ENDBRANCH   7  16
ENDBRANCH   3   5
BRANCH   1  22
ATOM     22  C   UNL     1       2.208   7.022  19.686  0.00  0.00    +0.000 C 
BRANCH  22  24
ATOM     23  N   UNL     1       4.123   6.495  18.178  0.00  0.00    +0.000 N 
ATOM     24  C   UNL     1       3.353   6.080  19.224  0.00  0.00    +0.000 C 
ATOM     25  O   UNL     1       3.419   4.954  19.751  0.00  0.00    +0.000 OA
ATOM     26  H   UNL     1       3.946   7.443  17.857  0.00  0.00    +0.000 HD
BRANCH  23  31
ATOM     27  C   UNL     1       5.788   4.512  15.536  0.00  0.00    +0.000 A 
ATOM     28  C   UNL     1       7.069   4.323  16.055  0.00  0.00    +0.000 A 
ATOM     29  C   UNL     1       7.399   4.815  17.314  0.00  0.00    +0.000 A 
ATOM     30  C   UNL     1       6.447   5.524  18.062  0.00  0.00    +0.000 A 
ATOM     31  C   UNL     1       5.154   5.762  17.540  0.00  0.00    +0.000 A 
ATOM     32  C   UNL     1       4.846   5.237  16.279  0.00  0.00    +0.000 A 
BRANCH  27  34
ATOM     33  C   UNL     1       6.664   4.092  13.378  0.00  0.00    +0.000 C 
ATOM     34  O   UNL     1       5.585   3.984  14.299  0.00  0.00    +0.000 OA
ENDBRANCH  27  34
ENDBRANCH  23  31
ENDBRANCH  22  24
ENDBRANCH   1  22
TORSDOF 6
ENDMDL
MODEL 2
REMARK VINA RESULT:      -8.1      1.968      3.976
REMARK  Name = 
REMARK  9 active torsions:
REMARK  status: ('A' for Active; 'I' for Inactive)
REMARK    1  A    between atoms: C_1  and  O_2
REMARK    2  A    between atoms: O_2  and  C_3
REMARK    3  A    between atoms: C_7  and  N_8
REMARK    4  A    between atoms: C_9  and  C_11
REMARK    5  A    between atoms: C_11  and  N_12
REMARK    6  A    between atoms: N_12  and  C_13
REMARK    7  A    between atoms: C_14  and  C_16
REMARK    8  A    between atoms: C_18  and  C_19
REMARK    9  A    between atoms: C_29  and  C_30
REMARK                            x       y       z     vdW  Elec       q    Type
REMARK                         _______ _______ _______ _____ _____    ______ ____
ROOT
ATOM      1  N   UNL     1       0.757   8.982  21.223  0.00  0.00    +0.000 N 
ATOM      2  C   UNL     1       0.618   9.287  22.677  0.00  0.00    +0.000 C 
ATOM      3  C   UNL     1       0.463   9.934  20.095  0.00  0.00    +0.000 C 
ATOM      4  O   UNL     1       0.793   9.603  18.954  0.00  0.00    +0.000 OA
ENDROOT
BRANCH   3   5
ATOM      5  C   UNL     1      -0.508  11.251  20.346  0.00  0.00    +0.000 A 
ATOM      6  C   UNL     1      -0.785  11.598  19.055  0.00  0.00    +0.000 A 
ATOM      7  C   UNL     1      -0.493  12.873  18.758  0.00  0.00    +0.000 A 
ATOM      8  N   UNL     1      -1.474  13.549  19.289  0.00  0.00    +0.000 NA
ATOM      9  C   UNL     1      -1.420  13.526  20.606  0.00  0.00    +0.000 A 
ATOM     10  C   UNL     1      -1.670  14.815  21.030  0.00  0.00    +0.000 A 
ATOM     11  C   UNL     1      -1.469  15.223  22.305  0.00  0.00    +0.000 A 
ATOM     12  C   UNL     1      -1.347  14.241  23.267  0.00  0.00    +0.000 A 
ATOM     13  C   UNL     1      -1.784  14.811  24.606  0.00  0.00    +0.000 C 
ATOM     14  C   UNL     1      -1.030  12.873  22.843  0.00  0.00    +0.000 A 
ATOM     15  C   UNL     1      -0.923  12.412  21.375  0.00  0.00    +0.000 A 
BRANCH   7  16
ATOM     16  C   UNL     1       0.825  13.592  18.979  0.00  0.00    +0.000 A 
ATOM     17  C   UNL     1       0.972  14.994  18.999  0.00  0.00    +0.000 A 
ATOM     18  C   UNL     1       2.141  15.588  18.507  0.00  0.00    +0.000 A 
ATOM     19  C   UNL     1       3.186  14.798  18.038  0.00  0.00    +0.000 A 
ATOM     20  C   UNL     1       3.118  13.417  18.167  0.00  0.00    +0.000 A 
ATOM     21  C   UNL     1       1.975  12.828  18.697  0.00  0.00    +0.000 A 
ENDBRANCH   7  16
ENDBRANCH   3   5
BRANCH   1  22
ATOM     22  C   UNL     1       1.189   7.534  21.124  0.00  0.00    +0.000 C 
BRANCH  22  24
ATOM     23  N   UNL     1       2.537   6.868  19.135  0.00  0.00    +0.000 N 
ATOM     24  C   UNL     1       2.033   6.490  20.345  0.00  0.00    +0.000 C 
ATOM     25  O   UNL     1       2.093   5.336  20.809  0.00  0.00    +0.000 OA
ATOM     26  H   UNL     1       2.404   7.847  18.896  0.00  0.00    +0.000 HD
BRANCH  23  31
ATOM     27  C   UNL     1       5.246   5.884  16.817  0.00  0.00    +0.000 A 
ATOM     28  C   UNL     1       4.871   4.594  16.436  0.00  0.00    +0.000 A 
ATOM     29  C   UNL     1       3.688   4.035  16.909  0.00  0.00    +0.000 A 
ATOM     30  C   UNL     1       2.872   4.762  17.791  0.00  0.00    +0.000 A 
ATOM     31  C   UNL     1       3.252   6.054  18.222  0.00  0.00    +0.000 A 
ATOM     32  C   UNL     1       4.438   6.597  17.712  0.00  0.00    +0.000 A 
BRANCH  27  34
ATOM     33  C   UNL     1       7.373   6.845  17.206  0.00  0.00    +0.000 C 
ATOM     34  O   UNL     1       6.420   6.321  16.288  0.00  0.00    +0.000 OA
ENDBRANCH  27  34
ENDBRANCH  23  31
ENDBRANCH  22  24
ENDBRANCH   1  22
TORSDOF 6
ENDMDL
MODEL 3
REMARK VINA RESULT:      -8.1      4.800      8.536
REMARK  Name = 
REMARK  9 active torsions:
REMARK  status: ('A' for Active; 'I' for Inactive)
REMARK    1  A    between atoms: C_1  and  O_2
REMARK    2  A    between atoms: O_2  and  C_3
REMARK    3  A    between atoms: C_7  and  N_8
REMARK    4  A    between atoms: C_9  and  C_11
REMARK    5  A    between atoms: C_11  and  N_12
REMARK    6  A    between atoms: N_12  and  C_13
REMARK    7  A    between atoms: C_14  and  C_16
REMARK    8  A    between atoms: C_18  and  C_19
REMARK    9  A    between atoms: C_29  and  C_30
REMARK                            x       y       z     vdW  Elec       q    Type
REMARK                         _______ _______ _______ _____ _____    ______ ____
ROOT
ATOM      1  N   UNL     1       7.099   6.459  17.995  0.00  0.00    +0.000 N 
ATOM      2  C   UNL     1       6.597   6.597  16.598  0.00  0.00    +0.000 C 
ATOM      3  C   UNL     1       6.593   5.476  19.017  0.00  0.00    +0.000 C 
ATOM      4  O   UNL     1       7.222   5.355  20.069  0.00  0.00    +0.000 OA
ENDROOT
BRANCH   3   5
ATOM      5  C   UNL     1       5.099   4.784  18.840  0.00  0.00    +0.000 A 
ATOM      6  C   UNL     1       4.760   5.253  17.603  0.00  0.00    +0.000 A 
ATOM      7  C   UNL     1       3.582   5.894  17.568  0.00  0.00    +0.000 A 
ATOM      8  N   UNL     1       2.703   4.931  17.588  0.00  0.00    +0.000 NA
ATOM      9  C   UNL     1       2.680   4.323  18.758  0.00  0.00    +0.000 A 
ATOM     10  C   UNL     1       1.350   4.152  19.083  0.00  0.00    +0.000 A 
ATOM     11  C   UNL     1       0.935   3.773  20.315  0.00  0.00    +0.000 A 
ATOM     12  C   UNL     1       1.880   3.211  21.150  0.00  0.00    +0.000 A 
ATOM     13  C   UNL     1       1.178   2.292  22.134  0.00  0.00    +0.000 C 
ATOM     14  C   UNL     1       3.300   3.424  20.853  0.00  0.00    +0.000 A 
ATOM     15  C   UNL     1       3.836   4.150  19.601  0.00  0.00    +0.000 A 
BRANCH   7  16
ATOM     16  C   UNL     1       3.131   7.042  18.450  0.00  0.00    +0.000 A 
ATOM     17  C   UNL     1       2.668   6.894  19.773  0.00  0.00    +0.000 A 
ATOM     18  C   UNL     1       1.665   7.738  20.269  0.00  0.00    +0.000 A 
ATOM     19  C   UNL     1       1.153   8.760  19.476  0.00  0.00    +0.000 A 
ATOM     20  C   UNL     1       1.717   9.018  18.233  0.00  0.00    +0.000 A 
ATOM     21  C   UNL     1       2.743   8.208  17.759  0.00  0.00    +0.000 A 
ENDBRANCH   7  16
ENDBRANCH   3   5
BRANCH   1  22
ATOM     22  C   UNL     1       8.158   7.526  18.182  0.00  0.00    +0.000 C 
BRANCH  22  24
ATOM     23  N   UNL     1       9.312   9.404  19.346  0.00  0.00    +0.000 N 
ATOM     24  C   UNL     1       8.445   9.041  18.358  0.00  0.00    +0.000 C 
ATOM     25  O   UNL     1       7.773   9.837  17.676  0.00  0.00    +0.000 OA
ATOM     26  H   UNL     1       9.783   8.635  19.815  0.00  0.00    +0.000 HD
BRANCH  23  31
ATOM     27  C   UNL     1      10.834  12.768  19.115  0.00  0.00    +0.000 A 
ATOM     28  C   UNL     1      10.388  13.388  20.283  0.00  0.00    +0.000 A 
ATOM     29  C   UNL     1       9.604  12.690  21.196  0.00  0.00    +0.000 A 
ATOM     30  C   UNL     1       9.240  11.359  20.935  0.00  0.00    +0.000 A 
ATOM     31  C   UNL     1       9.647  10.724  19.740  0.00  0.00    +0.000 A 
ATOM     32  C   UNL     1      10.452  11.446  18.850  0.00  0.00    +0.000 A 
BRANCH  27  34
ATOM     33  C   UNL     1      10.927  14.625  17.651  0.00  0.00    +0.000 C 
ATOM     34  O   UNL     1      11.595  13.550  18.303  0.00  0.00    +0.000 OA
ENDBRANCH  27  34
ENDBRANCH  23  31
ENDBRANCH  22  24
ENDBRANCH   1  22
TORSDOF 6
ENDMDL
MODEL 4
REMARK VINA RESULT:      -8.0      2.669      4.746
REMARK  Name = 
REMARK  9 active torsions:
REMARK  status: ('A' for Active; 'I' for Inactive)
REMARK    1  A    between atoms: C_1  and  O_2
REMARK    2  A    between atoms: O_2  and  C_3
REMARK    3  A    between atoms: C_7  and  N_8
REMARK    4  A    between atoms: C_9  and  C_11
REMARK    5  A    between atoms: C_11  and  N_12
REMARK    6  A    between atoms: N_12  and  C_13
REMARK    7  A    between atoms: C_14  and  C_16
REMARK    8  A    between atoms: C_18  and  C_19
REMARK    9  A    between atoms: C_29  and  C_30
REMARK                            x       y       z     vdW  Elec       q    Type
REMARK                         _______ _______ _______ _____ _____    ______ ____
ROOT
ATOM      1  N   UNL     1       0.222  10.245  19.379  0.00  0.00    +0.000 N 
ATOM      2  C   UNL     1      -0.657  10.006  18.198  0.00  0.00    +0.000 C 
ATOM      3  C   UNL     1      -0.067  11.193  20.512  0.00  0.00    +0.000 C 
ATOM      4  O   UNL     1       0.662  11.154  21.504  0.00  0.00    +0.000 OA
ENDROOT
BRANCH   3   5
ATOM      5  C   UNL     1      -1.159  12.422  20.313  0.00  0.00    +0.000 A 
ATOM      6  C   UNL     1      -0.454  13.462  20.849  0.00  0.00    +0.000 A 
ATOM      7  C   UNL     1      -1.105  14.116  21.822  0.00  0.00    +0.000 A 
ATOM      8  N   UNL     1      -1.964  14.858  21.177  0.00  0.00    +0.000 NA
ATOM      9  C   UNL     1      -2.910  14.129  20.620  0.00  0.00    +0.000 A 
ATOM     10  C   UNL     1      -4.101  14.777  20.872  0.00  0.00    +0.000 A 
ATOM     11  C   UNL     1      -5.310  14.207  20.655  0.00  0.00    +0.000 A 
ATOM     12  C   UNL     1      -5.342  13.095  19.839  0.00  0.00    +0.000 A 
ATOM     13  C   UNL     1      -6.713  13.001  19.193  0.00  0.00    +0.000 C 
ATOM     14  C   UNL     1      -4.096  12.359  19.600  0.00  0.00    +0.000 A 
ATOM     15  C   UNL     1      -2.707  12.796  20.109  0.00  0.00    +0.000 A 
BRANCH   7  16
ATOM     16  C   UNL     1      -1.744  13.525  23.064  0.00  0.00    +0.000 A 
ATOM     17  C   UNL     1      -2.260  12.216  23.146  0.00  0.00    +0.000 A 
ATOM     18  C   UNL     1      -3.386  11.949  23.937  0.00  0.00    +0.000 A 
ATOM     19  C   UNL     1      -3.973  12.965  24.686  0.00  0.00    +0.000 A 
ATOM     20  C   UNL     1      -3.375  14.217  24.741  0.00  0.00    +0.000 A 
ATOM     21  C   UNL     1      -2.232  14.469  23.990  0.00  0.00    +0.000 A 
ENDBRANCH   7  16
ENDBRANCH   3   5
BRANCH   1  22
ATOM     22  C   UNL     1       1.461   9.398  19.174  0.00  0.00    +0.000 C 
BRANCH  22  24
ATOM     23  N   UNL     1       2.244   7.034  19.060  0.00  0.00    +0.000 N 
ATOM     24  C   UNL     1       2.102   8.217  18.397  0.00  0.00    +0.000 C 
ATOM     25  O   UNL     1       2.560   8.455  17.264  0.00  0.00    +0.000 OA
ATOM     26  H   UNL     1       1.816   6.998  19.982  0.00  0.00    +0.000 HD
BRANCH  23  31
ATOM     27  C   UNL     1       4.969   4.594  18.504  0.00  0.00    +0.000 A 
ATOM     28  C   UNL     1       4.333   3.583  17.784  0.00  0.00    +0.000 A 
ATOM     29  C   UNL     1       2.993   3.705  17.430  0.00  0.00    +0.000 A 
ATOM     30  C   UNL     1       2.266   4.842  17.815  0.00  0.00    +0.000 A 
ATOM     31  C   UNL     1       2.879   5.862  18.580  0.00  0.00    +0.000 A 
ATOM     32  C   UNL     1       4.234   5.719  18.903  0.00  0.00    +0.000 A 
BRANCH  27  34
ATOM     33  C   UNL     1       7.215   4.672  17.764  0.00  0.00    +0.000 C 
ATOM     34  O   UNL     1       6.279   4.362  18.789  0.00  0.00    +0.000 OA
ENDBRANCH  27  34
ENDBRANCH  23  31
ENDBRANCH  22  24
ENDBRANCH   1  22
TORSDOF 6
ENDMDL
MODEL 5
REMARK VINA RESULT:      -7.9      1.958      4.041
REMARK  Name = 
REMARK  9 active torsions:
REMARK  status: ('A' for Active; 'I' for Inactive)
REMARK    1  A    between atoms: C_1  and  O_2
REMARK    2  A    between atoms: O_2  and  C_3
REMARK    3  A    between atoms: C_7  and  N_8
REMARK    4  A    between atoms: C_9  and  C_11
REMARK    5  A    between atoms: C_11  and  N_12
REMARK    6  A    between atoms: N_12  and  C_13
REMARK    7  A    between atoms: C_14  and  C_16
REMARK    8  A    between atoms: C_18  and  C_19
REMARK    9  A    between atoms: C_29  and  C_30
REMARK                            x       y       z     vdW  Elec       q    Type
REMARK                         _______ _______ _______ _____ _____    ______ ____
ROOT
ATOM      1  N   UNL     1       1.044   8.956  20.902  0.00  0.00    +0.000 N 
ATOM      2  C   UNL     1       0.957   9.297  22.352  0.00  0.00    +0.000 C 
ATOM      3  C   UNL     1       0.767   9.898  19.761  0.00  0.00    +0.000 C 
ATOM      4  O   UNL     1       1.053   9.529  18.620  0.00  0.00    +0.000 OA
ENDROOT
BRANCH   3   5
ATOM      5  C   UNL     1      -0.133  11.265  20.007  0.00  0.00    +0.000 A 
ATOM      6  C   UNL     1      -0.216  11.735  18.727  0.00  0.00    +0.000 A 
ATOM      7  C   UNL     1       0.200  13.001  18.584  0.00  0.00    +0.000 A 
ATOM      8  N   UNL     1      -0.792  13.710  19.048  0.00  0.00    +0.000 NA
ATOM      9  C   UNL     1      -0.911  13.578  20.354  0.00  0.00    +0.000 A 
ATOM     10  C   UNL     1      -1.122  14.845  20.857  0.00  0.00    +0.000 A 
ATOM     11  C   UNL     1      -1.060  15.134  22.178  0.00  0.00    +0.000 A 
ATOM     12  C   UNL     1      -1.132  14.072  23.056  0.00  0.00    +0.000 A 
ATOM     13  C   UNL     1      -1.697  14.567  24.377  0.00  0.00    +0.000 C 
ATOM     14  C   UNL     1      -0.860  12.721  22.555  0.00  0.00    +0.000 A 
ATOM     15  C   UNL     1      -0.596  12.370  21.076  0.00  0.00    +0.000 A 
BRANCH   7  16
ATOM     16  C   UNL     1       1.525  13.592  19.027  0.00  0.00    +0.000 A 
ATOM     17  C   UNL     1       2.324  13.066  20.063  0.00  0.00    +0.000 A 
ATOM     18  C   UNL     1       3.071  13.922  20.882  0.00  0.00    +0.000 A 
ATOM     19  C   UNL     1       3.069  15.294  20.650  0.00  0.00    +0.000 A 
ATOM     20  C   UNL     1       2.419  15.805  19.534  0.00  0.00    +0.000 A 
ATOM     21  C   UNL     1       1.713  14.949  18.695  0.00  0.00    +0.000 A 
ENDBRANCH   7  16
ENDBRANCH   3   5
BRANCH   1  22
ATOM     22  C   UNL     1       1.405   7.488  20.824  0.00  0.00    +0.000 C 
BRANCH  22  24
ATOM     23  N   UNL     1       2.612   6.634  18.817  0.00  0.00    +0.000 N 
ATOM     24  C   UNL     1       2.264   6.406  20.115  0.00  0.00    +0.000 C 
ATOM     25  O   UNL     1       2.475   5.345  20.731  0.00  0.00    +0.000 OA
ATOM     26  H   UNL     1       2.366   7.552  18.455  0.00  0.00    +0.000 HD
BRANCH  23  31
ATOM     27  C   UNL     1       5.206   5.504  16.434  0.00  0.00    +0.000 A 
ATOM     28  C   UNL     1       4.884   4.160  16.243  0.00  0.00    +0.000 A 
ATOM     29  C   UNL     1       3.772   3.605  16.871  0.00  0.00    +0.000 A 
ATOM     30  C   UNL     1       2.978   4.395  17.717  0.00  0.00    +0.000 A 
ATOM     31  C   UNL     1       3.309   5.749  17.956  0.00  0.00    +0.000 A 
ATOM     32  C   UNL     1       4.421   6.283  17.295  0.00  0.00    +0.000 A 
BRANCH  27  34
ATOM     33  C   UNL     1       6.865   5.029  14.813  0.00  0.00    +0.000 C 
ATOM     34  O   UNL     1       6.312   5.930  15.767  0.00  0.00    +0.000 OA
ENDBRANCH  27  34
ENDBRANCH  23  31
ENDBRANCH  22  24
ENDBRANCH   1  22
TORSDOF 6
ENDMDL
MODEL 6
REMARK VINA RESULT:      -7.9      1.276      1.501
REMARK  Name = 
REMARK  9 active torsions:
REMARK  status: ('A' for Active; 'I' for Inactive)
REMARK    1  A    between atoms: C_1  and  O_2
REMARK    2  A    between atoms: O_2  and  C_3
REMARK    3  A    between atoms: C_7  and  N_8
REMARK    4  A    between atoms: C_9  and  C_11
REMARK    5  A    between atoms: C_11  and  N_12
REMARK    6  A    between atoms: N_12  and  C_13
REMARK    7  A    between atoms: C_14  and  C_16
REMARK    8  A    between atoms: C_18  and  C_19
REMARK    9  A    between atoms: C_29  and  C_30
REMARK                            x       y       z     vdW  Elec       q    Type
REMARK                         _______ _______ _______ _____ _____    ______ ____
ROOT
ATOM      1  N   UNL     1       1.812   8.253  19.661  0.00  0.00    +0.000 N 
ATOM      2  C   UNL     1       1.786   8.182  21.150  0.00  0.00    +0.000 C 
ATOM      3  C   UNL     1       1.630   9.500  18.838  0.00  0.00    +0.000 C 
ATOM      4  O   UNL     1       1.854   9.436  17.628  0.00  0.00    +0.000 OA
ENDROOT
BRANCH   3   5
ATOM      5  C   UNL     1       0.901  10.834  19.494  0.00  0.00    +0.000 A 
ATOM      6  C   UNL     1      -0.187  10.251  20.079  0.00  0.00    +0.000 A 
ATOM      7  C   UNL     1      -1.359  10.785  19.705  0.00  0.00    +0.000 A 
ATOM      8  N   UNL     1      -1.425  11.898  20.383  0.00  0.00    +0.000 NA
ATOM      9  C   UNL     1      -0.543  12.778  19.954  0.00  0.00    +0.000 A 
ATOM     10  C   UNL     1      -1.201  13.988  19.882  0.00  0.00    +0.000 A 
ATOM     11  C   UNL     1      -0.681  15.075  19.264  0.00  0.00    +0.000 A 
ATOM     12  C   UNL     1       0.676  15.063  19.012  0.00  0.00    +0.000 A 
ATOM     13  C   UNL     1       1.175  16.497  18.956  0.00  0.00    +0.000 C 
ATOM     14  C   UNL     1       1.388  13.781  19.032  0.00  0.00    +0.000 A 
ATOM     15  C   UNL     1       0.752  12.431  19.421  0.00  0.00    +0.000 A 
BRANCH   7  16
ATOM     16  C   UNL     1      -1.866  10.996  18.290  0.00  0.00    +0.000 A 
ATOM     17  C   UNL     1      -2.983  11.789  17.956  0.00  0.00    +0.000 A 
ATOM     18  C   UNL     1      -3.809  11.428  16.884  0.00  0.00    +0.000 A 
ATOM     19  C   UNL     1      -3.506  10.312  16.110  0.00  0.00    +0.000 A 
ATOM     20  C   UNL     1      -2.321   9.621  16.327  0.00  0.00    +0.000 A 
ATOM     21  C   UNL     1      -1.478  10.007  17.365  0.00  0.00    +0.000 A 
ENDBRANCH   7  16
ENDBRANCH   3   5
BRANCH   1  22
ATOM     22  C   UNL     1       1.996   6.834  19.164  0.00  0.00    +0.000 C 
BRANCH  22  24
ATOM     23  N   UNL     1       4.153   6.295  18.036  0.00  0.00    +0.000 N 
ATOM     24  C   UNL     1       2.946   5.826  18.464  0.00  0.00    +0.000 C 
ATOM     25  O   UNL     1       2.502   4.688  18.224  0.00  0.00    +0.000 OA
ATOM     26  H   UNL     1       4.371   7.249  18.311  0.00  0.00    +0.000 HD
BRANCH  23  31
ATOM     27  C   UNL     1       5.670   4.552  15.147  0.00  0.00    +0.000 A 
ATOM     28  C   UNL     1       6.936   4.210  15.625  0.00  0.00    +0.000 A 
ATOM     29  C   UNL     1       7.302   4.514  16.932  0.00  0.00    +0.000 A 
ATOM     30  C   UNL     1       6.402   5.188  17.774  0.00  0.00    +0.000 A 
ATOM     31  C   UNL     1       5.129   5.579  17.299  0.00  0.00    +0.000 A 
ATOM     32  C   UNL     1       4.783   5.241  15.985  0.00  0.00    +0.000 A 
BRANCH  27  34
ATOM     33  C   UNL     1       6.560   3.825  13.078  0.00  0.00    +0.000 C 
ATOM     34  O   UNL     1       5.429   4.200  13.855  0.00  0.00    +0.000 OA
ENDBRANCH  27  34
ENDBRANCH  23  31
ENDBRANCH  22  24
ENDBRANCH   1  22
TORSDOF 6
ENDMDL
MODEL 7
REMARK VINA RESULT:      -7.9      2.150      4.246
REMARK  Name = 
REMARK  9 active torsions:
REMARK  status: ('A' for Active; 'I' for Inactive)
REMARK    1  A    between atoms: C_1  and  O_2
REMARK    2  A    between atoms: O_2  and  C_3
REMARK    3  A    between atoms: C_7  and  N_8
REMARK    4  A    between atoms: C_9  and  C_11
REMARK    5  A    between atoms: C_11  and  N_12
REMARK    6  A    between atoms: N_12  and  C_13
REMARK    7  A    between atoms: C_14  and  C_16
REMARK    8  A    between atoms: C_18  and  C_19
REMARK    9  A    between atoms: C_29  and  C_30
REMARK                            x       y       z     vdW  Elec       q    Type
REMARK                         _______ _______ _______ _____ _____    ______ ____
ROOT
ATOM      1  N   UNL     1       0.835   8.860  21.111  0.00  0.00    +0.000 N 
ATOM      2  C   UNL     1       0.659   9.217  22.548  0.00  0.00    +0.000 C 
ATOM      3  C   UNL     1       0.686   9.803  19.947  0.00  0.00    +0.000 C 
ATOM      4  O   UNL     1       1.035   9.412  18.833  0.00  0.00    +0.000 OA
ENDROOT
BRANCH   3   5
ATOM      5  C   UNL     1      -0.165  11.213  20.120  0.00  0.00    +0.000 A 
ATOM      6  C   UNL     1      -0.212  11.629  18.820  0.00  0.00    +0.000 A 
ATOM      7  C   UNL     1       0.255  12.871  18.628  0.00  0.00    +0.000 A 
ATOM      8  N   UNL     1      -0.716  13.637  19.045  0.00  0.00    +0.000 NA
ATOM      9  C   UNL     1      -0.857  13.567  20.354  0.00  0.00    +0.000 A 
ATOM     10  C   UNL     1      -1.026  14.862  20.798  0.00  0.00    +0.000 A 
ATOM     11  C   UNL     1      -0.970  15.207  22.106  0.00  0.00    +0.000 A 
ATOM     12  C   UNL     1      -1.096  14.188  23.029  0.00  0.00    +0.000 A 
ATOM     13  C   UNL     1      -1.659  14.762  24.318  0.00  0.00    +0.000 C 
ATOM     14  C   UNL     1      -0.868  12.807  22.591  0.00  0.00    +0.000 A 
ATOM     15  C   UNL     1      -0.598  12.382  21.133  0.00  0.00    +0.000 A 
BRANCH   7  16
ATOM     16  C   UNL     1       1.596  13.431  19.065  0.00  0.00    +0.000 A 
ATOM     17  C   UNL     1       2.306  12.995  20.202  0.00  0.00    +0.000 A 
ATOM     18  C   UNL     1       3.072  13.903  20.946  0.00  0.00    +0.000 A 
ATOM     19  C   UNL     1       3.176  15.230  20.541  0.00  0.00    +0.000 A 
ATOM     20  C   UNL     1       2.616  15.630  19.334  0.00  0.00    +0.000 A 
ATOM     21  C   UNL     1       1.893  14.718  18.573  0.00  0.00    +0.000 A 
ENDBRANCH   7  16
ENDBRANCH   3   5
BRANCH   1  22
ATOM     22  C   UNL     1       1.131   7.376  21.067  0.00  0.00    +0.000 C 
BRANCH  22  24
ATOM     23  N   UNL     1       2.728   6.538  19.346  0.00  0.00    +0.000 N 
ATOM     24  C   UNL     1       2.039   6.258  20.489  0.00  0.00    +0.000 C 
ATOM     25  O   UNL     1       1.987   5.137  21.029  0.00  0.00    +0.000 OA
ATOM     26  H   UNL     1       2.668   7.502  19.028  0.00  0.00    +0.000 HD
BRANCH  23  31
ATOM     27  C   UNL     1       5.792   4.747  18.304  0.00  0.00    +0.000 A 
ATOM     28  C   UNL     1       5.325   3.898  17.299  0.00  0.00    +0.000 A 
ATOM     29  C   UNL     1       3.988   3.929  16.915  0.00  0.00    +0.000 A 
ATOM     30  C   UNL     1       3.095   4.804  17.553  0.00  0.00    +0.000 A 
ATOM     31  C   UNL     1       3.537   5.644  18.601  0.00  0.00    +0.000 A 
ATOM     32  C   UNL     1       4.893   5.605  18.951  0.00  0.00    +0.000 A 
BRANCH  27  34
ATOM     33  C   UNL     1       7.760   5.781  19.115  0.00  0.00    +0.000 C 
ATOM     34  O   UNL     1       7.117   4.626  18.589  0.00  0.00    +0.000 OA
ENDBRANCH  27  34
ENDBRANCH  23  31
ENDBRANCH  22  24
ENDBRANCH   1  22
TORSDOF 6
ENDMDL
MODEL 8
REMARK VINA RESULT:      -7.9      1.498      2.083
REMARK  Name = 
REMARK  9 active torsions:
REMARK  status: ('A' for Active; 'I' for Inactive)
REMARK    1  A    between atoms: C_1  and  O_2
REMARK    2  A    between atoms: O_2  and  C_3
REMARK    3  A    between atoms: C_7  and  N_8
REMARK    4  A    between atoms: C_9  and  C_11
REMARK    5  A    between atoms: C_11  and  N_12
REMARK    6  A    between atoms: N_12  and  C_13
REMARK    7  A    between atoms: C_14  and  C_16
REMARK    8  A    between atoms: C_18  and  C_19
REMARK    9  A    between atoms: C_29  and  C_30
REMARK                            x       y       z     vdW  Elec       q    Type
REMARK                         _______ _______ _______ _____ _____    ______ ____
ROOT
ATOM      1  N   UNL     1       1.198   8.908  21.234  0.00  0.00    +0.000 N 
ATOM      2  C   UNL     1       1.093   9.236  22.686  0.00  0.00    +0.000 C 
ATOM      3  C   UNL     1       1.192   9.905  20.106  0.00  0.00    +0.000 C 
ATOM      4  O   UNL     1       1.465   9.503  18.974  0.00  0.00    +0.000 OA
ENDROOT
BRANCH   3   5
ATOM      5  C   UNL     1       0.577  11.424  20.339  0.00  0.00    +0.000 A 
ATOM      6  C   UNL     1      -0.618  11.115  20.924  0.00  0.00    +0.000 A 
ATOM      7  C   UNL     1      -1.681  11.650  20.305  0.00  0.00    +0.000 A 
ATOM      8  N   UNL     1      -1.668  12.898  20.685  0.00  0.00    +0.000 NA
ATOM      9  C   UNL     1      -0.652  13.553  20.159  0.00  0.00    +0.000 A 
ATOM     10  C   UNL     1      -1.150  14.765  19.727  0.00  0.00    +0.000 A 
ATOM     11  C   UNL     1      -0.452  15.606  18.928  0.00  0.00    +0.000 A 
ATOM     12  C   UNL     1       0.909  15.400  18.838  0.00  0.00    +0.000 A 
ATOM     13  C   UNL     1       1.582  16.719  18.495  0.00  0.00    +0.000 C 
ATOM     14  C   UNL     1       1.456  14.101  19.242  0.00  0.00    +0.000 A 
ATOM     15  C   UNL     1       0.630  12.959  19.871  0.00  0.00    +0.000 A 
BRANCH   7  16
ATOM     16  C   UNL     1      -2.040  11.549  18.834  0.00  0.00    +0.000 A 
ATOM     17  C   UNL     1      -3.235  12.040  18.272  0.00  0.00    +0.000 A 
ATOM     18  C   UNL     1      -3.839  11.369  17.201  0.00  0.00    +0.000 A 
ATOM     19  C   UNL     1      -3.238  10.239  16.652  0.00  0.00    +0.000 A 
ATOM     20  C   UNL     1      -1.981   9.845  17.090  0.00  0.00    +0.000 A 
ATOM     21  C   UNL     1      -1.361  10.539  18.124  0.00  0.00    +0.000 A 
ENDBRANCH   7  16
ENDBRANCH   3   5
BRANCH   1  22
ATOM     22  C   UNL     1       1.254   7.398  21.136  0.00  0.00    +0.000 C 
BRANCH  22  24
ATOM     23  N   UNL     1       2.581   6.408  19.271  0.00  0.00    +0.000 N 
ATOM     24  C   UNL     1       1.892   6.175  20.424  0.00  0.00    +0.000 C 
ATOM     25  O   UNL     1       1.631   5.045  20.878  0.00  0.00    +0.000 OA
ATOM     26  H   UNL     1       2.709   7.388  19.032  0.00  0.00    +0.000 HD
BRANCH  23  31
ATOM     27  C   UNL     1       5.231   4.660  17.373  0.00  0.00    +0.000 A 
ATOM     28  C   UNL     1       4.544   3.589  16.801  0.00  0.00    +0.000 A 
ATOM     29  C   UNL     1       3.174   3.444  16.998  0.00  0.00    +0.000 A 
ATOM     30  C   UNL     1       2.479   4.368  17.794  0.00  0.00    +0.000 A 
ATOM     31  C   UNL     1       3.162   5.438  18.417  0.00  0.00    +0.000 A 
ATOM     32  C   UNL     1       4.536   5.569  18.182  0.00  0.00    +0.000 A 
BRANCH  27  34
ATOM     33  C   UNL     1       6.946   4.503  15.749  0.00  0.00    +0.000 C 
ATOM     34  O   UNL     1       6.565   4.696  17.107  0.00  0.00    +0.000 OA
ENDBRANCH  27  34
ENDBRANCH  23  31
ENDBRANCH  22  24
ENDBRANCH   1  22
TORSDOF 6
ENDMDL
MODEL 9
REMARK VINA RESULT:      -7.8      4.597      8.635
REMARK  Name = 
REMARK  9 active torsions:
REMARK  status: ('A' for Active; 'I' for Inactive)
REMARK    1  A    between atoms: C_1  and  O_2
REMARK    2  A    between atoms: O_2  and  C_3
REMARK    3  A    between atoms: C_7  and  N_8
REMARK    4  A    between atoms: C_9  and  C_11
REMARK    5  A    between atoms: C_11  and  N_12
REMARK    6  A    between atoms: N_12  and  C_13
REMARK    7  A    between atoms: C_14  and  C_16
REMARK    8  A    between atoms: C_18  and  C_19
REMARK    9  A    between atoms: C_29  and  C_30
REMARK                            x       y       z     vdW  Elec       q    Type
REMARK                         _______ _______ _______ _____ _____    ______ ____
ROOT
ATOM      1  N   UNL     1       7.082   6.471  18.071  0.00  0.00    +0.000 N 
ATOM      2  C   UNL     1       6.539   6.692  16.700  0.00  0.00    +0.000 C 
ATOM      3  C   UNL     1       6.605   5.430  19.048  0.00  0.00    +0.000 C 
ATOM      4  O   UNL     1       7.265   5.248  20.072  0.00  0.00    +0.000 OA
ENDROOT
BRANCH   3   5
ATOM      5  C   UNL     1       5.107   4.748  18.875  0.00  0.00    +0.000 A 
ATOM      6  C   UNL     1       4.775   5.205  17.631  0.00  0.00    +0.000 A 
ATOM      7  C   UNL     1       3.603   5.855  17.585  0.00  0.00    +0.000 A 
ATOM      8  N   UNL     1       2.715   4.899  17.615  0.00  0.00    +0.000 NA
ATOM      9  C   UNL     1       2.683   4.305  18.791  0.00  0.00    +0.000 A 
ATOM     10  C   UNL     1       1.352   4.149  19.115  0.00  0.00    +0.000 A 
ATOM     11  C   UNL     1       0.930   3.789  20.350  0.00  0.00    +0.000 A 
ATOM     12  C   UNL     1       1.868   3.230  21.194  0.00  0.00    +0.000 A 
ATOM     13  C   UNL     1       1.156   2.328  22.187  0.00  0.00    +0.000 C 
ATOM     14  C   UNL     1       3.291   3.428  20.899  0.00  0.00    +0.000 A 
ATOM     15  C   UNL     1       3.836   4.133  19.640  0.00  0.00    +0.000 A 
BRANCH   7  16
ATOM     16  C   UNL     1       3.158   7.017  18.452  0.00  0.00    +0.000 A 
ATOM     17  C   UNL     1       2.683   6.888  19.773  0.00  0.00    +0.000 A 
ATOM     18  C   UNL     1       1.686   7.749  20.252  0.00  0.00    +0.000 A 
ATOM     19  C   UNL     1       1.192   8.768  19.445  0.00  0.00    +0.000 A 
ATOM     20  C   UNL     1       1.769   9.007  18.204  0.00  0.00    +0.000 A 
ATOM     21  C   UNL     1       2.789   8.180  17.746  0.00  0.00    +0.000 A 
ENDBRANCH   7  16
ENDBRANCH   3   5
BRANCH   1  22
ATOM     22  C   UNL     1       8.146   7.527  18.289  0.00  0.00    +0.000 C 
BRANCH  22  24
ATOM     23  N   UNL     1       9.324   9.433  19.383  0.00  0.00    +0.000 N 
ATOM     24  C   UNL     1       8.453   9.044  18.408  0.00  0.00    +0.000 C 
ATOM     25  O   UNL     1       7.794   9.822  17.694  0.00  0.00    +0.000 OA
ATOM     26  H   UNL     1       9.783   8.676  19.883  0.00  0.00    +0.000 HD
BRANCH  23  31
ATOM     27  C   UNL     1       9.465  12.525  21.407  0.00  0.00    +0.000 A 
ATOM     28  C   UNL     1      10.293  13.353  20.648  0.00  0.00    +0.000 A 
ATOM     29  C   UNL     1      10.792  12.918  19.423  0.00  0.00    +0.000 A 
ATOM     30  C   UNL     1      10.479  11.632  18.955  0.00  0.00    +0.000 A 
ATOM     31  C   UNL     1       9.675  10.762  19.727  0.00  0.00    +0.000 A 
ATOM     32  C   UNL     1       9.172  11.236  20.945  0.00  0.00    +0.000 A 
BRANCH  27  34
ATOM     33  C   UNL     1       7.658  12.905  22.888  0.00  0.00    +0.000 C 
ATOM     34  O   UNL     1       9.039  13.062  22.583  0.00  0.00    +0.000 OA
ENDBRANCH  27  34
ENDBRANCH  23  31
ENDBRANCH  22  24
ENDBRANCH   1  22
TORSDOF 6
ENDMDL
