MODEL 1
REMARK VINA RESULT:      -7.2      0.000      0.000
REMARK  Name = 
REMARK  8 active torsions:
REMARK  status: ('A' for Active; 'I' for Inactive)
REMARK    1  A    between atoms: C_1  and  N_2
REMARK    2  A    between atoms: N_2  and  C_3
REMARK    3  A    between atoms: N_2  and  C_4
REMARK    4  A    between atoms: N_12  and  C_13
REMARK    5  A    between atoms: N_12  and  C_14
REMARK    6  A    between atoms: N_15  and  C_16
REMARK    7  A    between atoms: C_16  and  C_17
REMARK    8  A    between atoms: C_21  and  N_22
REMARK                            x       y       z     vdW  Elec       q    Type
REMARK                         _______ _______ _______ _____ _____    ______ ____
ROOT
ATOM      1  C   UNL     1       1.394   8.245  20.298  0.00  0.00    +0.000 A 
ATOM      2  N   UNL     1       1.683   9.172  19.334  0.00  0.00    +0.000 NA
ATOM      3  C   UNL     1       2.261   8.780  18.180  0.00  0.00    +0.000 A 
ATOM      4  N   UNL     1       2.614   7.542  17.810  0.00  0.00    +0.000 NA
ATOM      5  C   UNL     1       2.315   6.647  18.769  0.00  0.00    +0.000 A 
ATOM      6  C   UNL     1       1.725   6.897  19.995  0.00  0.00    +0.000 A 
ATOM      7  N   UNL     1       1.608   5.715  20.707  0.00  0.00    +0.000 NA
ATOM      8  C   UNL     1       2.123   4.762  19.953  0.00  0.00    +0.000 A 
ATOM      9  N   UNL     1       2.377   3.480  20.345  0.00  0.00    +0.000 N 
ATOM     10  C   UNL     1       2.290   3.210  21.781  0.00  0.00    +0.000 C 
ATOM     11  C   UNL     1       1.968   2.340  19.527  0.00  0.00    +0.000 C 
ATOM     12  N   UNL     1       2.546   5.295  18.742  0.00  0.00    +0.000 N 
ENDROOT
BRANCH   1  14
ATOM     13  C   UNL     1      -0.593   8.471  21.694  0.00  0.00    +0.000 C 
ATOM     14  N   UNL     1       0.824   8.684  21.485  0.00  0.00    +0.000 N 
ATOM     15  C   UNL     1       1.644   9.271  22.525  0.00  0.00    +0.000 C 
ENDBRANCH   1  14
BRANCH  12  16
ATOM     16  C   UNL     1       3.315   4.648  17.684  0.00  0.00    +0.000 C 
BRANCH  16  17
ATOM     17  C   UNL     1       4.802   4.934  17.729  0.00  0.00    +0.000 A 
ATOM     18  C   UNL     1       5.509   5.112  18.927  0.00  0.00    +0.000 A 
ATOM     19  C   UNL     1       6.873   5.402  18.908  0.00  0.00    +0.000 A 
ATOM     20  C   UNL     1       7.557   5.477  17.697  0.00  0.00    +0.000 A 
ATOM     21  C   UNL     1       6.901   5.215  16.494  0.00  0.00    +0.000 A 
ATOM     22  C   UNL     1       5.519   4.995  16.518  0.00  0.00    +0.000 A 
BRANCH  21  23
ATOM     23  N   UNL     1       7.565   5.403  15.275  0.00  0.00    +0.000 N 
ATOM     24  H   UNL     1       8.112   4.596  14.988  0.00  0.00    +0.000 HD
ATOM     25  H   UNL     1       6.961   5.733  14.529  0.00  0.00    +0.000 HD
ENDBRANCH  21  23
ENDBRANCH  16  17
ENDBRANCH  12  16
TORSDOF 4
ENDMDL
MODEL 2
REMARK VINA RESULT:      -7.2      1.097      1.646
REMARK  Name = 
REMARK  8 active torsions:
REMARK  status: ('A' for Active; 'I' for Inactive)
REMARK    1  A    between atoms: C_1  and  N_2
REMARK    2  A    between atoms: N_2  and  C_3
REMARK    3  A    between atoms: N_2  and  C_4
REMARK    4  A    between atoms: N_12  and  C_13
REMARK    5  A    between atoms: N_12  and  C_14
REMARK    6  A    between atoms: N_15  and  C_16
REMARK    7  A    between atoms: C_16  and  C_17
REMARK    8  A    between atoms: C_21  and  N_22
REMARK                            x       y       z     vdW  Elec       q    Type
REMARK                         _______ _______ _______ _____ _____    ______ ____
ROOT
ATOM      1  C   UNL     1       1.371   8.208  20.302  0.00  0.00    +0.000 A 
ATOM      2  N   UNL     1       1.656   9.173  19.375  0.00  0.00    +0.000 NA
ATOM      3  C   UNL     1       2.310   8.842  18.244  0.00  0.00    +0.000 A 
ATOM      4  N   UNL     1       2.749   7.634  17.864  0.00  0.00    +0.000 NA
ATOM      5  C   UNL     1       2.452   6.701  18.787  0.00  0.00    +0.000 A 
ATOM      6  C   UNL     1       1.790   6.888  19.987  0.00  0.00    +0.000 A 
ATOM      7  N   UNL     1       1.702   5.684  20.665  0.00  0.00    +0.000 NA
ATOM      8  C   UNL     1       2.305   4.778  19.917  0.00  0.00    +0.000 A 
ATOM      9  N   UNL     1       2.610   3.503  20.293  0.00  0.00    +0.000 N 
ATOM     10  C   UNL     1       2.467   3.192  21.716  0.00  0.00    +0.000 C 
ATOM     11  C   UNL     1       2.306   2.363  19.429  0.00  0.00    +0.000 C 
ATOM     12  N   UNL     1       2.758   5.364  18.742  0.00  0.00    +0.000 N 
ENDROOT
BRANCH   1  14
ATOM     13  C   UNL     1       1.472   9.289  22.486  0.00  0.00    +0.000 C 
ATOM     14  N   UNL     1       0.719   8.586  21.469  0.00  0.00    +0.000 N 
ATOM     15  C   UNL     1      -0.701   8.352  21.630  0.00  0.00    +0.000 C 
ENDBRANCH   1  14
BRANCH  12  16
ATOM     16  C   UNL     1       3.613   4.785  17.709  0.00  0.00    +0.000 C 
BRANCH  16  17
ATOM     17  C   UNL     1       5.044   5.284  17.733  0.00  0.00    +0.000 A 
ATOM     18  C   UNL     1       5.664   5.876  16.624  0.00  0.00    +0.000 A 
ATOM     19  C   UNL     1       6.993   6.291  16.693  0.00  0.00    +0.000 A 
ATOM     20  C   UNL     1       7.708   6.158  17.882  0.00  0.00    +0.000 A 
ATOM     21  C   UNL     1       7.091   5.656  19.028  0.00  0.00    +0.000 A 
ATOM     22  C   UNL     1       5.780   5.178  18.929  0.00  0.00    +0.000 A 
BRANCH  21  23
ATOM     23  N   UNL     1       7.844   5.419  20.185  0.00  0.00    +0.000 N 
ATOM     24  H   UNL     1       7.748   4.471  20.538  0.00  0.00    +0.000 HD
ATOM     25  H   UNL     1       8.818   5.693  20.101  0.00  0.00    +0.000 HD
ENDBRANCH  21  23
ENDBRANCH  16  17
ENDBRANCH  12  16
TORSDOF 4
ENDMDL
MODEL 3
REMARK VINA RESULT:      -6.8      1.342      1.510
REMARK  Name = 
REMARK  8 active torsions:
REMARK  status: ('A' for Active; 'I' for Inactive)
REMARK    1  A    between atoms: C_1  and  N_2
REMARK    2  A    between atoms: N_2  and  C_3
REMARK    3  A    between atoms: N_2  and  C_4
REMARK    4  A    between atoms: N_12  and  C_13
REMARK    5  A    between atoms: N_12  and  C_14
REMARK    6  A    between atoms: N_15  and  C_16
REMARK    7  A    between atoms: C_16  and  C_17
REMARK    8  A    between atoms: C_21  and  N_22
REMARK                            x       y       z     vdW  Elec       q    Type
REMARK                         _______ _______ _______ _____ _____    ______ ____
ROOT
ATOM      1  C   UNL     1       1.167   9.131  19.932  0.00  0.00    +0.000 A 
ATOM      2  N   UNL     1       1.451  10.078  18.987  0.00  0.00    +0.000 NA
ATOM      3  C   UNL     1       2.178   9.745  17.902  0.00  0.00    +0.000 A 
ATOM      4  N   UNL     1       2.695   8.549  17.586  0.00  0.00    +0.000 NA
ATOM      5  C   UNL     1       2.397   7.632  18.524  0.00  0.00    +0.000 A 
ATOM      6  C   UNL     1       1.666   7.824  19.683  0.00  0.00    +0.000 A 
ATOM      7  N   UNL     1       1.604   6.639  20.397  0.00  0.00    +0.000 NA
ATOM      8  C   UNL     1       2.287   5.742  19.711  0.00  0.00    +0.000 A 
ATOM      9  N   UNL     1       2.635   4.497  20.145  0.00  0.00    +0.000 N 
ATOM     10  C   UNL     1       2.435   4.225  21.570  0.00  0.00    +0.000 C 
ATOM     11  C   UNL     1       2.431   3.316  19.308  0.00  0.00    +0.000 C 
ATOM     12  N   UNL     1       2.770   6.312  18.540  0.00  0.00    +0.000 N 
ENDROOT
BRANCH   1  14
ATOM     13  C   UNL     1       0.967   9.196  22.361  0.00  0.00    +0.000 C 
ATOM     14  N   UNL     1       0.439   9.512  21.051  0.00  0.00    +0.000 N 
ATOM     15  C   UNL     1      -0.782  10.278  20.911  0.00  0.00    +0.000 C 
ENDBRANCH   1  14
BRANCH  12  16
ATOM     16  C   UNL     1       3.705   5.745  17.572  0.00  0.00    +0.000 C 
BRANCH  16  17
ATOM     17  C   UNL     1       5.164   5.916  17.940  0.00  0.00    +0.000 A 
ATOM     18  C   UNL     1       5.833   5.058  18.825  0.00  0.00    +0.000 A 
ATOM     19  C   UNL     1       7.171   5.279  19.151  0.00  0.00    +0.000 A 
ATOM     20  C   UNL     1       7.870   6.333  18.565  0.00  0.00    +0.000 A 
ATOM     21  C   UNL     1       7.258   7.147  17.612  0.00  0.00    +0.000 A 
ATOM     22  C   UNL     1       5.897   6.961  17.346  0.00  0.00    +0.000 A 
BRANCH  21  23
ATOM     23  N   UNL     1       7.928   8.272  17.114  0.00  0.00    +0.000 N 
ATOM     24  H   UNL     1       8.921   8.115  16.968  0.00  0.00    +0.000 HD
ATOM     25  H   UNL     1       7.487   8.679  16.295  0.00  0.00    +0.000 HD
ENDBRANCH  21  23
ENDBRANCH  16  17
ENDBRANCH  12  16
TORSDOF 4
ENDMDL
MODEL 4
REMARK VINA RESULT:      -6.3      3.026      7.342
REMARK  Name = 
REMARK  8 active torsions:
REMARK  status: ('A' for Active; 'I' for Inactive)
REMARK    1  A    between atoms: C_1  and  N_2
REMARK    2  A    between atoms: N_2  and  C_3
REMARK    3  A    between atoms: N_2  and  C_4
REMARK    4  A    between atoms: N_12  and  C_13
REMARK    5  A    between atoms: N_12  and  C_14
REMARK    6  A    between atoms: N_15  and  C_16
REMARK    7  A    between atoms: C_16  and  C_17
REMARK    8  A    between atoms: C_21  and  N_22
REMARK                            x       y       z     vdW  Elec       q    Type
REMARK                         _______ _______ _______ _____ _____    ______ ____
ROOT
ATOM      1  C   UNL     1       2.708   6.622  19.138  0.00  0.00    +0.000 A 
ATOM      2  N   UNL     1       3.180   6.697  17.856  0.00  0.00    +0.000 NA
ATOM      3  C   UNL     1       2.936   7.797  17.116  0.00  0.00    +0.000 A 
ATOM      4  N   UNL     1       2.261   8.900  17.470  0.00  0.00    +0.000 NA
ATOM      5  C   UNL     1       1.814   8.807  18.735  0.00  0.00    +0.000 A 
ATOM      6  C   UNL     1       1.984   7.750  19.610  0.00  0.00    +0.000 A 
ATOM      7  N   UNL     1       1.352   8.029  20.810  0.00  0.00    +0.000 NA
ATOM      8  C   UNL     1       0.792   9.218  20.679  0.00  0.00    +0.000 A 
ATOM      9  N   UNL     1      -0.084   9.791  21.554  0.00  0.00    +0.000 N 
ATOM     10  C   UNL     1      -0.622   8.919  22.601  0.00  0.00    +0.000 C 
ATOM     11  C   UNL     1       0.081  11.174  21.998  0.00  0.00    +0.000 C 
ATOM     12  N   UNL     1       1.076   9.737  19.423  0.00  0.00    +0.000 N 
ENDROOT
BRANCH   1  14
ATOM     13  C   UNL     1       4.229   4.800  19.699  0.00  0.00    +0.000 C 
ATOM     14  N   UNL     1       2.953   5.464  19.865  0.00  0.00    +0.000 N 
ATOM     15  C   UNL     1       1.986   4.978  20.825  0.00  0.00    +0.000 C 
ENDBRANCH   1  14
BRANCH  12  16
ATOM     16  C   UNL     1       0.532  10.936  18.792  0.00  0.00    +0.000 C 
BRANCH  16  17
ATOM     17  C   UNL     1      -0.909  10.806  18.343  0.00  0.00    +0.000 A 
ATOM     18  C   UNL     1      -1.336   9.840  17.421  0.00  0.00    +0.000 A 
ATOM     19  C   UNL     1      -2.671   9.784  17.021  0.00  0.00    +0.000 A 
ATOM     20  C   UNL     1      -3.604  10.664  17.567  0.00  0.00    +0.000 A 
ATOM     21  C   UNL     1      -3.226  11.576  18.552  0.00  0.00    +0.000 A 
ATOM     22  C   UNL     1      -1.873  11.672  18.894  0.00  0.00    +0.000 A 
BRANCH  21  23
ATOM     23  N   UNL     1      -4.140  12.532  19.012  0.00  0.00    +0.000 N 
ATOM     24  H   UNL     1      -3.694  13.353  19.414  0.00  0.00    +0.000 HD
ATOM     25  H   UNL     1      -4.846  12.785  18.327  0.00  0.00    +0.000 HD
ENDBRANCH  21  23
ENDBRANCH  16  17
ENDBRANCH  12  16
TORSDOF 4
ENDMDL
MODEL 5
REMARK VINA RESULT:      -6.2      4.918      7.995
REMARK  Name = 
REMARK  8 active torsions:
REMARK  status: ('A' for Active; 'I' for Inactive)
REMARK    1  A    between atoms: C_1  and  N_2
REMARK    2  A    between atoms: N_2  and  C_3
REMARK    3  A    between atoms: N_2  and  C_4
REMARK    4  A    between atoms: N_12  and  C_13
REMARK    5  A    between atoms: N_12  and  C_14
REMARK    6  A    between atoms: N_15  and  C_16
REMARK    7  A    between atoms: C_16  and  C_17
REMARK    8  A    between atoms: C_21  and  N_22
REMARK                            x       y       z     vdW  Elec       q    Type
REMARK                         _______ _______ _______ _____ _____    ______ ____
ROOT
ATOM      1  C   UNL     1      -4.558  11.331  17.600  0.00  0.00    +0.000 A 
ATOM      2  N   UNL     1      -4.238  10.768  16.395  0.00  0.00    +0.000 NA
ATOM      3  C   UNL     1      -2.946  10.559  16.076  0.00  0.00    +0.000 A 
ATOM      4  N   UNL     1      -1.857  10.834  16.807  0.00  0.00    +0.000 NA
ATOM      5  C   UNL     1      -2.195  11.381  17.989  0.00  0.00    +0.000 A 
ATOM      6  C   UNL     1      -3.469  11.653  18.454  0.00  0.00    +0.000 A 
ATOM      7  N   UNL     1      -3.395  12.238  19.707  0.00  0.00    +0.000 NA
ATOM      8  C   UNL     1      -2.113  12.340  20.006  0.00  0.00    +0.000 A 
ATOM      9  N   UNL     1      -1.589  13.026  21.062  0.00  0.00    +0.000 N 
ATOM     10  C   UNL     1      -2.507  13.910  21.783  0.00  0.00    +0.000 C 
ATOM     11  C   UNL     1      -0.579  12.426  21.932  0.00  0.00    +0.000 C 
ATOM     12  N   UNL     1      -1.346  11.800  18.982  0.00  0.00    +0.000 N 
ENDROOT
BRANCH   1  14
ATOM     13  C   UNL     1      -6.535  12.735  17.337  0.00  0.00    +0.000 C 
ATOM     14  N   UNL     1      -5.898  11.557  17.888  0.00  0.00    +0.000 N 
ATOM     15  C   UNL     1      -6.660  10.595  18.656  0.00  0.00    +0.000 C 
ENDBRANCH   1  14
BRANCH  12  16
ATOM     16  C   UNL     1       0.104  11.846  18.812  0.00  0.00    +0.000 C 
BRANCH  16  17
ATOM     17  C   UNL     1       0.785  10.495  18.901  0.00  0.00    +0.000 A 
ATOM     18  C   UNL     1       1.428   9.892  17.811  0.00  0.00    +0.000 A 
ATOM     19  C   UNL     1       2.015   8.634  17.943  0.00  0.00    +0.000 A 
ATOM     20  C   UNL     1       2.003   7.980  19.174  0.00  0.00    +0.000 A 
ATOM     21  C   UNL     1       1.451   8.595  20.298  0.00  0.00    +0.000 A 
ATOM     22  C   UNL     1       0.803   9.825  20.139  0.00  0.00    +0.000 A 
BRANCH  21  23
ATOM     23  N   UNL     1       1.340   7.888  21.502  0.00  0.00    +0.000 N 
ATOM     24  H   UNL     1       0.437   7.438  21.621  0.00  0.00    +0.000 HD
ATOM     25  H   UNL     1       2.107   7.244  21.668  0.00  0.00    +0.000 HD
ENDBRANCH  21  23
ENDBRANCH  16  17
ENDBRANCH  12  16
TORSDOF 4
ENDMDL
MODEL 6
REMARK VINA RESULT:      -6.2      4.805      7.722
REMARK  Name = 
REMARK  8 active torsions:
REMARK  status: ('A' for Active; 'I' for Inactive)
REMARK    1  A    between atoms: C_1  and  N_2
REMARK    2  A    between atoms: N_2  and  C_3
REMARK    3  A    between atoms: N_2  and  C_4
REMARK    4  A    between atoms: N_12  and  C_13
REMARK    5  A    between atoms: N_12  and  C_14
REMARK    6  A    between atoms: N_15  and  C_16
REMARK    7  A    between atoms: C_16  and  C_17
REMARK    8  A    between atoms: C_21  and  N_22
REMARK                            x       y       z     vdW  Elec       q    Type
REMARK                         _______ _______ _______ _____ _____    ______ ____
ROOT
ATOM      1  C   UNL     1      -4.413  11.157  17.630  0.00  0.00    +0.000 A 
ATOM      2  N   UNL     1      -4.096  10.389  16.543  0.00  0.00    +0.000 NA
ATOM      3  C   UNL     1      -2.813  10.037  16.323  0.00  0.00    +0.000 A 
ATOM      4  N   UNL     1      -1.733  10.343  17.055  0.00  0.00    +0.000 NA
ATOM      5  C   UNL     1      -2.069  11.091  18.121  0.00  0.00    +0.000 A 
ATOM      6  C   UNL     1      -3.333  11.527  18.475  0.00  0.00    +0.000 A 
ATOM      7  N   UNL     1      -3.257  12.295  19.626  0.00  0.00    +0.000 NA
ATOM      8  C   UNL     1      -1.983  12.347  19.967  0.00  0.00    +0.000 A 
ATOM      9  N   UNL     1      -1.445  13.150  20.930  0.00  0.00    +0.000 N 
ATOM     10  C   UNL     1      -2.314  14.202  21.461  0.00  0.00    +0.000 C 
ATOM     11  C   UNL     1      -0.518  12.621  21.930  0.00  0.00    +0.000 C 
ATOM     12  N   UNL     1      -1.226  11.598  19.077  0.00  0.00    +0.000 N 
ENDROOT
BRANCH   1  14
ATOM     13  C   UNL     1      -6.227  12.715  17.150  0.00  0.00    +0.000 C 
ATOM     14  N   UNL     1      -5.739  11.524  17.814  0.00  0.00    +0.000 N 
ATOM     15  C   UNL     1      -6.635  10.691  18.589  0.00  0.00    +0.000 C 
ENDBRANCH   1  14
BRANCH  12  16
ATOM     16  C   UNL     1       0.228  11.508  18.973  0.00  0.00    +0.000 C 
BRANCH  16  17
ATOM     17  C   UNL     1       0.800  10.162  19.367  0.00  0.00    +0.000 A 
ATOM     18  C   UNL     1       0.546   9.559  20.607  0.00  0.00    +0.000 A 
ATOM     19  C   UNL     1       1.122   8.331  20.929  0.00  0.00    +0.000 A 
ATOM     20  C   UNL     1       1.925   7.669  20.002  0.00  0.00    +0.000 A 
ATOM     21  C   UNL     1       2.122   8.200  18.727  0.00  0.00    +0.000 A 
ATOM     22  C   UNL     1       1.598   9.465  18.440  0.00  0.00    +0.000 A 
BRANCH  21  23
ATOM     23  N   UNL     1       3.019   7.589  17.842  0.00  0.00    +0.000 N 
ATOM     24  H   UNL     1       3.319   6.667  18.147  0.00  0.00    +0.000 HD
ATOM     25  H   UNL     1       2.699   7.581  16.878  0.00  0.00    +0.000 HD
ENDBRANCH  21  23
ENDBRANCH  16  17
ENDBRANCH  12  16
TORSDOF 4
ENDMDL
MODEL 7
REMARK VINA RESULT:      -5.9      1.875      4.305
REMARK  Name = 
REMARK  8 active torsions:
REMARK  status: ('A' for Active; 'I' for Inactive)
REMARK    1  A    between atoms: C_1  and  N_2
REMARK    2  A    between atoms: N_2  and  C_3
REMARK    3  A    between atoms: N_2  and  C_4
REMARK    4  A    between atoms: N_12  and  C_13
REMARK    5  A    between atoms: N_12  and  C_14
REMARK    6  A    between atoms: N_15  and  C_16
REMARK    7  A    between atoms: C_16  and  C_17
REMARK    8  A    between atoms: C_21  and  N_22
REMARK                            x       y       z     vdW  Elec       q    Type
REMARK                         _______ _______ _______ _____ _____    ______ ____
ROOT
ATOM      1  C   UNL     1       0.941   9.335  19.340  0.00  0.00    +0.000 A 
ATOM      2  N   UNL     1       0.233   9.140  20.494  0.00  0.00    +0.000 NA
ATOM      3  C   UNL     1       0.529   8.095  21.293  0.00  0.00    +0.000 A 
ATOM      4  N   UNL     1       1.473   7.160  21.118  0.00  0.00    +0.000 NA
ATOM      5  C   UNL     1       2.160   7.375  19.981  0.00  0.00    +0.000 A 
ATOM      6  C   UNL     1       1.973   8.397  19.068  0.00  0.00    +0.000 A 
ATOM      7  N   UNL     1       2.865   8.255  18.019  0.00  0.00    +0.000 NA
ATOM      8  C   UNL     1       3.575   7.169  18.265  0.00  0.00    +0.000 A 
ATOM      9  N   UNL     1       4.436   6.562  17.398  0.00  0.00    +0.000 N 
ATOM     10  C   UNL     1       4.388   7.018  16.007  0.00  0.00    +0.000 C 
ATOM     11  C   UNL     1       5.777   6.157  17.817  0.00  0.00    +0.000 C 
ATOM     12  N   UNL     1       3.184   6.615  19.476  0.00  0.00    +0.000 N 
ENDROOT
BRANCH   1  14
ATOM     13  C   UNL     1      -0.637  10.329  17.768  0.00  0.00    +0.000 C 
ATOM     14  N   UNL     1       0.595  10.405  18.525  0.00  0.00    +0.000 N 
ATOM     15  C   UNL     1       1.407  11.603  18.495  0.00  0.00    +0.000 C 
ENDBRANCH   1  14
BRANCH  12  16
ATOM     16  C   UNL     1       3.578   5.335  20.059  0.00  0.00    +0.000 C 
BRANCH  16  17
ATOM     17  C   UNL     1       2.930   4.129  19.411  0.00  0.00    +0.000 A 
ATOM     18  C   UNL     1       1.564   4.073  19.097  0.00  0.00    +0.000 A 
ATOM     19  C   UNL     1       1.015   2.926  18.526  0.00  0.00    +0.000 A 
ATOM     20  C   UNL     1       1.828   1.835  18.223  0.00  0.00    +0.000 A 
ATOM     21  C   UNL     1       3.205   1.895  18.440  0.00  0.00    +0.000 A 
ATOM     22  C   UNL     1       3.734   3.023  19.077  0.00  0.00    +0.000 A 
BRANCH  21  23
ATOM     23  N   UNL     1       3.998   0.759  18.240  0.00  0.00    +0.000 N 
ATOM     24  H   UNL     1       4.848   0.950  17.716  0.00  0.00    +0.000 HD
ATOM     25  H   UNL     1       4.190   0.241  19.093  0.00  0.00    +0.000 HD
ENDBRANCH  21  23
ENDBRANCH  16  17
ENDBRANCH  12  16
TORSDOF 4
ENDMDL
MODEL 8
REMARK VINA RESULT:      -5.8      3.002      7.140
REMARK  Name = 
REMARK  8 active torsions:
REMARK  status: ('A' for Active; 'I' for Inactive)
REMARK    1  A    between atoms: C_1  and  N_2
REMARK    2  A    between atoms: N_2  and  C_3
REMARK    3  A    between atoms: N_2  and  C_4
REMARK    4  A    between atoms: N_12  and  C_13
REMARK    5  A    between atoms: N_12  and  C_14
REMARK    6  A    between atoms: N_15  and  C_16
REMARK    7  A    between atoms: C_16  and  C_17
REMARK    8  A    between atoms: C_21  and  N_22
REMARK                            x       y       z     vdW  Elec       q    Type
REMARK                         _______ _______ _______ _____ _____    ______ ____
ROOT
ATOM      1  C   UNL     1       2.538   6.790  19.221  0.00  0.00    +0.000 A 
ATOM      2  N   UNL     1       3.017   6.869  17.942  0.00  0.00    +0.000 NA
ATOM      3  C   UNL     1       2.807   7.985  17.216  0.00  0.00    +0.000 A 
ATOM      4  N   UNL     1       2.161   9.101  17.581  0.00  0.00    +0.000 NA
ATOM      5  C   UNL     1       1.705   9.003  18.843  0.00  0.00    +0.000 A 
ATOM      6  C   UNL     1       1.843   7.930  19.705  0.00  0.00    +0.000 A 
ATOM      7  N   UNL     1       1.212   8.211  20.905  0.00  0.00    +0.000 NA
ATOM      8  C   UNL     1       0.686   9.415  20.789  0.00  0.00    +0.000 A 
ATOM      9  N   UNL     1      -0.178  10.000  21.668  0.00  0.00    +0.000 N 
ATOM     10  C   UNL     1      -0.745   9.130  22.700  0.00  0.00    +0.000 C 
ATOM     11  C   UNL     1       0.022  11.373  22.130  0.00  0.00    +0.000 C 
ATOM     12  N   UNL     1       0.989   9.943  19.541  0.00  0.00    +0.000 N 
ENDROOT
BRANCH   1  14
ATOM     13  C   UNL     1       1.647   5.056  20.687  0.00  0.00    +0.000 C 
ATOM     14  N   UNL     1       2.748   5.616  19.933  0.00  0.00    +0.000 N 
ATOM     15  C   UNL     1       4.019   4.926  19.858  0.00  0.00    +0.000 C 
ENDBRANCH   1  14
BRANCH  12  16
ATOM     16  C   UNL     1       0.481  11.165  18.924  0.00  0.00    +0.000 C 
BRANCH  16  17
ATOM     17  C   UNL     1      -0.968  11.088  18.487  0.00  0.00    +0.000 A 
ATOM     18  C   UNL     1      -2.003  11.755  19.158  0.00  0.00    +0.000 A 
ATOM     19  C   UNL     1      -3.323  11.626  18.729  0.00  0.00    +0.000 A 
ATOM     20  C   UNL     1      -3.623  10.863  17.601  0.00  0.00    +0.000 A 
ATOM     21  C   UNL     1      -2.605  10.263  16.861  0.00  0.00    +0.000 A 
ATOM     22  C   UNL     1      -1.292  10.340  17.339  0.00  0.00    +0.000 A 
BRANCH  21  23
ATOM     23  N   UNL     1      -2.919   9.406  15.798  0.00  0.00    +0.000 N 
ATOM     24  H   UNL     1      -3.815   8.939  15.912  0.00  0.00    +0.000 HD
ATOM     25  H   UNL     1      -2.836   9.842  14.885  0.00  0.00    +0.000 HD
ENDBRANCH  21  23
ENDBRANCH  16  17
ENDBRANCH  12  16
TORSDOF 4
ENDMDL
MODEL 9
REMARK VINA RESULT:      -5.7      5.269      8.833
REMARK  Name = 
REMARK  8 active torsions:
REMARK  status: ('A' for Active; 'I' for Inactive)
REMARK    1  A    between atoms: C_1  and  N_2
REMARK    2  A    between atoms: N_2  and  C_3
REMARK    3  A    between atoms: N_2  and  C_4
REMARK    4  A    between atoms: N_12  and  C_13
REMARK    5  A    between atoms: N_12  and  C_14
REMARK    6  A    between atoms: N_15  and  C_16
REMARK    7  A    between atoms: C_16  and  C_17
REMARK    8  A    between atoms: C_21  and  N_22
REMARK                            x       y       z     vdW  Elec       q    Type
REMARK                         _______ _______ _______ _____ _____    ______ ____
ROOT
ATOM      1  C   UNL     1       1.747  14.787  18.866  0.00  0.00    +0.000 A 
ATOM      2  N   UNL     1       0.791  15.726  19.142  0.00  0.00    +0.000 NA
ATOM      3  C   UNL     1      -0.442  15.335  19.522  0.00  0.00    +0.000 A 
ATOM      4  N   UNL     1      -0.902  14.087  19.682  0.00  0.00    +0.000 NA
ATOM      5  C   UNL     1       0.056  13.181  19.412  0.00  0.00    +0.000 A 
ATOM      6  C   UNL     1       1.357  13.429  19.015  0.00  0.00    +0.000 A 
ATOM      7  N   UNL     1       2.021  12.231  18.813  0.00  0.00    +0.000 NA
ATOM      8  C   UNL     1       1.154  11.267  19.061  0.00  0.00    +0.000 A 
ATOM      9  N   UNL     1       1.336   9.939  18.805  0.00  0.00    +0.000 N 
ATOM     10  C   UNL     1       2.490   9.590  17.974  0.00  0.00    +0.000 C 
ATOM     11  C   UNL     1       1.032   8.922  19.810  0.00  0.00    +0.000 C 
ATOM     12  N   UNL     1      -0.059  11.815  19.456  0.00  0.00    +0.000 N 
ENDROOT
BRANCH   1  14
ATOM     13  C   UNL     1       3.087  16.060  17.275  0.00  0.00    +0.000 C 
ATOM     14  N   UNL     1       2.999  15.222  18.452  0.00  0.00    +0.000 N 
ATOM     15  C   UNL     1       4.182  14.909  19.226  0.00  0.00    +0.000 C 
ENDBRANCH   1  14
BRANCH  12  16
ATOM     16  C   UNL     1      -1.336  11.138  19.669  0.00  0.00    +0.000 C 
BRANCH  16  17
ATOM     17  C   UNL     1      -2.172  10.975  18.416  0.00  0.00    +0.000 A 
ATOM     18  C   UNL     1      -1.817  10.113  17.369  0.00  0.00    +0.000 A 
ATOM     19  C   UNL     1      -2.610  10.024  16.225  0.00  0.00    +0.000 A 
ATOM     20  C   UNL     1      -3.788  10.763  16.129  0.00  0.00    +0.000 A 
ATOM     21  C   UNL     1      -4.214  11.560  17.192  0.00  0.00    +0.000 A 
ATOM     22  C   UNL     1      -3.376  11.696  18.305  0.00  0.00    +0.000 A 
BRANCH  21  23
ATOM     23  N   UNL     1      -5.335  12.386  17.046  0.00  0.00    +0.000 N 
ATOM     24  H   UNL     1      -5.337  13.177  17.685  0.00  0.00    +0.000 HD
ATOM     25  H   UNL     1      -5.506  12.676  16.088  0.00  0.00    +0.000 HD
ENDBRANCH  21  23
ENDBRANCH  16  17
ENDBRANCH  12  16
TORSDOF 4
ENDMDL
