MODEL 1
REMARK VINA RESULT:      -8.1      0.000      0.000
REMARK  Name = 
REMARK  4 active torsions:
REMARK  status: ('A' for Active; 'I' for Inactive)
REMARK    1  A    between atoms: C_1  and  N_2
REMARK    2  A    between atoms: C_4  and  C_5
REMARK    3  A    between atoms: C_5  and  O_7
REMARK    4  A    between atoms: C_13  and  N_14
REMARK                            x       y       z     vdW  Elec       q    Type
REMARK                         _______ _______ _______ _____ _____    ______ ____
ROOT
ATOM      1  C   UNL     1       2.076   4.572  21.242  0.00  0.00    +0.000 C 
ATOM      2  N   UNL     1       2.714   5.042  20.010  0.00  0.00    +0.000 N 
ATOM      3  C   UNL     1       3.456   4.197  19.204  0.00  0.00    +0.000 A 
ATOM      4  C   UNL     1       4.024   4.521  18.028  0.00  0.00    +0.000 A 
ATOM      5  C   UNL     1       3.833   5.901  17.550  0.00  0.00    +0.000 A 
ATOM      6  O   UNL     1       4.370   6.273  16.510  0.00  0.00    +0.000 OA
ATOM      7  C   UNL     1       2.996   6.814  18.354  0.00  0.00    +0.000 A 
ATOM      8  C   UNL     1       2.750   8.094  17.866  0.00  0.00    +0.000 A 
ATOM      9  C   UNL     1       2.011   8.986  18.631  0.00  0.00    +0.000 A 
ATOM     10  C   UNL     1       1.530   8.632  19.895  0.00  0.00    +0.000 A 
ATOM     11  C   UNL     1       1.764   7.318  20.350  0.00  0.00    +0.000 A 
ATOM     12  C   UNL     1       2.482   6.378  19.591  0.00  0.00    +0.000 A 
ENDROOT
BRANCH  10  13
ATOM     13  N   UNL     1       0.917   9.607  20.667  0.00  0.00    +0.000 N 
ATOM     14  C   UNL     1      -0.227   9.256  21.530  0.00  0.00    +0.000 C 
ATOM     15  C   UNL     1      -0.368  10.305  22.655  0.00  0.00    +0.000 C 
ATOM     16  N   UNL     1      -0.469  11.640  22.049  0.00  0.00    +0.000 N 
ATOM     17  C   UNL     1      -1.190  12.618  22.646  0.00  0.00    +0.000 A 
ATOM     18  N   UNL     1      -0.763  13.849  22.806  0.00  0.00    +0.000 NA
ATOM     19  C   UNL     1      -1.697  14.594  23.498  0.00  0.00    +0.000 A 
ATOM     20  C   UNL     1      -1.513  15.907  23.969  0.00  0.00    +0.000 A 
ATOM     21  C   UNL     1      -2.524  16.518  24.717  0.00  0.00    +0.000 A 
ATOM     22  C   UNL     1      -3.733  15.865  24.936  0.00  0.00    +0.000 A 
ATOM     23  C   UNL     1      -3.957  14.580  24.437  0.00  0.00    +0.000 A 
ATOM     24  C   UNL     1      -2.906  13.950  23.755  0.00  0.00    +0.000 A 
ATOM     25  S   UNL     1      -2.823  12.353  23.146  0.00  0.00    +0.000 S 
ATOM     26  C   UNL     1       0.720  12.006  21.265  0.00  0.00    +0.000 C 
ATOM     27  C   UNL     1       0.870  10.984  20.115  0.00  0.00    +0.000 C 
ENDBRANCH  10  13
BRANCH   4  28
ATOM     28  C   UNL     1       4.793   3.513  17.271  0.00  0.00    +0.000 C 
ATOM     29  O   UNL     1       4.367   2.395  17.025  0.00  0.00    +0.000 OA
BRANCH  28  30
ATOM     30  O   UNL     1       6.016   3.919  16.860  0.00  0.00    +0.000 OA
ATOM     31  H   UNL     1       6.108   4.906  16.810  0.00  0.00    +0.000 HD
ENDBRANCH  28  30
ENDBRANCH   4  28
TORSDOF 3
ENDMDL
MODEL 2
REMARK VINA RESULT:      -8.1      1.489      1.687
REMARK  Name = 
REMARK  4 active torsions:
REMARK  status: ('A' for Active; 'I' for Inactive)
REMARK    1  A    between atoms: C_1  and  N_2
REMARK    2  A    between atoms: C_4  and  C_5
REMARK    3  A    between atoms: C_5  and  O_7
REMARK    4  A    between atoms: C_13  and  N_14
REMARK                            x       y       z     vdW  Elec       q    Type
REMARK                         _______ _______ _______ _____ _____    ______ ____
ROOT
ATOM      1  C   UNL     1       1.961   5.181  20.985  0.00  0.00    +0.000 C 
ATOM      2  N   UNL     1       2.743   5.639  19.834  0.00  0.00    +0.000 N 
ATOM      3  C   UNL     1       3.686   4.831  19.225  0.00  0.00    +0.000 A 
ATOM      4  C   UNL     1       4.405   5.140  18.129  0.00  0.00    +0.000 A 
ATOM      5  C   UNL     1       4.160   6.457  17.518  0.00  0.00    +0.000 A 
ATOM      6  O   UNL     1       4.821   6.819  16.548  0.00  0.00    +0.000 OA
ATOM      7  C   UNL     1       3.117   7.322  18.105  0.00  0.00    +0.000 A 
ATOM      8  C   UNL     1       2.830   8.534  17.484  0.00  0.00    +0.000 A 
ATOM      9  C   UNL     1       1.892   9.387  18.049  0.00  0.00    +0.000 A 
ATOM     10  C   UNL     1       1.248   9.063  19.247  0.00  0.00    +0.000 A 
ATOM     11  C   UNL     1       1.531   7.814  19.837  0.00  0.00    +0.000 A 
ATOM     12  C   UNL     1       2.453   6.912  19.278  0.00  0.00    +0.000 A 
ENDROOT
BRANCH  10  13
ATOM     13  N   UNL     1       0.424  10.012  19.833  0.00  0.00    +0.000 N 
ATOM     14  C   UNL     1       0.363  10.133  21.302  0.00  0.00    +0.000 C 
ATOM     15  C   UNL     1      -0.142  11.541  21.685  0.00  0.00    +0.000 C 
ATOM     16  N   UNL     1      -1.429  11.782  21.015  0.00  0.00    +0.000 N 
ATOM     17  C   UNL     1      -2.372  12.564  21.590  0.00  0.00    +0.000 A 
ATOM     18  N   UNL     1      -3.034  13.502  20.953  0.00  0.00    +0.000 NA
ATOM     19  C   UNL     1      -3.882  14.163  21.820  0.00  0.00    +0.000 A 
ATOM     20  C   UNL     1      -4.634  15.312  21.513  0.00  0.00    +0.000 A 
ATOM     21  C   UNL     1      -5.402  15.919  22.512  0.00  0.00    +0.000 A 
ATOM     22  C   UNL     1      -5.483  15.353  23.782  0.00  0.00    +0.000 A 
ATOM     23  C   UNL     1      -4.783  14.187  24.095  0.00  0.00    +0.000 A 
ATOM     24  C   UNL     1      -3.956  13.633  23.106  0.00  0.00    +0.000 A 
ATOM     25  S   UNL     1      -2.887  12.302  23.219  0.00  0.00    +0.000 S 
ATOM     26  C   UNL     1      -1.328  11.744  19.549  0.00  0.00    +0.000 C 
ATOM     27  C   UNL     1      -0.847  10.334  19.137  0.00  0.00    +0.000 C 
ENDBRANCH  10  13
BRANCH   4  28
ATOM     28  C   UNL     1       5.382   4.177  17.585  0.00  0.00    +0.000 C 
ATOM     29  O   UNL     1       5.209   3.568  16.540  0.00  0.00    +0.000 OA
BRANCH  28  30
ATOM     30  O   UNL     1       6.498   4.012  18.332  0.00  0.00    +0.000 OA
ATOM     31  H   UNL     1       6.566   3.114  18.747  0.00  0.00    +0.000 HD
ENDBRANCH  28  30
ENDBRANCH   4  28
TORSDOF 3
ENDMDL
MODEL 3
REMARK VINA RESULT:      -8.0      1.205      1.520
REMARK  Name = 
REMARK  4 active torsions:
REMARK  status: ('A' for Active; 'I' for Inactive)
REMARK    1  A    between atoms: C_1  and  N_2
REMARK    2  A    between atoms: C_4  and  C_5
REMARK    3  A    between atoms: C_5  and  O_7
REMARK    4  A    between atoms: C_13  and  N_14
REMARK                            x       y       z     vdW  Elec       q    Type
REMARK                         _______ _______ _______ _____ _____    ______ ____
ROOT
ATOM      1  C   UNL     1       2.099   5.172  21.062  0.00  0.00    +0.000 C 
ATOM      2  N   UNL     1       2.821   5.630  19.873  0.00  0.00    +0.000 N 
ATOM      3  C   UNL     1       3.734   4.824  19.219  0.00  0.00    +0.000 A 
ATOM      4  C   UNL     1       4.397   5.132  18.088  0.00  0.00    +0.000 A 
ATOM      5  C   UNL     1       4.118   6.447  17.487  0.00  0.00    +0.000 A 
ATOM      6  O   UNL     1       4.729   6.809  16.485  0.00  0.00    +0.000 OA
ATOM      7  C   UNL     1       3.103   7.311  18.124  0.00  0.00    +0.000 A 
ATOM      8  C   UNL     1       2.782   8.520  17.515  0.00  0.00    +0.000 A 
ATOM      9  C   UNL     1       1.871   9.372  18.125  0.00  0.00    +0.000 A 
ATOM     10  C   UNL     1       1.288   9.049  19.354  0.00  0.00    +0.000 A 
ATOM     11  C   UNL     1       1.604   7.802  19.931  0.00  0.00    +0.000 A 
ATOM     12  C   UNL     1       2.499   6.901  19.329  0.00  0.00    +0.000 A 
ENDROOT
BRANCH  10  13
ATOM     13  N   UNL     1       0.492   9.997  19.978  0.00  0.00    +0.000 N 
ATOM     14  C   UNL     1      -0.179  11.041  19.180  0.00  0.00    +0.000 C 
ATOM     15  C   UNL     1      -1.390  11.593  19.962  0.00  0.00    +0.000 C 
ATOM     16  N   UNL     1      -0.932  12.056  21.280  0.00  0.00    +0.000 N 
ATOM     17  C   UNL     1      -1.543  13.092  21.901  0.00  0.00    +0.000 A 
ATOM     18  N   UNL     1      -1.893  13.086  23.165  0.00  0.00    +0.000 NA
ATOM     19  C   UNL     1      -2.545  14.259  23.489  0.00  0.00    +0.000 A 
ATOM     20  C   UNL     1      -3.181  14.533  24.714  0.00  0.00    +0.000 A 
ATOM     21  C   UNL     1      -3.864  15.742  24.879  0.00  0.00    +0.000 A 
ATOM     22  C   UNL     1      -3.858  16.701  23.870  0.00  0.00    +0.000 A 
ATOM     23  C   UNL     1      -3.193  16.470  22.665  0.00  0.00    +0.000 A 
ATOM     24  C   UNL     1      -2.578  15.223  22.483  0.00  0.00    +0.000 A 
ATOM     25  S   UNL     1      -1.806  14.597  21.090  0.00  0.00    +0.000 S 
ATOM     26  C   UNL     1      -0.346  10.981  22.094  0.00  0.00    +0.000 C 
ATOM     27  C   UNL     1       0.886  10.426  21.343  0.00  0.00    +0.000 C 
ENDBRANCH  10  13
BRANCH   4  28
ATOM     28  C   UNL     1       5.348   4.170  17.498  0.00  0.00    +0.000 C 
ATOM     29  O   UNL     1       5.127   3.563  16.461  0.00  0.00    +0.000 OA
BRANCH  28  30
ATOM     30  O   UNL     1       6.499   4.007  18.191  0.00  0.00    +0.000 OA
ATOM     31  H   UNL     1       6.503   4.479  19.064  0.00  0.00    +0.000 HD
ENDBRANCH  28  30
ENDBRANCH   4  28
TORSDOF 3
ENDMDL
MODEL 4
REMARK VINA RESULT:      -8.0      1.442      1.991
REMARK  Name = 
REMARK  4 active torsions:
REMARK  status: ('A' for Active; 'I' for Inactive)
REMARK    1  A    between atoms: C_1  and  N_2
REMARK    2  A    between atoms: C_4  and  C_5
REMARK    3  A    between atoms: C_5  and  O_7
REMARK    4  A    between atoms: C_13  and  N_14
REMARK                            x       y       z     vdW  Elec       q    Type
REMARK                         _______ _______ _______ _____ _____    ______ ____
ROOT
ATOM      1  C   UNL     1       2.982   4.571  20.444  0.00  0.00    +0.000 C 
ATOM      2  N   UNL     1       3.683   5.190  19.317  0.00  0.00    +0.000 N 
ATOM      3  C   UNL     1       4.700   4.537  18.643  0.00  0.00    +0.000 A 
ATOM      4  C   UNL     1       5.357   4.996  17.561  0.00  0.00    +0.000 A 
ATOM      5  C   UNL     1       4.952   6.313  17.042  0.00  0.00    +0.000 A 
ATOM      6  O   UNL     1       5.548   6.811  16.091  0.00  0.00    +0.000 OA
ATOM      7  C   UNL     1       3.829   7.013  17.699  0.00  0.00    +0.000 A 
ATOM      8  C   UNL     1       3.393   8.222  17.163  0.00  0.00    +0.000 A 
ATOM      9  C   UNL     1       2.376   8.923  17.795  0.00  0.00    +0.000 A 
ATOM     10  C   UNL     1       1.797   8.450  18.977  0.00  0.00    +0.000 A 
ATOM     11  C   UNL     1       2.232   7.207  19.479  0.00  0.00    +0.000 A 
ATOM     12  C   UNL     1       3.239   6.454  18.850  0.00  0.00    +0.000 A 
ENDROOT
BRANCH  10  13
ATOM     13  N   UNL     1       0.882   9.259  19.635  0.00  0.00    +0.000 N 
ATOM     14  C   UNL     1       0.429  10.519  19.016  0.00  0.00    +0.000 C 
ATOM     15  C   UNL     1      -0.929  10.935  19.622  0.00  0.00    +0.000 C 
ATOM     16  N   UNL     1      -0.794  11.006  21.084  0.00  0.00    +0.000 N 
ATOM     17  C   UNL     1      -1.527  11.887  21.804  0.00  0.00    +0.000 A 
ATOM     18  N   UNL     1      -2.168  11.578  22.906  0.00  0.00    +0.000 NA
ATOM     19  C   UNL     1      -2.869  12.672  23.376  0.00  0.00    +0.000 A 
ATOM     20  C   UNL     1      -3.776  12.663  24.452  0.00  0.00    +0.000 A 
ATOM     21  C   UNL     1      -4.470  13.833  24.776  0.00  0.00    +0.000 A 
ATOM     22  C   UNL     1      -4.216  15.018  24.091  0.00  0.00    +0.000 A 
ATOM     23  C   UNL     1      -3.285  15.061  23.051  0.00  0.00    +0.000 A 
ATOM     24  C   UNL     1      -2.654  13.863  22.686  0.00  0.00    +0.000 A 
ATOM     25  S   UNL     1      -1.578  13.565  21.390  0.00  0.00    +0.000 S 
ATOM     26  C   UNL     1      -0.427   9.718  21.690  0.00  0.00    +0.000 C 
ATOM     27  C   UNL     1       0.943   9.291  21.118  0.00  0.00    +0.000 C 
ENDBRANCH  10  13
BRANCH   4  28
ATOM     28  C   UNL     1       6.426   4.189  16.942  0.00  0.00    +0.000 C 
ATOM     29  O   UNL     1       7.613   4.361  17.176  0.00  0.00    +0.000 OA
BRANCH  28  30
ATOM     30  O   UNL     1       5.997   3.231  16.088  0.00  0.00    +0.000 OA
ATOM     31  H   UNL     1       5.249   3.528  15.507  0.00  0.00    +0.000 HD
ENDBRANCH  28  30
ENDBRANCH   4  28
TORSDOF 3
ENDMDL
MODEL 5
REMARK VINA RESULT:      -7.9      2.730      3.625
REMARK  Name = 
REMARK  4 active torsions:
REMARK  status: ('A' for Active; 'I' for Inactive)
REMARK    1  A    between atoms: C_1  and  N_2
REMARK    2  A    between atoms: C_4  and  C_5
REMARK    3  A    between atoms: C_5  and  O_7
REMARK    4  A    between atoms: C_13  and  N_14
REMARK                            x       y       z     vdW  Elec       q    Type
REMARK                         _______ _______ _______ _____ _____    ______ ____
ROOT
ATOM      1  C   UNL     1       4.444   6.400  17.089  0.00  0.00    +0.000 C 
ATOM      2  N   UNL     1       3.843   5.536  18.107  0.00  0.00    +0.000 N 
ATOM      3  C   UNL     1       4.206   4.208  18.244  0.00  0.00    +0.000 A 
ATOM      4  C   UNL     1       3.758   3.356  19.185  0.00  0.00    +0.000 A 
ATOM      5  C   UNL     1       2.796   3.888  20.165  0.00  0.00    +0.000 A 
ATOM      6  O   UNL     1       2.310   3.148  21.016  0.00  0.00    +0.000 OA
ATOM      7  C   UNL     1       2.431   5.318  20.088  0.00  0.00    +0.000 A 
ATOM      8  C   UNL     1       1.583   5.842  21.059  0.00  0.00    +0.000 A 
ATOM      9  C   UNL     1       1.184   7.168  20.975  0.00  0.00    +0.000 A 
ATOM     10  C   UNL     1       1.598   7.983  19.917  0.00  0.00    +0.000 A 
ATOM     11  C   UNL     1       2.485   7.437  18.966  0.00  0.00    +0.000 A 
ATOM     12  C   UNL     1       2.934   6.107  19.035  0.00  0.00    +0.000 A 
ENDROOT
BRANCH  10  13
ATOM     13  N   UNL     1       1.059   9.256  19.813  0.00  0.00    +0.000 N 
ATOM     14  C   UNL     1       1.354  10.090  18.632  0.00  0.00    +0.000 C 
ATOM     15  C   UNL     1       0.258  11.166  18.470  0.00  0.00    +0.000 C 
ATOM     16  N   UNL     1       0.153  11.927  19.723  0.00  0.00    +0.000 N 
ATOM     17  C   UNL     1      -0.205  13.233  19.711  0.00  0.00    +0.000 A 
ATOM     18  N   UNL     1      -1.098  13.755  20.518  0.00  0.00    +0.000 NA
ATOM     19  C   UNL     1      -1.286  15.091  20.226  0.00  0.00    +0.000 A 
ATOM     20  C   UNL     1      -2.268  15.925  20.793  0.00  0.00    +0.000 A 
ATOM     21  C   UNL     1      -2.389  17.246  20.351  0.00  0.00    +0.000 A 
ATOM     22  C   UNL     1      -1.501  17.759  19.409  0.00  0.00    +0.000 A 
ATOM     23  C   UNL     1      -0.489  16.964  18.868  0.00  0.00    +0.000 A 
ATOM     24  C   UNL     1      -0.429  15.620  19.263  0.00  0.00    +0.000 A 
ATOM     25  S   UNL     1       0.597  14.376  18.692  0.00  0.00    +0.000 S 
ATOM     26  C   UNL     1      -0.228  11.093  20.871  0.00  0.00    +0.000 C 
ATOM     27  C   UNL     1       0.867  10.020  21.071  0.00  0.00    +0.000 C 
ENDBRANCH  10  13
BRANCH   4  28
ATOM     28  C   UNL     1       4.233   1.959  19.211  0.00  0.00    +0.000 C 
ATOM     29  O   UNL     1       3.846   1.108  18.425  0.00  0.00    +0.000 OA
BRANCH  28  30
ATOM     30  O   UNL     1       5.140   1.682  20.176  0.00  0.00    +0.000 OA
ATOM     31  H   UNL     1       5.420   2.481  20.694  0.00  0.00    +0.000 HD
ENDBRANCH  28  30
ENDBRANCH   4  28
TORSDOF 3
ENDMDL
MODEL 6
REMARK VINA RESULT:      -7.8      2.760      3.499
REMARK  Name = 
REMARK  4 active torsions:
REMARK  status: ('A' for Active; 'I' for Inactive)
REMARK    1  A    between atoms: C_1  and  N_2
REMARK    2  A    between atoms: C_4  and  C_5
REMARK    3  A    between atoms: C_5  and  O_7
REMARK    4  A    between atoms: C_13  and  N_14
REMARK                            x       y       z     vdW  Elec       q    Type
REMARK                         _______ _______ _______ _____ _____    ______ ____
ROOT
ATOM      1  C   UNL     1       4.477   6.664  16.900  0.00  0.00    +0.000 C 
ATOM      2  N   UNL     1       3.786   5.787  17.848  0.00  0.00    +0.000 N 
ATOM      3  C   UNL     1       4.011   4.422  17.875  0.00  0.00    +0.000 A 
ATOM      4  C   UNL     1       3.473   3.548  18.747  0.00  0.00    +0.000 A 
ATOM      5  C   UNL     1       2.568   4.095  19.771  0.00  0.00    +0.000 A 
ATOM      6  O   UNL     1       2.005   3.343  20.562  0.00  0.00    +0.000 OA
ATOM      7  C   UNL     1       2.352   5.556  19.811  0.00  0.00    +0.000 A 
ATOM      8  C   UNL     1       1.559   6.084  20.825  0.00  0.00    +0.000 A 
ATOM      9  C   UNL     1       1.299   7.447  20.850  0.00  0.00    +0.000 A 
ATOM     10  C   UNL     1       1.798   8.298  19.859  0.00  0.00    +0.000 A 
ATOM     11  C   UNL     1       2.628   7.743  18.863  0.00  0.00    +0.000 A 
ATOM     12  C   UNL     1       2.937   6.372  18.823  0.00  0.00    +0.000 A 
ENDROOT
BRANCH  10  13
ATOM     13  N   UNL     1       1.394   9.624  19.861  0.00  0.00    +0.000 N 
ATOM     14  C   UNL     1       0.698  10.184  21.035  0.00  0.00    +0.000 C 
ATOM     15  C   UNL     1       0.850  11.721  21.043  0.00  0.00    +0.000 C 
ATOM     16  N   UNL     1       0.369  12.251  19.759  0.00  0.00    +0.000 N 
ATOM     17  C   UNL     1      -0.199  13.478  19.686  0.00  0.00    +0.000 A 
ATOM     18  N   UNL     1       0.101  14.371  18.773  0.00  0.00    +0.000 NA
ATOM     19  C   UNL     1      -0.600  15.540  18.996  0.00  0.00    +0.000 A 
ATOM     20  C   UNL     1      -0.420  16.750  18.300  0.00  0.00    +0.000 A 
ATOM     21  C   UNL     1      -1.155  17.878  18.679  0.00  0.00    +0.000 A 
ATOM     22  C   UNL     1      -2.110  17.792  19.689  0.00  0.00    +0.000 A 
ATOM     23  C   UNL     1      -2.339  16.590  20.361  0.00  0.00    +0.000 A 
ATOM     24  C   UNL     1      -1.540  15.487  20.023  0.00  0.00    +0.000 A 
ATOM     25  S   UNL     1      -1.489  13.936  20.742  0.00  0.00    +0.000 S 
ATOM     26  C   UNL     1       1.133  11.749  18.608  0.00  0.00    +0.000 C 
ATOM     27  C   UNL     1       0.978  10.212  18.562  0.00  0.00    +0.000 C 
ENDBRANCH  10  13
BRANCH   4  28
ATOM     28  C   UNL     1       3.802   2.112  18.658  0.00  0.00    +0.000 C 
ATOM     29  O   UNL     1       3.344   1.374  17.799  0.00  0.00    +0.000 OA
BRANCH  28  30
ATOM     30  O   UNL     1       4.659   1.662  19.604  0.00  0.00    +0.000 OA
ATOM     31  H   UNL     1       5.291   0.975  19.268  0.00  0.00    +0.000 HD
ENDBRANCH  28  30
ENDBRANCH   4  28
TORSDOF 3
ENDMDL
MODEL 7
REMARK VINA RESULT:      -7.7      1.042      1.603
REMARK  Name = 
REMARK  4 active torsions:
REMARK  status: ('A' for Active; 'I' for Inactive)
REMARK    1  A    between atoms: C_1  and  N_2
REMARK    2  A    between atoms: C_4  and  C_5
REMARK    3  A    between atoms: C_5  and  O_7
REMARK    4  A    between atoms: C_13  and  N_14
REMARK                            x       y       z     vdW  Elec       q    Type
REMARK                         _______ _______ _______ _____ _____    ______ ____
ROOT
ATOM      1  C   UNL     1       1.497   4.935  20.893  0.00  0.00    +0.000 C 
ATOM      2  N   UNL     1       2.336   5.307  19.752  0.00  0.00    +0.000 N 
ATOM      3  C   UNL     1       3.089   4.371  19.065  0.00  0.00    +0.000 A 
ATOM      4  C   UNL     1       3.838   4.606  17.971  0.00  0.00    +0.000 A 
ATOM      5  C   UNL     1       3.852   5.984  17.453  0.00  0.00    +0.000 A 
ATOM      6  O   UNL     1       4.558   6.273  16.490  0.00  0.00    +0.000 OA
ATOM      7  C   UNL     1       3.013   6.996  18.125  0.00  0.00    +0.000 A 
ATOM      8  C   UNL     1       2.964   8.281  17.591  0.00  0.00    +0.000 A 
ATOM      9  C   UNL     1       2.224   9.262  18.236  0.00  0.00    +0.000 A 
ATOM     10  C   UNL     1       1.548   8.991  19.429  0.00  0.00    +0.000 A 
ATOM     11  C   UNL     1       1.585   7.673  19.929  0.00  0.00    +0.000 A 
ATOM     12  C   UNL     1       2.298   6.646  19.287  0.00  0.00    +0.000 A 
ENDROOT
BRANCH  10  13
ATOM     13  N   UNL     1       0.939  10.042  20.098  0.00  0.00    +0.000 N 
ATOM     14  C   UNL     1       1.092  11.423  19.601  0.00  0.00    +0.000 C 
ATOM     15  C   UNL     1      -0.066  12.296  20.132  0.00  0.00    +0.000 C 
ATOM     16  N   UNL     1      -0.104  12.193  21.598  0.00  0.00    +0.000 N 
ATOM     17  C   UNL     1      -0.526  13.234  22.353  0.00  0.00    +0.000 A 
ATOM     18  N   UNL     1      -1.374  13.120  23.348  0.00  0.00    +0.000 NA
ATOM     19  C   UNL     1      -1.653  14.362  23.886  0.00  0.00    +0.000 A 
ATOM     20  C   UNL     1      -2.624  14.631  24.868  0.00  0.00    +0.000 A 
ATOM     21  C   UNL     1      -2.847  15.951  25.271  0.00  0.00    +0.000 A 
ATOM     22  C   UNL     1      -2.068  16.986  24.762  0.00  0.00    +0.000 A 
ATOM     23  C   UNL     1      -1.067  16.737  23.822  0.00  0.00    +0.000 A 
ATOM     24  C   UNL     1      -0.907  15.419  23.369  0.00  0.00    +0.000 A 
ATOM     25  S   UNL     1       0.129  14.820  22.146  0.00  0.00    +0.000 S 
ATOM     26  C   UNL     1      -0.345  10.823  22.071  0.00  0.00    +0.000 C 
ATOM     27  C   UNL     1       0.815   9.931  21.573  0.00  0.00    +0.000 C 
ENDBRANCH  10  13
BRANCH   4  28
ATOM     28  C   UNL     1       4.594   3.507  17.338  0.00  0.00    +0.000 C 
ATOM     29  O   UNL     1       4.151   2.375  17.216  0.00  0.00    +0.000 OA
BRANCH  28  30
ATOM     30  O   UNL     1       5.827   3.844  16.895  0.00  0.00    +0.000 OA
ATOM     31  H   UNL     1       5.838   4.678  16.356  0.00  0.00    +0.000 HD
ENDBRANCH  28  30
ENDBRANCH   4  28
TORSDOF 3
ENDMDL
MODEL 8
REMARK VINA RESULT:      -7.3      5.129     10.976
REMARK  Name = 
REMARK  4 active torsions:
REMARK  status: ('A' for Active; 'I' for Inactive)
REMARK    1  A    between atoms: C_1  and  N_2
REMARK    2  A    between atoms: C_4  and  C_5
REMARK    3  A    between atoms: C_5  and  O_7
REMARK    4  A    between atoms: C_13  and  N_14
REMARK                            x       y       z     vdW  Elec       q    Type
REMARK                         _______ _______ _______ _____ _____    ______ ____
ROOT
ATOM      1  C   UNL     1      -3.230  11.884  18.466  0.00  0.00    +0.000 C 
ATOM      2  N   UNL     1      -2.849  12.267  19.827  0.00  0.00    +0.000 N 
ATOM      3  C   UNL     1      -3.569  13.199  20.552  0.00  0.00    +0.000 A 
ATOM      4  C   UNL     1      -3.334  13.566  21.825  0.00  0.00    +0.000 A 
ATOM      5  C   UNL     1      -2.210  12.911  22.514  0.00  0.00    +0.000 A 
ATOM      6  O   UNL     1      -1.911  13.241  23.659  0.00  0.00    +0.000 OA
ATOM      7  C   UNL     1      -1.456  11.866  21.792  0.00  0.00    +0.000 A 
ATOM      8  C   UNL     1      -0.442  11.190  22.466  0.00  0.00    +0.000 A 
ATOM      9  C   UNL     1       0.314  10.243  21.791  0.00  0.00    +0.000 A 
ATOM     10  C   UNL     1       0.096   9.973  20.437  0.00  0.00    +0.000 A 
ATOM     11  C   UNL     1      -0.959  10.646  19.787  0.00  0.00    +0.000 A 
ATOM     12  C   UNL     1      -1.766  11.590  20.446  0.00  0.00    +0.000 A 
ENDROOT
BRANCH  10  13
ATOM     13  N   UNL     1       0.970   9.118  19.783  0.00  0.00    +0.000 N 
ATOM     14  C   UNL     1       1.630   8.026  20.524  0.00  0.00    +0.000 C 
ATOM     15  C   UNL     1       2.077   6.926  19.537  0.00  0.00    +0.000 C 
ATOM     16  N   UNL     1       2.922   7.535  18.500  0.00  0.00    +0.000 N 
ATOM     17  C   UNL     1       3.919   6.829  17.917  0.00  0.00    +0.000 A 
ATOM     18  N   UNL     1       4.134   6.795  16.623  0.00  0.00    +0.000 NA
ATOM     19  C   UNL     1       5.183   5.945  16.332  0.00  0.00    +0.000 A 
ATOM     20  C   UNL     1       5.592   5.560  15.043  0.00  0.00    +0.000 A 
ATOM     21  C   UNL     1       6.631   4.635  14.898  0.00  0.00    +0.000 A 
ATOM     22  C   UNL     1       7.306   4.150  16.015  0.00  0.00    +0.000 A 
ATOM     23  C   UNL     1       6.948   4.555  17.302  0.00  0.00    +0.000 A 
ATOM     24  C   UNL     1       5.854   5.423  17.436  0.00  0.00    +0.000 A 
ATOM     25  S   UNL     1       5.100   5.992  18.863  0.00  0.00    +0.000 S 
ATOM     26  C   UNL     1       2.219   8.559  17.715  0.00  0.00    +0.000 C 
ATOM     27  C   UNL     1       1.781   9.686  18.677  0.00  0.00    +0.000 C 
ENDBRANCH  10  13
BRANCH   4  28
ATOM     28  C   UNL     1      -4.188  14.580  22.477  0.00  0.00    +0.000 C 
ATOM     29  O   UNL     1      -4.414  15.676  21.988  0.00  0.00    +0.000 OA
BRANCH  28  30
ATOM     30  O   UNL     1      -4.711  14.205  23.667  0.00  0.00    +0.000 OA
ATOM     31  H   UNL     1      -5.202  13.344  23.628  0.00  0.00    +0.000 HD
ENDBRANCH  28  30
ENDBRANCH   4  28
TORSDOF 3
ENDMDL
MODEL 9
REMARK VINA RESULT:      -6.9      2.819      3.605
REMARK  Name = 
REMARK  4 active torsions:
REMARK  status: ('A' for Active; 'I' for Inactive)
REMARK    1  A    between atoms: C_1  and  N_2
REMARK    2  A    between atoms: C_4  and  C_5
REMARK    3  A    between atoms: C_5  and  O_7
REMARK    4  A    between atoms: C_13  and  N_14
REMARK                            x       y       z     vdW  Elec       q    Type
REMARK                         _______ _______ _______ _____ _____    ______ ____
ROOT
ATOM      1  C   UNL     1       3.914   7.270  17.203  0.00  0.00    +0.000 C 
ATOM      2  N   UNL     1       3.337   6.414  18.242  0.00  0.00    +0.000 N 
ATOM      3  C   UNL     1       3.706   5.088  18.383  0.00  0.00    +0.000 A 
ATOM      4  C   UNL     1       3.280   4.245  19.343  0.00  0.00    +0.000 A 
ATOM      5  C   UNL     1       2.339   4.785  20.338  0.00  0.00    +0.000 A 
ATOM      6  O   UNL     1       1.873   4.053  21.207  0.00  0.00    +0.000 OA
ATOM      7  C   UNL     1       1.971   6.213  20.256  0.00  0.00    +0.000 A 
ATOM      8  C   UNL     1       1.144   6.746  21.240  0.00  0.00    +0.000 A 
ATOM      9  C   UNL     1       0.741   8.071  21.153  0.00  0.00    +0.000 A 
ATOM     10  C   UNL     1       1.129   8.875  20.078  0.00  0.00    +0.000 A 
ATOM     11  C   UNL     1       1.996   8.322  19.112  0.00  0.00    +0.000 A 
ATOM     12  C   UNL     1       2.448   6.993  19.184  0.00  0.00    +0.000 A 
ENDROOT
BRANCH  10  13
ATOM     13  N   UNL     1       0.587  10.147  19.973  0.00  0.00    +0.000 N 
ATOM     14  C   UNL     1       1.034  11.057  18.901  0.00  0.00    +0.000 C 
ATOM     15  C   UNL     1      -0.048  12.129  18.646  0.00  0.00    +0.000 C 
ATOM     16  N   UNL     1      -0.350  12.809  19.914  0.00  0.00    +0.000 N 
ATOM     17  C   UNL     1      -0.727  14.108  19.930  0.00  0.00    +0.000 A 
ATOM     18  N   UNL     1      -1.739  14.569  20.627  0.00  0.00    +0.000 NA
ATOM     19  C   UNL     1      -1.909  15.919  20.392  0.00  0.00    +0.000 A 
ATOM     20  C   UNL     1      -2.979  16.705  20.859  0.00  0.00    +0.000 A 
ATOM     21  C   UNL     1      -3.060  18.050  20.485  0.00  0.00    +0.000 A 
ATOM     22  C   UNL     1      -2.055  18.631  19.716  0.00  0.00    +0.000 A 
ATOM     23  C   UNL     1      -0.960  17.883  19.282  0.00  0.00    +0.000 A 
ATOM     24  C   UNL     1      -0.931  16.517  19.599  0.00  0.00    +0.000 A 
ATOM     25  S   UNL     1       0.192  15.322  19.110  0.00  0.00    +0.000 S 
ATOM     26  C   UNL     1      -0.877  11.899  20.941  0.00  0.00    +0.000 C 
ATOM     27  C   UNL     1       0.198  10.829  21.234  0.00  0.00    +0.000 C 
ENDBRANCH  10  13
BRANCH   4  28
ATOM     28  C   UNL     1       3.758   2.849  19.371  0.00  0.00    +0.000 C 
ATOM     29  O   UNL     1       3.676   2.095  18.413  0.00  0.00    +0.000 OA
BRANCH  28  30
ATOM     30  O   UNL     1       4.301   2.456  20.546  0.00  0.00    +0.000 OA
ATOM     31  H   UNL     1       3.888   2.891  21.337  0.00  0.00    +0.000 HD
ENDBRANCH  28  30
ENDBRANCH   4  28
TORSDOF 3
ENDMDL
