MODEL 1
REMARK VINA RESULT:      -8.8      0.000      0.000
REMARK  Name = 
REMARK  7 active torsions:
REMARK  status: ('A' for Active; 'I' for Inactive)
REMARK    1  A    between atoms: C_1  and  O_2
REMARK    2  A    between atoms: O_2  and  C_3
REMARK    3  A    between atoms: C_6  and  C_7
REMARK    4  A    between atoms: C_9  and  N_10
REMARK    5  A    between atoms: C_11  and  C_13
REMARK    6  A    between atoms: N_17  and  S_18
REMARK    7  A    between atoms: S_18  and  C_21
REMARK                            x       y       z     vdW  Elec       q    Type
REMARK                         _______ _______ _______ _____ _____    ______ ____
ROOT
ATOM      1  C   UNL     1       3.555   4.599  19.536  0.00  0.00    +0.000 C 
ATOM      2  C   UNL     1       2.353   3.664  19.330  0.00  0.00    +0.000 C 
ATOM      3  C   UNL     1       1.428   4.031  20.464  0.00  0.00    +0.000 C 
ATOM      4  C   UNL     1       1.696   5.513  20.730  0.00  0.00    +0.000 C 
ATOM      5  N   UNL     1       2.899   5.903  19.898  0.00  0.00    +0.000 NA
ENDROOT
BRANCH   1   7
ATOM      6  N   UNL     1       4.554   4.938  17.271  0.00  0.00    +0.000 N 
ATOM      7  C   UNL     1       4.615   4.283  18.489  0.00  0.00    +0.000 C 
ATOM      8  O   UNL     1       5.568   3.579  18.837  0.00  0.00    +0.000 OA
ATOM      9  H   UNL     1       3.699   5.431  17.035  0.00  0.00    +0.000 HD
BRANCH   6  16
ATOM     10  C   UNL     1       6.770   5.383  16.309  0.00  0.00    +0.000 A 
ATOM     11  C   UNL     1       7.702   5.229  15.264  0.00  0.00    +0.000 A 
ATOM     12  C   UNL     1       7.359   4.576  14.080  0.00  0.00    +0.000 A 
ATOM     13  C   UNL     1       6.081   4.045  13.936  0.00  0.00    +0.000 A 
ATOM     14  C   UNL     1       5.647   3.393  12.655  0.00  0.00    +0.000 C 
ATOM     15  C   UNL     1       5.173   4.149  14.993  0.00  0.00    +0.000 A 
ATOM     16  C   UNL     1       5.486   4.810  16.192  0.00  0.00    +0.000 A 
BRANCH  10  18
ATOM     17  C   UNL     1       7.262   7.460  17.309  0.00  0.00    +0.000 C 
ATOM     18  O   UNL     1       7.075   6.051  17.472  0.00  0.00    +0.000 OA
ENDBRANCH  10  18
ENDBRANCH   6  16
ENDBRANCH   1   7
BRANCH   5  19
ATOM     19  S   UNL     1       2.526   6.988  18.632  0.00  0.00    +0.000 S 
ATOM     20  O   UNL     1       3.772   7.518  18.129  0.00  0.00    +0.000 OA
ATOM     21  O   UNL     1       1.569   6.360  17.752  0.00  0.00    +0.000 OA
BRANCH  19  22
ATOM     22  C   UNL     1       1.706   8.368  19.452  0.00  0.00    +0.000 A 
ATOM     23  C   UNL     1       1.322   9.448  18.646  0.00  0.00    +0.000 A 
ATOM     24  C   UNL     1       0.474  10.432  19.152  0.00  0.00    +0.000 A 
ATOM     25  C   UNL     1       0.034  10.374  20.472  0.00  0.00    +0.000 A 
ATOM     26  C   UNL     1       0.446   9.335  21.311  0.00  0.00    +0.000 A 
ATOM     27  C   UNL     1       1.264   8.303  20.785  0.00  0.00    +0.000 A 
ATOM     28  C   UNL     1      -0.009   9.310  22.748  0.00  0.00    +0.000 C 
ATOM     29  C   UNL     1      -0.875  10.480  23.220  0.00  0.00    +0.000 C 
ATOM     30  C   UNL     1      -1.339  11.459  22.183  0.00  0.00    +0.000 C 
ATOM     31  O   UNL     1      -2.125  12.372  22.458  0.00  0.00    +0.000 OA
ATOM     32  N   UNL     1      -0.840  11.357  20.919  0.00  0.00    +0.000 N 
ATOM     33  H   UNL     1      -1.178  12.063  20.277  0.00  0.00    +0.000 HD
ENDBRANCH  19  22
ENDBRANCH   5  19
TORSDOF 5
ENDMDL
MODEL 2
REMARK VINA RESULT:      -8.4      3.400      5.110
REMARK  Name = 
REMARK  7 active torsions:
REMARK  status: ('A' for Active; 'I' for Inactive)
REMARK    1  A    between atoms: C_1  and  O_2
REMARK    2  A    between atoms: O_2  and  C_3
REMARK    3  A    between atoms: C_6  and  C_7
REMARK    4  A    between atoms: C_9  and  N_10
REMARK    5  A    between atoms: C_11  and  C_13
REMARK    6  A    between atoms: N_17  and  S_18
REMARK    7  A    between atoms: S_18  and  C_21
REMARK                            x       y       z     vdW  Elec       q    Type
REMARK                         _______ _______ _______ _____ _____    ______ ____
ROOT
ATOM      1  C   UNL     1       1.349   8.441  21.017  0.00  0.00    +0.000 C 
ATOM      2  C   UNL     1       0.010   8.346  21.765  0.00  0.00    +0.000 C 
ATOM      3  C   UNL     1      -0.099   9.685  22.453  0.00  0.00    +0.000 C 
ATOM      4  C   UNL     1       0.635  10.663  21.536  0.00  0.00    +0.000 C 
ATOM      5  N   UNL     1       1.319   9.840  20.465  0.00  0.00    +0.000 NA
ENDROOT
BRANCH   1   7
ATOM      6  N   UNL     1       2.515   7.094  19.264  0.00  0.00    +0.000 N 
ATOM      7  C   UNL     1       1.627   7.113  20.326  0.00  0.00    +0.000 C 
ATOM      8  O   UNL     1       1.169   6.092  20.849  0.00  0.00    +0.000 OA
ATOM      9  H   UNL     1       2.779   7.981  18.845  0.00  0.00    +0.000 HD
BRANCH   6  16
ATOM     10  C   UNL     1       4.015   6.042  17.627  0.00  0.00    +0.000 A 
ATOM     11  C   UNL     1       4.453   4.900  16.930  0.00  0.00    +0.000 A 
ATOM     12  C   UNL     1       3.798   3.675  17.062  0.00  0.00    +0.000 A 
ATOM     13  C   UNL     1       2.705   3.573  17.918  0.00  0.00    +0.000 A 
ATOM     14  C   UNL     1       1.929   2.293  18.042  0.00  0.00    +0.000 C 
ATOM     15  C   UNL     1       2.303   4.691  18.652  0.00  0.00    +0.000 A 
ATOM     16  C   UNL     1       2.936   5.939  18.531  0.00  0.00    +0.000 A 
BRANCH  10  18
ATOM     17  C   UNL     1       6.028   7.199  17.220  0.00  0.00    +0.000 C 
ATOM     18  O   UNL     1       4.624   7.267  17.488  0.00  0.00    +0.000 OA
ENDBRANCH  10  18
ENDBRANCH   6  16
ENDBRANCH   1   7
BRANCH   5  19
ATOM     19  S   UNL     1       0.659  10.070  18.906  0.00  0.00    +0.000 S 
ATOM     20  O   UNL     1       1.524   9.402  17.962  0.00  0.00    +0.000 OA
ATOM     21  O   UNL     1      -0.756   9.788  18.957  0.00  0.00    +0.000 OA
BRANCH  19  22
ATOM     22  C   UNL     1       0.864  11.833  18.590  0.00  0.00    +0.000 A 
ATOM     23  C   UNL     1      -0.282  12.634  18.688  0.00  0.00    +0.000 A 
ATOM     24  C   UNL     1      -0.167  14.023  18.701  0.00  0.00    +0.000 A 
ATOM     25  C   UNL     1       1.081  14.628  18.576  0.00  0.00    +0.000 A 
ATOM     26  C   UNL     1       2.233  13.853  18.423  0.00  0.00    +0.000 A 
ATOM     27  C   UNL     1       2.126  12.440  18.464  0.00  0.00    +0.000 A 
ATOM     28  C   UNL     1       3.570  14.527  18.249  0.00  0.00    +0.000 C 
ATOM     29  C   UNL     1       3.572  16.056  18.202  0.00  0.00    +0.000 C 
ATOM     30  C   UNL     1       2.282  16.760  18.499  0.00  0.00    +0.000 C 
ATOM     31  O   UNL     1       2.218  17.990  18.584  0.00  0.00    +0.000 OA
ATOM     32  N   UNL     1       1.148  16.015  18.633  0.00  0.00    +0.000 N 
ATOM     33  H   UNL     1       0.311  16.555  18.810  0.00  0.00    +0.000 HD
ENDBRANCH  19  22
ENDBRANCH   5  19
TORSDOF 5
ENDMDL
MODEL 3
REMARK VINA RESULT:      -8.2      0.775      1.448
REMARK  Name = 
REMARK  7 active torsions:
REMARK  status: ('A' for Active; 'I' for Inactive)
REMARK    1  A    between atoms: C_1  and  O_2
REMARK    2  A    between atoms: O_2  and  C_3
REMARK    3  A    between atoms: C_6  and  C_7
REMARK    4  A    between atoms: C_9  and  N_10
REMARK    5  A    between atoms: C_11  and  C_13
REMARK    6  A    between atoms: N_17  and  S_18
REMARK    7  A    between atoms: S_18  and  C_21
REMARK                            x       y       z     vdW  Elec       q    Type
REMARK                         _______ _______ _______ _____ _____    ______ ____
ROOT
ATOM      1  C   UNL     1       3.319   4.366  19.489  0.00  0.00    +0.000 C 
ATOM      2  C   UNL     1       2.100   3.516  19.096  0.00  0.00    +0.000 C 
ATOM      3  C   UNL     1       1.118   3.781  20.210  0.00  0.00    +0.000 C 
ATOM      4  C   UNL     1       1.420   5.207  20.674  0.00  0.00    +0.000 C 
ATOM      5  N   UNL     1       2.687   5.644  19.970  0.00  0.00    +0.000 NA
ENDROOT
BRANCH   1   7
ATOM      6  N   UNL     1       4.394   4.838  17.282  0.00  0.00    +0.000 N 
ATOM      7  C   UNL     1       4.432   4.136  18.475  0.00  0.00    +0.000 C 
ATOM      8  O   UNL     1       5.399   3.456  18.835  0.00  0.00    +0.000 OA
ATOM      9  H   UNL     1       3.529   5.307  17.030  0.00  0.00    +0.000 HD
BRANCH   6  16
ATOM     10  C   UNL     1       6.602   5.464  16.407  0.00  0.00    +0.000 A 
ATOM     11  C   UNL     1       7.582   5.392  15.398  0.00  0.00    +0.000 A 
ATOM     12  C   UNL     1       7.337   4.722  14.199  0.00  0.00    +0.000 A 
ATOM     13  C   UNL     1       6.112   4.092  14.006  0.00  0.00    +0.000 A 
ATOM     14  C   UNL     1       5.779   3.415  12.706  0.00  0.00    +0.000 C 
ATOM     15  C   UNL     1       5.159   4.116  15.027  0.00  0.00    +0.000 A 
ATOM     16  C   UNL     1       5.373   4.791  16.240  0.00  0.00    +0.000 A 
BRANCH  10  18
ATOM     17  C   UNL     1       7.457   7.412  17.424  0.00  0.00    +0.000 C 
ATOM     18  O   UNL     1       6.809   6.147  17.584  0.00  0.00    +0.000 OA
ENDBRANCH  10  18
ENDBRANCH   6  16
ENDBRANCH   1   7
BRANCH   5  19
ATOM     19  S   UNL     1       2.435   6.890  18.829  0.00  0.00    +0.000 S 
ATOM     20  O   UNL     1       3.719   7.484  18.540  0.00  0.00    +0.000 OA
ATOM     21  O   UNL     1       1.586   6.387  17.776  0.00  0.00    +0.000 OA
BRANCH  19  22
ATOM     22  C   UNL     1       1.512   8.146  19.736  0.00  0.00    +0.000 A 
ATOM     23  C   UNL     1       1.527   8.060  21.135  0.00  0.00    +0.000 A 
ATOM     24  C   UNL     1       1.051   9.117  21.907  0.00  0.00    +0.000 A 
ATOM     25  C   UNL     1       0.518  10.251  21.298  0.00  0.00    +0.000 A 
ATOM     26  C   UNL     1       0.443  10.339  19.905  0.00  0.00    +0.000 A 
ATOM     27  C   UNL     1       0.977   9.289  19.116  0.00  0.00    +0.000 A 
ATOM     28  C   UNL     1      -0.172  11.557  19.265  0.00  0.00    +0.000 C 
ATOM     29  C   UNL     1      -0.733  12.625  20.207  0.00  0.00    +0.000 C 
ATOM     30  C   UNL     1      -0.476  12.456  21.674  0.00  0.00    +0.000 C 
ATOM     31  O   UNL     1      -0.801  13.321  22.494  0.00  0.00    +0.000 OA
ATOM     32  N   UNL     1       0.092  11.296  22.109  0.00  0.00    +0.000 N 
ATOM     33  H   UNL     1       0.215  11.240  23.112  0.00  0.00    +0.000 HD
ENDBRANCH  19  22
ENDBRANCH   5  19
TORSDOF 5
ENDMDL
MODEL 4
REMARK VINA RESULT:      -8.2      1.724      2.140
REMARK  Name = 
REMARK  7 active torsions:
REMARK  status: ('A' for Active; 'I' for Inactive)
REMARK    1  A    between atoms: C_1  and  O_2
REMARK    2  A    between atoms: O_2  and  C_3
REMARK    3  A    between atoms: C_6  and  C_7
REMARK    4  A    between atoms: C_9  and  N_10
REMARK    5  A    between atoms: C_11  and  C_13
REMARK    6  A    between atoms: N_17  and  S_18
REMARK    7  A    between atoms: S_18  and  C_21
REMARK                            x       y       z     vdW  Elec       q    Type
REMARK                         _______ _______ _______ _____ _____    ______ ____
ROOT
ATOM      1  C   UNL     1       4.438   3.899  19.400  0.00  0.00    +0.000 C 
ATOM      2  C   UNL     1       4.274   2.379  19.239  0.00  0.00    +0.000 C 
ATOM      3  C   UNL     1       3.852   1.927  20.615  0.00  0.00    +0.000 C 
ATOM      4  C   UNL     1       3.078   3.109  21.200  0.00  0.00    +0.000 C 
ATOM      5  N   UNL     1       3.250   4.270  20.245  0.00  0.00    +0.000 NA
ENDROOT
BRANCH   1   7
ATOM      6  N   UNL     1       5.564   3.645  17.183  0.00  0.00    +0.000 N 
ATOM      7  C   UNL     1       4.937   4.487  18.086  0.00  0.00    +0.000 C 
ATOM      8  O   UNL     1       4.615   5.650  17.824  0.00  0.00    +0.000 OA
ATOM      9  H   UNL     1       5.863   2.731  17.508  0.00  0.00    +0.000 HD
BRANCH   6  16
ATOM     10  C   UNL     1       7.131   4.903  15.771  0.00  0.00    +0.000 A 
ATOM     11  C   UNL     1       7.633   5.233  14.497  0.00  0.00    +0.000 A 
ATOM     12  C   UNL     1       7.038   4.742  13.335  0.00  0.00    +0.000 A 
ATOM     13  C   UNL     1       5.943   3.890  13.436  0.00  0.00    +0.000 A 
ATOM     14  C   UNL     1       5.229   3.389  12.212  0.00  0.00    +0.000 C 
ATOM     15  C   UNL     1       5.477   3.518  14.699  0.00  0.00    +0.000 A 
ATOM     16  C   UNL     1       6.049   4.005  15.885  0.00  0.00    +0.000 A 
BRANCH  10  18
ATOM     17  C   UNL     1       7.524   6.814  17.094  0.00  0.00    +0.000 C 
ATOM     18  O   UNL     1       7.681   5.402  16.929  0.00  0.00    +0.000 OA
ENDBRANCH  10  18
ENDBRANCH   6  16
ENDBRANCH   1   7
BRANCH   5  19
ATOM     19  S   UNL     1       1.807   4.711  19.444  0.00  0.00    +0.000 S 
ATOM     20  O   UNL     1       1.935   4.316  18.062  0.00  0.00    +0.000 OA
ATOM     21  O   UNL     1       0.684   4.284  20.246  0.00  0.00    +0.000 OA
BRANCH  19  22
ATOM     22  C   UNL     1       1.832   6.514  19.438  0.00  0.00    +0.000 A 
ATOM     23  C   UNL     1       2.099   7.142  18.214  0.00  0.00    +0.000 A 
ATOM     24  C   UNL     1       1.897   8.513  18.071  0.00  0.00    +0.000 A 
ATOM     25  C   UNL     1       1.466   9.279  19.152  0.00  0.00    +0.000 A 
ATOM     26  C   UNL     1       1.244   8.685  20.397  0.00  0.00    +0.000 A 
ATOM     27  C   UNL     1       1.396   7.282  20.532  0.00  0.00    +0.000 A 
ATOM     28  C   UNL     1       0.815   9.537  21.565  0.00  0.00    +0.000 C 
ATOM     29  C   UNL     1       0.697  11.042  21.316  0.00  0.00    +0.000 C 
ATOM     30  C   UNL     1       0.848  11.524  19.905  0.00  0.00    +0.000 C 
ATOM     31  O   UNL     1       0.665  12.707  19.599  0.00  0.00    +0.000 OA
ATOM     32  N   UNL     1       1.241  10.635  18.950  0.00  0.00    +0.000 N 
ATOM     33  H   UNL     1       1.345  11.033  18.024  0.00  0.00    +0.000 HD
ENDBRANCH  19  22
ENDBRANCH   5  19
TORSDOF 5
ENDMDL
MODEL 5
REMARK VINA RESULT:      -8.1      3.533     10.939
REMARK  Name = 
REMARK  7 active torsions:
REMARK  status: ('A' for Active; 'I' for Inactive)
REMARK    1  A    between atoms: C_1  and  O_2
REMARK    2  A    between atoms: O_2  and  C_3
REMARK    3  A    between atoms: C_6  and  C_7
REMARK    4  A    between atoms: C_9  and  N_10
REMARK    5  A    between atoms: C_11  and  C_13
REMARK    6  A    between atoms: N_17  and  S_18
REMARK    7  A    between atoms: S_18  and  C_21
REMARK                            x       y       z     vdW  Elec       q    Type
REMARK                         _______ _______ _______ _____ _____    ______ ____
ROOT
ATOM      1  C   UNL     1      -0.894  13.309  21.922  0.00  0.00    +0.000 C 
ATOM      2  C   UNL     1      -0.949  14.689  21.247  0.00  0.00    +0.000 C 
ATOM      3  C   UNL     1       0.506  15.046  21.066  0.00  0.00    +0.000 C 
ATOM      4  C   UNL     1       1.223  13.708  20.884  0.00  0.00    +0.000 C 
ATOM      5  N   UNL     1       0.211  12.619  21.169  0.00  0.00    +0.000 NA
ENDROOT
BRANCH   1   7
ATOM      6  N   UNL     1      -3.334  13.248  21.386  0.00  0.00    +0.000 N 
ATOM      7  C   UNL     1      -2.313  12.851  22.232  0.00  0.00    +0.000 C 
ATOM      8  O   UNL     1      -2.458  12.017  23.131  0.00  0.00    +0.000 OA
ATOM      9  H   UNL     1      -3.146  13.997  20.727  0.00  0.00    +0.000 HD
BRANCH   6  16
ATOM     10  C   UNL     1      -5.365  12.306  20.375  0.00  0.00    +0.000 A 
ATOM     11  C   UNL     1      -6.711  11.906  20.482  0.00  0.00    +0.000 A 
ATOM     12  C   UNL     1      -7.439  12.125  21.652  0.00  0.00    +0.000 A 
ATOM     13  C   UNL     1      -6.818  12.726  22.742  0.00  0.00    +0.000 A 
ATOM     14  C   UNL     1      -7.580  13.040  23.999  0.00  0.00    +0.000 C 
ATOM     15  C   UNL     1      -5.467  13.073  22.656  0.00  0.00    +0.000 A 
ATOM     16  C   UNL     1      -4.712  12.876  21.489  0.00  0.00    +0.000 A 
BRANCH  10  18
ATOM     17  C   UNL     1      -5.093  11.056  18.394  0.00  0.00    +0.000 C 
ATOM     18  O   UNL     1      -4.637  12.131  19.221  0.00  0.00    +0.000 OA
ENDBRANCH  10  18
ENDBRANCH   6  16
ENDBRANCH   1   7
BRANCH   5  19
ATOM     19  S   UNL     1      -0.212  11.706  19.789  0.00  0.00    +0.000 S 
ATOM     20  O   UNL     1      -1.580  11.275  19.952  0.00  0.00    +0.000 OA
ATOM     21  O   UNL     1       0.214  12.425  18.611  0.00  0.00    +0.000 OA
BRANCH  19  22
ATOM     22  C   UNL     1       0.787  10.211  19.919  0.00  0.00    +0.000 A 
ATOM     23  C   UNL     1       0.804   9.564  21.162  0.00  0.00    +0.000 A 
ATOM     24  C   UNL     1       1.345   8.285  21.279  0.00  0.00    +0.000 A 
ATOM     25  C   UNL     1       1.910   7.654  20.173  0.00  0.00    +0.000 A 
ATOM     26  C   UNL     1       1.953   8.299  18.935  0.00  0.00    +0.000 A 
ATOM     27  C   UNL     1       1.355   9.578  18.799  0.00  0.00    +0.000 A 
ATOM     28  C   UNL     1       2.603   7.617  17.758  0.00  0.00    +0.000 C 
ATOM     29  C   UNL     1       3.233   6.246  18.016  0.00  0.00    +0.000 C 
ATOM     30  C   UNL     1       3.007   5.623  19.361  0.00  0.00    +0.000 C 
ATOM     31  O   UNL     1       3.390   4.477  19.618  0.00  0.00    +0.000 OA
ATOM     32  N   UNL     1       2.401   6.364  20.330  0.00  0.00    +0.000 N 
ATOM     33  H   UNL     1       2.301   5.889  21.219  0.00  0.00    +0.000 HD
ENDBRANCH  19  22
ENDBRANCH   5  19
TORSDOF 5
ENDMDL
MODEL 6
REMARK VINA RESULT:      -8.1      3.614      9.780
REMARK  Name = 
REMARK  7 active torsions:
REMARK  status: ('A' for Active; 'I' for Inactive)
REMARK    1  A    between atoms: C_1  and  O_2
REMARK    2  A    between atoms: O_2  and  C_3
REMARK    3  A    between atoms: C_6  and  C_7
REMARK    4  A    between atoms: C_9  and  N_10
REMARK    5  A    between atoms: C_11  and  C_13
REMARK    6  A    between atoms: N_17  and  S_18
REMARK    7  A    between atoms: S_18  and  C_21
REMARK                            x       y       z     vdW  Elec       q    Type
REMARK                         _______ _______ _______ _____ _____    ______ ____
ROOT
ATOM      1  C   UNL     1       0.010  12.599  20.028  0.00  0.00    +0.000 C 
ATOM      2  C   UNL     1       0.034  13.806  19.077  0.00  0.00    +0.000 C 
ATOM      3  C   UNL     1       1.484  14.222  19.081  0.00  0.00    +0.000 C 
ATOM      4  C   UNL     1       2.267  12.929  19.314  0.00  0.00    +0.000 C 
ATOM      5  N   UNL     1       1.257  11.851  19.643  0.00  0.00    +0.000 NA
ENDROOT
BRANCH   1   7
ATOM      6  N   UNL     1      -2.362  12.525  19.244  0.00  0.00    +0.000 N 
ATOM      7  C   UNL     1      -1.427  12.113  20.177  0.00  0.00    +0.000 C 
ATOM      8  O   UNL     1      -1.649  11.247  21.029  0.00  0.00    +0.000 OA
ATOM      9  H   UNL     1      -2.120  13.297  18.631  0.00  0.00    +0.000 HD
BRANCH   6  16
ATOM     10  C   UNL     1      -4.176  11.259  18.174  0.00  0.00    +0.000 A 
ATOM     11  C   UNL     1      -5.521  10.843  18.140  0.00  0.00    +0.000 A 
ATOM     12  C   UNL     1      -6.452  11.331  19.058  0.00  0.00    +0.000 A 
ATOM     13  C   UNL     1      -6.040  12.226  20.040  0.00  0.00    +0.000 A 
ATOM     14  C   UNL     1      -7.019  12.828  21.008  0.00  0.00    +0.000 C 
ATOM     15  C   UNL     1      -4.695  12.597  20.109  0.00  0.00    +0.000 A 
ATOM     16  C   UNL     1      -3.738  12.132  19.193  0.00  0.00    +0.000 A 
BRANCH  10  18
ATOM     17  C   UNL     1      -3.594  11.079  15.897  0.00  0.00    +0.000 C 
ATOM     18  O   UNL     1      -3.247  10.817  17.260  0.00  0.00    +0.000 OA
ENDBRANCH  10  18
ENDBRANCH   6  16
ENDBRANCH   1   7
BRANCH   5  19
ATOM     19  S   UNL     1       1.127  10.650  18.435  0.00  0.00    +0.000 S 
ATOM     20  O   UNL     1      -0.273  10.503  18.113  0.00  0.00    +0.000 OA
ATOM     21  O   UNL     1       2.109  10.917  17.410  0.00  0.00    +0.000 OA
BRANCH  19  22
ATOM     22  C   UNL     1       1.596   9.123  19.271  0.00  0.00    +0.000 A 
ATOM     23  C   UNL     1       1.071   8.913  20.553  0.00  0.00    +0.000 A 
ATOM     24  C   UNL     1       1.183   7.664  21.161  0.00  0.00    +0.000 A 
ATOM     25  C   UNL     1       1.852   6.625  20.518  0.00  0.00    +0.000 A 
ATOM     26  C   UNL     1       2.431   6.825  19.262  0.00  0.00    +0.000 A 
ATOM     27  C   UNL     1       2.272   8.077  18.618  0.00  0.00    +0.000 A 
ATOM     28  C   UNL     1       3.185   5.700  18.599  0.00  0.00    +0.000 C 
ATOM     29  C   UNL     1       3.313   4.394  19.388  0.00  0.00    +0.000 C 
ATOM     30  C   UNL     1       2.542   4.281  20.669  0.00  0.00    +0.000 C 
ATOM     31  O   UNL     1       2.504   3.228  21.313  0.00  0.00    +0.000 OA
ATOM     32  N   UNL     1       1.905   5.387  21.147  0.00  0.00    +0.000 N 
ATOM     33  H   UNL     1       1.423   5.246  22.026  0.00  0.00    +0.000 HD
ENDBRANCH  19  22
ENDBRANCH   5  19
TORSDOF 5
ENDMDL
MODEL 7
REMARK VINA RESULT:      -8.0      2.393      3.521
REMARK  Name = 
REMARK  7 active torsions:
REMARK  status: ('A' for Active; 'I' for Inactive)
REMARK    1  A    between atoms: C_1  and  O_2
REMARK    2  A    between atoms: O_2  and  C_3
REMARK    3  A    between atoms: C_6  and  C_7
REMARK    4  A    between atoms: C_9  and  N_10
REMARK    5  A    between atoms: C_11  and  C_13
REMARK    6  A    between atoms: N_17  and  S_18
REMARK    7  A    between atoms: S_18  and  C_21
REMARK                            x       y       z     vdW  Elec       q    Type
REMARK                         _______ _______ _______ _____ _____    ______ ____
ROOT
ATOM      1  C   UNL     1       2.513   2.498  17.930  0.00  0.00    +0.000 C 
ATOM      2  C   UNL     1       1.127   3.141  18.097  0.00  0.00    +0.000 C 
ATOM      3  C   UNL     1       0.441   2.236  19.090  0.00  0.00    +0.000 C 
ATOM      4  C   UNL     1       1.565   1.689  19.971  0.00  0.00    +0.000 C 
ATOM      5  N   UNL     1       2.873   2.120  19.341  0.00  0.00    +0.000 NA
ENDROOT
BRANCH   1   7
ATOM      6  N   UNL     1       4.680   3.166  16.879  0.00  0.00    +0.000 N 
ATOM      7  C   UNL     1       3.300   3.279  16.885  0.00  0.00    +0.000 C 
ATOM      8  O   UNL     1       2.658   3.845  15.995  0.00  0.00    +0.000 OA
ATOM      9  H   UNL     1       5.130   2.754  17.690  0.00  0.00    +0.000 HD
BRANCH   6  16
ATOM     10  C   UNL     1       6.429   4.817  16.380  0.00  0.00    +0.000 A 
ATOM     11  C   UNL     1       7.336   5.400  15.474  0.00  0.00    +0.000 A 
ATOM     12  C   UNL     1       7.363   5.020  14.132  0.00  0.00    +0.000 A 
ATOM     13  C   UNL     1       6.495   4.029  13.684  0.00  0.00    +0.000 A 
ATOM     14  C   UNL     1       6.443   3.633  12.236  0.00  0.00    +0.000 C 
ATOM     15  C   UNL     1       5.633   3.411  14.593  0.00  0.00    +0.000 A 
ATOM     16  C   UNL     1       5.576   3.780  15.947  0.00  0.00    +0.000 A 
BRANCH  10  18
ATOM     17  C   UNL     1       7.337   6.174  18.081  0.00  0.00    +0.000 C 
ATOM     18  O   UNL     1       6.361   5.199  17.700  0.00  0.00    +0.000 OA
ENDBRANCH  10  18
ENDBRANCH   6  16
ENDBRANCH   1   7
BRANCH   5  19
ATOM     19  S   UNL     1       3.735   3.260  20.278  0.00  0.00    +0.000 S 
ATOM     20  O   UNL     1       3.531   2.927  21.668  0.00  0.00    +0.000 OA
ATOM     21  O   UNL     1       5.062   3.402  19.727  0.00  0.00    +0.000 OA
BRANCH  19  22
ATOM     22  C   UNL     1       2.854   4.811  20.016  0.00  0.00    +0.000 A 
ATOM     23  C   UNL     1       1.953   5.207  21.014  0.00  0.00    +0.000 A 
ATOM     24  C   UNL     1       1.422   6.495  21.008  0.00  0.00    +0.000 A 
ATOM     25  C   UNL     1       1.750   7.388  19.990  0.00  0.00    +0.000 A 
ATOM     26  C   UNL     1       2.604   7.000  18.955  0.00  0.00    +0.000 A 
ATOM     27  C   UNL     1       3.189   5.709  18.988  0.00  0.00    +0.000 A 
ATOM     28  C   UNL     1       2.916   7.967  17.841  0.00  0.00    +0.000 C 
ATOM     29  C   UNL     1       2.220   9.329  17.893  0.00  0.00    +0.000 C 
ATOM     30  C   UNL     1       1.425   9.653  19.122  0.00  0.00    +0.000 C 
ATOM     31  O   UNL     1       0.918  10.767  19.292  0.00  0.00    +0.000 OA
ATOM     32  N   UNL     1       1.227   8.674  20.048  0.00  0.00    +0.000 N 
ATOM     33  H   UNL     1       0.663   8.955  20.841  0.00  0.00    +0.000 HD
ENDBRANCH  19  22
ENDBRANCH   5  19
TORSDOF 5
ENDMDL
MODEL 8
REMARK VINA RESULT:      -8.0      3.050      5.335
REMARK  Name = 
REMARK  7 active torsions:
REMARK  status: ('A' for Active; 'I' for Inactive)
REMARK    1  A    between atoms: C_1  and  O_2
REMARK    2  A    between atoms: O_2  and  C_3
REMARK    3  A    between atoms: C_6  and  C_7
REMARK    4  A    between atoms: C_9  and  N_10
REMARK    5  A    between atoms: C_11  and  C_13
REMARK    6  A    between atoms: N_17  and  S_18
REMARK    7  A    between atoms: S_18  and  C_21
REMARK                            x       y       z     vdW  Elec       q    Type
REMARK                         _______ _______ _______ _____ _____    ______ ____
ROOT
ATOM      1  C   UNL     1       1.094   8.814  21.223  0.00  0.00    +0.000 C 
ATOM      2  C   UNL     1      -0.418   8.554  21.306  0.00  0.00    +0.000 C 
ATOM      3  C   UNL     1      -0.812   9.204  22.609  0.00  0.00    +0.000 C 
ATOM      4  C   UNL     1       0.162  10.370  22.781  0.00  0.00    +0.000 C 
ATOM      5  N   UNL     1       1.209  10.238  21.696  0.00  0.00    +0.000 NA
ENDROOT
BRANCH   1   7
ATOM      6  N   UNL     1       2.360   6.964  20.117  0.00  0.00    +0.000 N 
ATOM      7  C   UNL     1       1.646   8.141  19.972  0.00  0.00    +0.000 C 
ATOM      8  O   UNL     1       1.291   8.593  18.879  0.00  0.00    +0.000 OA
ATOM      9  H   UNL     1       2.678   6.709  21.047  0.00  0.00    +0.000 HD
BRANCH   6  16
ATOM     10  C   UNL     1       2.530   4.814  18.942  0.00  0.00    +0.000 A 
ATOM     11  C   UNL     1       3.039   4.037  17.883  0.00  0.00    +0.000 A 
ATOM     12  C   UNL     1       3.965   4.562  16.981  0.00  0.00    +0.000 A 
ATOM     13  C   UNL     1       4.376   5.885  17.114  0.00  0.00    +0.000 A 
ATOM     14  C   UNL     1       5.419   6.473  16.207  0.00  0.00    +0.000 C 
ATOM     15  C   UNL     1       3.831   6.673  18.131  0.00  0.00    +0.000 A 
ATOM     16  C   UNL     1       2.906   6.169  19.060  0.00  0.00    +0.000 A 
BRANCH  10  18
ATOM     17  C   UNL     1       1.003   3.094  19.458  0.00  0.00    +0.000 C 
ATOM     18  O   UNL     1       1.642   4.309  19.863  0.00  0.00    +0.000 OA
ENDBRANCH  10  18
ENDBRANCH   6  16
ENDBRANCH   1   7
BRANCH   5  19
ATOM     19  S   UNL     1       1.133  11.478  20.523  0.00  0.00    +0.000 S 
ATOM     20  O   UNL     1       1.344  12.735  21.202  0.00  0.00    +0.000 OA
ATOM     21  O   UNL     1       1.939  11.092  19.390  0.00  0.00    +0.000 OA
BRANCH  19  22
ATOM     22  C   UNL     1      -0.592  11.493  20.000  0.00  0.00    +0.000 A 
ATOM     23  C   UNL     1      -1.475  12.289  20.742  0.00  0.00    +0.000 A 
ATOM     24  C   UNL     1      -2.758  12.547  20.263  0.00  0.00    +0.000 A 
ATOM     25  C   UNL     1      -3.189  11.985  19.064  0.00  0.00    +0.000 A 
ATOM     26  C   UNL     1      -2.346  11.144  18.332  0.00  0.00    +0.000 A 
ATOM     27  C   UNL     1      -1.022  10.924  18.788  0.00  0.00    +0.000 A 
ATOM     28  C   UNL     1      -2.844  10.513  17.056  0.00  0.00    +0.000 C 
ATOM     29  C   UNL     1      -4.294  10.803  16.661  0.00  0.00    +0.000 C 
ATOM     30  C   UNL     1      -5.043  11.816  17.475  0.00  0.00    +0.000 C 
ATOM     31  O   UNL     1      -6.180  12.186  17.164  0.00  0.00    +0.000 OA
ATOM     32  N   UNL     1      -4.462  12.302  18.608  0.00  0.00    +0.000 N 
ATOM     33  H   UNL     1      -5.032  12.964  19.119  0.00  0.00    +0.000 HD
ENDBRANCH  19  22
ENDBRANCH   5  19
TORSDOF 5
ENDMDL
MODEL 9
REMARK VINA RESULT:      -8.0      3.705     10.868
REMARK  Name = 
REMARK  7 active torsions:
REMARK  status: ('A' for Active; 'I' for Inactive)
REMARK    1  A    between atoms: C_1  and  O_2
REMARK    2  A    between atoms: O_2  and  C_3
REMARK    3  A    between atoms: C_6  and  C_7
REMARK    4  A    between atoms: C_9  and  N_10
REMARK    5  A    between atoms: C_11  and  C_13
REMARK    6  A    between atoms: N_17  and  S_18
REMARK    7  A    between atoms: S_18  and  C_21
REMARK                            x       y       z     vdW  Elec       q    Type
REMARK                         _______ _______ _______ _____ _____    ______ ____
ROOT
ATOM      1  C   UNL     1      -0.990  13.572  21.069  0.00  0.00    +0.000 C 
ATOM      2  C   UNL     1      -0.191  14.731  20.452  0.00  0.00    +0.000 C 
ATOM      3  C   UNL     1       1.220  14.465  20.915  0.00  0.00    +0.000 C 
ATOM      4  C   UNL     1       1.317  12.945  21.041  0.00  0.00    +0.000 C 
ATOM      5  N   UNL     1      -0.081  12.394  20.853  0.00  0.00    +0.000 NA
ENDROOT
BRANCH   1   7
ATOM      6  N   UNL     1      -3.307  12.661  20.849  0.00  0.00    +0.000 N 
ATOM      7  C   UNL     1      -2.466  13.754  20.737  0.00  0.00    +0.000 C 
ATOM      8  O   UNL     1      -2.867  14.906  20.539  0.00  0.00    +0.000 OA
ATOM      9  H   UNL     1      -2.888  11.741  20.932  0.00  0.00    +0.000 HD
BRANCH   6  16
ATOM     10  C   UNL     1      -5.598  12.611  21.737  0.00  0.00    +0.000 A 
ATOM     11  C   UNL     1      -6.990  12.639  21.527  0.00  0.00    +0.000 A 
ATOM     12  C   UNL     1      -7.528  12.641  20.240  0.00  0.00    +0.000 A 
ATOM     13  C   UNL     1      -6.674  12.641  19.142  0.00  0.00    +0.000 A 
ATOM     14  C   UNL     1      -7.207  12.577  17.738  0.00  0.00    +0.000 C 
ATOM     15  C   UNL     1      -5.292  12.668  19.348  0.00  0.00    +0.000 A 
ATOM     16  C   UNL     1      -4.722  12.655  20.631  0.00  0.00    +0.000 A 
BRANCH  10  18
ATOM     17  C   UNL     1      -5.973  12.834  24.053  0.00  0.00    +0.000 C 
ATOM     18  O   UNL     1      -5.045  12.574  22.996  0.00  0.00    +0.000 OA
ENDBRANCH  10  18
ENDBRANCH   6  16
ENDBRANCH   1   7
BRANCH   5  19
ATOM     19  S   UNL     1      -0.267  11.493  19.413  0.00  0.00    +0.000 S 
ATOM     20  O   UNL     1      -1.621  10.992  19.383  0.00  0.00    +0.000 OA
ATOM     21  O   UNL     1       0.274  12.259  18.315  0.00  0.00    +0.000 OA
BRANCH  19  22
ATOM     22  C   UNL     1       0.781  10.046  19.652  0.00  0.00    +0.000 A 
ATOM     23  C   UNL     1       0.624   9.338  20.851  0.00  0.00    +0.000 A 
ATOM     24  C   UNL     1       1.211   8.084  21.007  0.00  0.00    +0.000 A 
ATOM     25  C   UNL     1       1.991   7.540  19.990  0.00  0.00    +0.000 A 
ATOM     26  C   UNL     1       2.207   8.249  18.805  0.00  0.00    +0.000 A 
ATOM     27  C   UNL     1       1.567   9.500  18.622  0.00  0.00    +0.000 A 
ATOM     28  C   UNL     1       3.087   7.661  17.731  0.00  0.00    +0.000 C 
ATOM     29  C   UNL     1       3.743   6.312  18.037  0.00  0.00    +0.000 C 
ATOM     30  C   UNL     1       3.329   5.611  19.295  0.00  0.00    +0.000 C 
ATOM     31  O   UNL     1       3.729   4.474  19.567  0.00  0.00    +0.000 OA
ATOM     32  N   UNL     1       2.524   6.270  20.176  0.00  0.00    +0.000 N 
ATOM     33  H   UNL     1       2.302   5.746  21.013  0.00  0.00    +0.000 HD
ENDBRANCH  19  22
ENDBRANCH   5  19
TORSDOF 5
ENDMDL
