MODEL 1
REMARK VINA RESULT:      -4.9      0.000      0.000
REMARK  Name = 
REMARK  6 active torsions:
REMARK  status: ('A' for Active; 'I' for Inactive)
REMARK    1  A    between atoms: C_2  and  O_3
REMARK    2  A    between atoms: C_2  and  C_4
REMARK    3  A    between atoms: C_4  and  S_5
REMARK    4  A    between atoms: S_5  and  C_6
REMARK    5  A    between atoms: C_6  and  C_7
REMARK    6  A    between atoms: C_7  and  N_8
REMARK                            x       y       z     vdW  Elec       q    Type
REMARK                         _______ _______ _______ _____ _____    ______ ____
ROOT
ATOM      1  C   UNL     1       4.091   3.804  18.172  0.00  0.00    +0.000 C 
ENDROOT
BRANCH   1   2
ATOM      2  S   UNL     1       2.304   3.408  18.292  0.00  0.00    +0.000 S 
BRANCH   2   3
ATOM      3  C   UNL     1       2.346   2.349  19.785  0.00  0.00    +0.000 C 
BRANCH   3   5
ATOM      4  O   UNL     1       1.602   2.602  22.070  0.00  0.00    +0.000 OA
ATOM      5  C   UNL     1       1.461   2.889  20.890  0.00  0.00    +0.000 C 
BRANCH   5   6
ATOM      6  O   UNL     1       0.454   3.684  20.456  0.00  0.00    +0.000 OA
ATOM      7  H   UNL     1       0.610   4.617  20.715  0.00  0.00    +0.000 HD
ENDBRANCH   5   6
ENDBRANCH   3   5
ENDBRANCH   2   3
ENDBRANCH   1   2
BRANCH   1   8
ATOM      8  C   UNL     1       4.435   4.969  19.093  0.00  0.00    +0.000 C 
BRANCH   8   9
ATOM      9  N   UNL     1       5.770   5.477  18.833  0.00  0.00    +0.000 N 
ATOM     10  C   UNL     1       6.179   6.193  17.745  0.00  0.00    +0.000 A 
ATOM     11  C   UNL     1       7.518   6.444  17.938  0.00  0.00    +0.000 A 
ATOM     12  C   UNL     1       7.818   5.841  19.174  0.00  0.00    +0.000 A 
ATOM     13  N   UNL     1       6.755   5.244  19.719  0.00  0.00    +0.000 NA
ENDBRANCH   8   9
ENDBRANCH   1   8
TORSDOF 6
ENDMDL
MODEL 2
REMARK VINA RESULT:      -4.9      4.009      5.799
REMARK  Name = 
REMARK  6 active torsions:
REMARK  status: ('A' for Active; 'I' for Inactive)
REMARK    1  A    between atoms: C_2  and  O_3
REMARK    2  A    between atoms: C_2  and  C_4
REMARK    3  A    between atoms: C_4  and  S_5
REMARK    4  A    between atoms: S_5  and  C_6
REMARK    5  A    between atoms: C_6  and  C_7
REMARK    6  A    between atoms: C_7  and  N_8
REMARK                            x       y       z     vdW  Elec       q    Type
REMARK                         _______ _______ _______ _____ _____    ______ ____
ROOT
ATOM      1  C   UNL     1       3.795   4.263  17.263  0.00  0.00    +0.000 C 
ENDROOT
BRANCH   1   2
ATOM      2  S   UNL     1       4.609   5.867  17.623  0.00  0.00    +0.000 S 
BRANCH   2   3
ATOM      3  C   UNL     1       6.198   5.239  18.282  0.00  0.00    +0.000 C 
BRANCH   3   5
ATOM      4  O   UNL     1       7.402   6.058  16.354  0.00  0.00    +0.000 OA
ATOM      5  C   UNL     1       7.280   5.206  17.221  0.00  0.00    +0.000 C 
BRANCH   5   6
ATOM      6  O   UNL     1       8.080   4.114  17.278  0.00  0.00    +0.000 OA
ATOM      7  H   UNL     1       8.379   3.950  18.197  0.00  0.00    +0.000 HD
ENDBRANCH   5   6
ENDBRANCH   3   5
ENDBRANCH   2   3
ENDBRANCH   1   2
BRANCH   1   8
ATOM      8  C   UNL     1       3.997   3.298  18.425  0.00  0.00    +0.000 C 
BRANCH   8   9
ATOM      9  N   UNL     1       2.908   3.382  19.382  0.00  0.00    +0.000 N 
ATOM     10  C   UNL     1       1.667   3.911  19.171  0.00  0.00    +0.000 A 
ATOM     11  C   UNL     1       0.989   3.771  20.360  0.00  0.00    +0.000 A 
ATOM     12  C   UNL     1       1.906   3.143  21.221  0.00  0.00    +0.000 A 
ATOM     13  N   UNL     1       3.082   2.910  20.630  0.00  0.00    +0.000 NA
ENDBRANCH   8   9
ENDBRANCH   1   8
TORSDOF 6
ENDMDL
MODEL 3
REMARK VINA RESULT:      -4.9      3.989      5.923
REMARK  Name = 
REMARK  6 active torsions:
REMARK  status: ('A' for Active; 'I' for Inactive)
REMARK    1  A    between atoms: C_2  and  O_3
REMARK    2  A    between atoms: C_2  and  C_4
REMARK    3  A    between atoms: C_4  and  S_5
REMARK    4  A    between atoms: S_5  and  C_6
REMARK    5  A    between atoms: C_6  and  C_7
REMARK    6  A    between atoms: C_7  and  N_8
REMARK                            x       y       z     vdW  Elec       q    Type
REMARK                         _______ _______ _______ _____ _____    ______ ____
ROOT
ATOM      1  C   UNL     1       4.167   4.001  17.763  0.00  0.00    +0.000 C 
ENDROOT
BRANCH   1   2
ATOM      2  S   UNL     1       4.729   5.733  17.986  0.00  0.00    +0.000 S 
BRANCH   2   3
ATOM      3  C   UNL     1       6.444   5.407  18.538  0.00  0.00    +0.000 C 
BRANCH   3   5
ATOM      4  O   UNL     1       8.111   4.198  17.274  0.00  0.00    +0.000 OA
ATOM      5  C   UNL     1       7.382   5.174  17.372  0.00  0.00    +0.000 C 
BRANCH   5   6
ATOM      6  O   UNL     1       7.390   6.174  16.458  0.00  0.00    +0.000 OA
ATOM      7  H   UNL     1       7.192   5.828  15.561  0.00  0.00    +0.000 HD
ENDBRANCH   5   6
ENDBRANCH   3   5
ENDBRANCH   2   3
ENDBRANCH   1   2
BRANCH   1   8
ATOM      8  C   UNL     1       4.278   3.239  19.079  0.00  0.00    +0.000 C 
BRANCH   8   9
ATOM      9  N   UNL     1       3.013   3.222  19.793  0.00  0.00    +0.000 N 
ATOM     10  C   UNL     1       2.792   2.774  21.063  0.00  0.00    +0.000 A 
ATOM     11  C   UNL     1       1.449   2.954  21.299  0.00  0.00    +0.000 A 
ATOM     12  C   UNL     1       0.951   3.520  20.111  0.00  0.00    +0.000 A 
ATOM     13  N   UNL     1       1.902   3.678  19.186  0.00  0.00    +0.000 NA
ENDBRANCH   8   9
ENDBRANCH   1   8
TORSDOF 6
ENDMDL
MODEL 4
REMARK VINA RESULT:      -4.8      1.714      2.085
REMARK  Name = 
REMARK  6 active torsions:
REMARK  status: ('A' for Active; 'I' for Inactive)
REMARK    1  A    between atoms: C_2  and  O_3
REMARK    2  A    between atoms: C_2  and  C_4
REMARK    3  A    between atoms: C_4  and  S_5
REMARK    4  A    between atoms: S_5  and  C_6
REMARK    5  A    between atoms: C_6  and  C_7
REMARK    6  A    between atoms: C_7  and  N_8
REMARK                            x       y       z     vdW  Elec       q    Type
REMARK                         _______ _______ _______ _____ _____    ______ ____
ROOT
ATOM      1  C   UNL     1       3.447   4.498  17.759  0.00  0.00    +0.000 C 
ENDROOT
BRANCH   1   2
ATOM      2  S   UNL     1       2.355   3.026  17.691  0.00  0.00    +0.000 S 
BRANCH   2   3
ATOM      3  C   UNL     1       3.507   1.784  18.387  0.00  0.00    +0.000 C 
BRANCH   3   5
ATOM      4  O   UNL     1       3.154   2.558  20.649  0.00  0.00    +0.000 OA
ATOM      5  C   UNL     1       3.924   2.126  19.803  0.00  0.00    +0.000 C 
BRANCH   5   6
ATOM      6  O   UNL     1       5.247   1.965  20.046  0.00  0.00    +0.000 OA
ATOM      7  H   UNL     1       5.784   2.357  19.325  0.00  0.00    +0.000 HD
ENDBRANCH   5   6
ENDBRANCH   3   5
ENDBRANCH   2   3
ENDBRANCH   1   2
BRANCH   1   8
ATOM      8  C   UNL     1       4.797   4.181  17.125  0.00  0.00    +0.000 C 
BRANCH   8   9
ATOM      9  N   UNL     1       5.870   4.927  17.759  0.00  0.00    +0.000 N 
ATOM     10  C   UNL     1       6.730   5.800  17.158  0.00  0.00    +0.000 A 
ATOM     11  C   UNL     1       7.568   6.252  18.151  0.00  0.00    +0.000 A 
ATOM     12  C   UNL     1       7.127   5.593  19.314  0.00  0.00    +0.000 A 
ATOM     13  N   UNL     1       6.095   4.778  19.076  0.00  0.00    +0.000 NA
ENDBRANCH   8   9
ENDBRANCH   1   8
TORSDOF 6
ENDMDL
MODEL 5
REMARK VINA RESULT:      -4.8      4.143      6.186
REMARK  Name = 
REMARK  6 active torsions:
REMARK  status: ('A' for Active; 'I' for Inactive)
REMARK    1  A    between atoms: C_2  and  O_3
REMARK    2  A    between atoms: C_2  and  C_4
REMARK    3  A    between atoms: C_4  and  S_5
REMARK    4  A    between atoms: S_5  and  C_6
REMARK    5  A    between atoms: C_6  and  C_7
REMARK    6  A    between atoms: C_7  and  N_8
REMARK                            x       y       z     vdW  Elec       q    Type
REMARK                         _______ _______ _______ _____ _____    ______ ____
ROOT
ATOM      1  C   UNL     1       4.796   4.772  19.101  0.00  0.00    +0.000 C 
ENDROOT
BRANCH   1   2
ATOM      2  S   UNL     1       4.734   5.131  17.303  0.00  0.00    +0.000 S 
BRANCH   2   3
ATOM      3  C   UNL     1       6.353   5.969  17.124  0.00  0.00    +0.000 C 
BRANCH   3   5
ATOM      4  O   UNL     1       7.512   5.296  15.114  0.00  0.00    +0.000 OA
ATOM      5  C   UNL     1       7.332   5.145  16.313  0.00  0.00    +0.000 C 
BRANCH   5   6
ATOM      6  O   UNL     1       7.963   4.178  17.021  0.00  0.00    +0.000 OA
ATOM      7  H   UNL     1       7.783   3.293  16.638  0.00  0.00    +0.000 HD
ENDBRANCH   5   6
ENDBRANCH   3   5
ENDBRANCH   2   3
ENDBRANCH   1   2
BRANCH   1   8
ATOM      8  C   UNL     1       4.385   3.328  19.363  0.00  0.00    +0.000 C 
BRANCH   8   9
ATOM      9  N   UNL     1       2.945   3.203  19.512  0.00  0.00    +0.000 N 
ATOM     10  C   UNL     1       2.169   3.757  20.489  0.00  0.00    +0.000 A 
ATOM     11  C   UNL     1       0.880   3.359  20.219  0.00  0.00    +0.000 A 
ATOM     12  C   UNL     1       0.986   2.573  19.057  0.00  0.00    +0.000 A 
ATOM     13  N   UNL     1       2.247   2.469  18.627  0.00  0.00    +0.000 NA
ENDBRANCH   8   9
ENDBRANCH   1   8
TORSDOF 6
ENDMDL
MODEL 6
REMARK VINA RESULT:      -4.7      3.589      5.322
REMARK  Name = 
REMARK  6 active torsions:
REMARK  status: ('A' for Active; 'I' for Inactive)
REMARK    1  A    between atoms: C_2  and  O_3
REMARK    2  A    between atoms: C_2  and  C_4
REMARK    3  A    between atoms: C_4  and  S_5
REMARK    4  A    between atoms: S_5  and  C_6
REMARK    5  A    between atoms: C_6  and  C_7
REMARK    6  A    between atoms: C_7  and  N_8
REMARK                            x       y       z     vdW  Elec       q    Type
REMARK                         _______ _______ _______ _____ _____    ______ ____
ROOT
ATOM      1  C   UNL     1       3.660   5.407  17.556  0.00  0.00    +0.000 C 
ENDROOT
BRANCH   1   2
ATOM      2  S   UNL     1       4.964   6.483  16.843  0.00  0.00    +0.000 S 
BRANCH   2   3
ATOM      3  C   UNL     1       6.304   6.138  18.042  0.00  0.00    +0.000 C 
BRANCH   3   5
ATOM      4  O   UNL     1       7.788   4.550  16.987  0.00  0.00    +0.000 OA
ATOM      5  C   UNL     1       6.926   4.774  17.824  0.00  0.00    +0.000 C 
BRANCH   5   6
ATOM      6  O   UNL     1       6.405   3.796  18.604  0.00  0.00    +0.000 OA
ATOM      7  H   UNL     1       5.480   3.599  18.344  0.00  0.00    +0.000 HD
ENDBRANCH   5   6
ENDBRANCH   3   5
ENDBRANCH   2   3
ENDBRANCH   1   2
BRANCH   1   8
ATOM      8  C   UNL     1       3.316   5.863  18.969  0.00  0.00    +0.000 C 
BRANCH   8   9
ATOM      9  N   UNL     1       3.015   4.735  19.833  0.00  0.00    +0.000 N 
ATOM     10  C   UNL     1       2.232   4.743  20.951  0.00  0.00    +0.000 A 
ATOM     11  C   UNL     1       2.247   3.454  21.433  0.00  0.00    +0.000 A 
ATOM     12  C   UNL     1       3.064   2.747  20.532  0.00  0.00    +0.000 A 
ATOM     13  N   UNL     1       3.540   3.528  19.557  0.00  0.00    +0.000 NA
ENDBRANCH   8   9
ENDBRANCH   1   8
TORSDOF 6
ENDMDL
MODEL 7
REMARK VINA RESULT:      -4.7      3.922      5.920
REMARK  Name = 
REMARK  6 active torsions:
REMARK  status: ('A' for Active; 'I' for Inactive)
REMARK    1  A    between atoms: C_2  and  O_3
REMARK    2  A    between atoms: C_2  and  C_4
REMARK    3  A    between atoms: C_4  and  S_5
REMARK    4  A    between atoms: S_5  and  C_6
REMARK    5  A    between atoms: C_6  and  C_7
REMARK    6  A    between atoms: C_7  and  N_8
REMARK                            x       y       z     vdW  Elec       q    Type
REMARK                         _______ _______ _______ _____ _____    ______ ____
ROOT
ATOM      1  C   UNL     1       4.391   4.132  17.345  0.00  0.00    +0.000 C 
ENDROOT
BRANCH   1   2
ATOM      2  S   UNL     1       4.708   5.847  17.915  0.00  0.00    +0.000 S 
BRANCH   2   3
ATOM      3  C   UNL     1       6.359   6.097  17.163  0.00  0.00    +0.000 C 
BRANCH   3   5
ATOM      4  O   UNL     1       7.635   4.795  18.749  0.00  0.00    +0.000 OA
ATOM      5  C   UNL     1       7.344   5.026  17.584  0.00  0.00    +0.000 C 
BRANCH   5   6
ATOM      6  O   UNL     1       7.925   4.369  16.552  0.00  0.00    +0.000 OA
ATOM      7  H   UNL     1       7.291   3.751  16.131  0.00  0.00    +0.000 HD
ENDBRANCH   5   6
ENDBRANCH   3   5
ENDBRANCH   2   3
ENDBRANCH   1   2
BRANCH   1   8
ATOM      8  C   UNL     1       4.228   3.202  18.542  0.00  0.00    +0.000 C 
BRANCH   8   9
ATOM      9  N   UNL     1       2.835   3.082  18.936  0.00  0.00    +0.000 N 
ATOM     10  C   UNL     1       2.241   3.634  20.034  0.00  0.00    +0.000 A 
ATOM     11  C   UNL     1       0.922   3.242  19.988  0.00  0.00    +0.000 A 
ATOM     12  C   UNL     1       0.824   2.462  18.822  0.00  0.00    +0.000 A 
ATOM     13  N   UNL     1       1.991   2.356  18.181  0.00  0.00    +0.000 NA
ENDBRANCH   8   9
ENDBRANCH   1   8
TORSDOF 6
ENDMDL
MODEL 8
REMARK VINA RESULT:      -4.7      1.703      1.943
REMARK  Name = 
REMARK  6 active torsions:
REMARK  status: ('A' for Active; 'I' for Inactive)
REMARK    1  A    between atoms: C_2  and  O_3
REMARK    2  A    between atoms: C_2  and  C_4
REMARK    3  A    between atoms: C_4  and  S_5
REMARK    4  A    between atoms: S_5  and  C_6
REMARK    5  A    between atoms: C_6  and  C_7
REMARK    6  A    between atoms: C_7  and  N_8
REMARK                            x       y       z     vdW  Elec       q    Type
REMARK                         _______ _______ _______ _____ _____    ______ ____
ROOT
ATOM      1  C   UNL     1       2.600   2.724  17.700  0.00  0.00    +0.000 C 
ENDROOT
BRANCH   1   2
ATOM      2  S   UNL     1       1.616   2.126  19.128  0.00  0.00    +0.000 S 
BRANCH   2   3
ATOM      3  C   UNL     1       1.228   3.739  19.902  0.00  0.00    +0.000 C 
BRANCH   3   5
ATOM      4  O   UNL     1       2.089   3.079  22.061  0.00  0.00    +0.000 OA
ATOM      5  C   UNL     1       1.979   3.941  21.202  0.00  0.00    +0.000 C 
BRANCH   5   6
ATOM      6  O   UNL     1       2.483   5.189  21.364  0.00  0.00    +0.000 OA
ATOM      7  H   UNL     1       1.887   5.735  21.920  0.00  0.00    +0.000 HD
ENDBRANCH   5   6
ENDBRANCH   3   5
ENDBRANCH   2   3
ENDBRANCH   1   2
BRANCH   1   8
ATOM      8  C   UNL     1       2.834   4.226  17.815  0.00  0.00    +0.000 C 
BRANCH   8   9
ATOM      9  N   UNL     1       4.232   4.530  18.068  0.00  0.00    +0.000 N 
ATOM     10  C   UNL     1       5.292   4.259  17.253  0.00  0.00    +0.000 A 
ATOM     11  C   UNL     1       6.406   4.723  17.913  0.00  0.00    +0.000 A 
ATOM     12  C   UNL     1       5.909   5.260  19.115  0.00  0.00    +0.000 A 
ATOM     13  N   UNL     1       4.582   5.137  19.216  0.00  0.00    +0.000 NA
ENDBRANCH   8   9
ENDBRANCH   1   8
TORSDOF 6
ENDMDL
MODEL 9
REMARK VINA RESULT:      -4.7      3.972      5.771
REMARK  Name = 
REMARK  6 active torsions:
REMARK  status: ('A' for Active; 'I' for Inactive)
REMARK    1  A    between atoms: C_2  and  O_3
REMARK    2  A    between atoms: C_2  and  C_4
REMARK    3  A    between atoms: C_4  and  S_5
REMARK    4  A    between atoms: S_5  and  C_6
REMARK    5  A    between atoms: C_6  and  C_7
REMARK    6  A    between atoms: C_7  and  N_8
REMARK                            x       y       z     vdW  Elec       q    Type
REMARK                         _______ _______ _______ _____ _____    ______ ____
ROOT
ATOM      1  C   UNL     1       4.811   4.998  17.416  0.00  0.00    +0.000 C 
ENDROOT
BRANCH   1   2
ATOM      2  S   UNL     1       6.360   5.157  16.446  0.00  0.00    +0.000 S 
BRANCH   2   3
ATOM      3  C   UNL     1       7.559   4.664  17.740  0.00  0.00    +0.000 C 
BRANCH   3   5
ATOM      4  O   UNL     1       7.268   5.415  20.019  0.00  0.00    +0.000 OA
ATOM      5  C   UNL     1       7.615   5.667  18.874  0.00  0.00    +0.000 C 
BRANCH   5   6
ATOM      6  O   UNL     1       8.036   6.901  18.504  0.00  0.00    +0.000 OA
ATOM      7  H   UNL     1       7.370   7.339  17.932  0.00  0.00    +0.000 HD
ENDBRANCH   5   6
ENDBRANCH   3   5
ENDBRANCH   2   3
ENDBRANCH   1   2
BRANCH   1   8
ATOM      8  C   UNL     1       4.243   3.590  17.272  0.00  0.00    +0.000 C 
BRANCH   8   9
ATOM      9  N   UNL     1       3.041   3.418  18.070  0.00  0.00    +0.000 N 
ATOM     10  C   UNL     1       2.763   3.999  19.272  0.00  0.00    +0.000 A 
ATOM     11  C   UNL     1       1.521   3.535  19.639  0.00  0.00    +0.000 A 
ATOM     12  C   UNL     1       1.135   2.683  18.588  0.00  0.00    +0.000 A 
ATOM     13  N   UNL     1       2.065   2.604  17.631  0.00  0.00    +0.000 NA
ENDBRANCH   8   9
ENDBRANCH   1   8
TORSDOF 6
ENDMDL
