MODEL 1
REMARK VINA RESULT:      -6.1      0.000      0.000
REMARK  Name = 
REMARK  17 active torsions:
REMARK  status: ('A' for Active; 'I' for Inactive)
REMARK    1  A    between atoms: C_1  and  C_2
REMARK    2  A    between atoms: C_2  and  C_3
REMARK    3  A    between atoms: C_3  and  C_4
REMARK    4  A    between atoms: C_4  and  N_5
REMARK    5  A    between atoms: N_5  and  C_6
REMARK    6  A    between atoms: C_6  and  C_7
REMARK    7  A    between atoms: C_13  and  C_15
REMARK    8  A    between atoms: C_15  and  N_16
REMARK    9  A    between atoms: C_15  and  C_22
REMARK   10  A    between atoms: N_16  and  C_17
REMARK   11  A    between atoms: C_17  and  C_18
REMARK   12  A    between atoms: C_18  and  N_19
REMARK   13  A    between atoms: C_18  and  C_20
REMARK   14  A    between atoms: C_20  and  S_21
REMARK   15  A    between atoms: C_22  and  C_23
REMARK   16  A    between atoms: C_22  and  C_24
REMARK   17  A    between atoms: C_24  and  C_25
REMARK                            x       y       z     vdW  Elec       q    Type
REMARK                         _______ _______ _______ _____ _____    ______ ____
ROOT
ATOM      1  C   UNL     1       4.412   4.052  16.999  0.00  0.00    +0.000 C 
ENDROOT
BRANCH   1   3
ATOM      2  N   UNL     1       3.115   6.154  17.871  0.00  0.00    +0.000 N 
ATOM      3  C   UNL     1       4.293   5.519  17.485  0.00  0.00    +0.000 C 
ATOM      4  O   UNL     1       5.358   6.156  17.431  0.00  0.00    +0.000 OA
BRANCH   2   5
ATOM      5  C   UNL     1       3.131   7.620  18.242  0.00  0.00    +0.000 C 
BRANCH   5   6
ATOM      6  C   UNL     1       1.908   8.437  17.799  0.00  0.00    +0.000 C 
BRANCH   6   8
ATOM      7  C   UNL     1       0.722  10.159  19.079  0.00  0.00    +0.000 C 
ATOM      8  C   UNL     1       1.808   9.935  18.019  0.00  0.00    +0.000 C 
ENDBRANCH   6   8
ENDBRANCH   5   6
ENDBRANCH   2   5
BRANCH   2   9
ATOM      9  C   UNL     1       1.793   5.492  17.972  0.00  0.00    +0.000 C 
BRANCH   9  10
ATOM     10  C   UNL     1       1.606   4.595  19.177  0.00  0.00    +0.000 A 
ATOM     11  C   UNL     1       2.060   4.970  20.445  0.00  0.00    +0.000 A 
ATOM     12  C   UNL     1       1.950   4.101  21.532  0.00  0.00    +0.000 A 
ATOM     13  C   UNL     1       1.361   2.850  21.370  0.00  0.00    +0.000 A 
ATOM     14  C   UNL     1       0.828   2.492  20.135  0.00  0.00    +0.000 A 
ATOM     15  C   UNL     1       0.930   3.366  19.049  0.00  0.00    +0.000 A 
ENDBRANCH   9  10
ENDBRANCH   2   9
ENDBRANCH   1   3
BRANCH   1  16
ATOM     16  N   UNL     1       5.840   3.734  16.653  0.00  0.00    +0.000 NA
ATOM     17  H   UNL     1       6.107   2.879  17.135  0.00  0.00    +0.000 HD
BRANCH  16  18
ATOM     18  C   UNL     1       6.011   3.588  15.211  0.00  0.00    +0.000 C 
BRANCH  18  19
ATOM     19  C   UNL     1       6.514   4.816  14.419  0.00  0.00    +0.000 C 
BRANCH  19  20
ATOM     20  N   UNL     1       7.539   5.579  15.148  0.00  0.00    +0.000 NA
ATOM     21  H   UNL     1       7.124   6.431  15.525  0.00  0.00    +0.000 HD
ATOM     22  H   UNL     1       8.250   5.880  14.481  0.00  0.00    +0.000 HD
ENDBRANCH  19  20
BRANCH  19  23
ATOM     23  C   UNL     1       7.030   4.333  13.036  0.00  0.00    +0.000 C 
BRANCH  23  24
ATOM     24  S   UNL     1       5.906   3.191  12.146  0.00  0.00    +0.000 S 
ATOM     25  H   UNL     1       5.846   2.267  13.114  0.00  0.00    +0.000 HD
ENDBRANCH  23  24
ENDBRANCH  19  23
ENDBRANCH  18  19
ENDBRANCH  16  18
ENDBRANCH   1  16
BRANCH   1  26
ATOM     26  C   UNL     1       3.997   3.060  18.172  0.00  0.00    +0.000 C 
ATOM     27  C   UNL     1       3.828   1.569  17.762  0.00  0.00    +0.000 C 
BRANCH  26  28
ATOM     28  C   UNL     1       4.954   3.111  19.385  0.00  0.00    +0.000 C 
ATOM     29  C   UNL     1       4.744   1.981  20.378  0.00  0.00    +0.000 C 
ENDBRANCH  26  28
ENDBRANCH   1  26
TORSDOF 14
ENDMDL
MODEL 2
REMARK VINA RESULT:      -6.1      2.026      3.026
REMARK  Name = 
REMARK  17 active torsions:
REMARK  status: ('A' for Active; 'I' for Inactive)
REMARK    1  A    between atoms: C_1  and  C_2
REMARK    2  A    between atoms: C_2  and  C_3
REMARK    3  A    between atoms: C_3  and  C_4
REMARK    4  A    between atoms: C_4  and  N_5
REMARK    5  A    between atoms: N_5  and  C_6
REMARK    6  A    between atoms: C_6  and  C_7
REMARK    7  A    between atoms: C_13  and  C_15
REMARK    8  A    between atoms: C_15  and  N_16
REMARK    9  A    between atoms: C_15  and  C_22
REMARK   10  A    between atoms: N_16  and  C_17
REMARK   11  A    between atoms: C_17  and  C_18
REMARK   12  A    between atoms: C_18  and  N_19
REMARK   13  A    between atoms: C_18  and  C_20
REMARK   14  A    between atoms: C_20  and  S_21
REMARK   15  A    between atoms: C_22  and  C_23
REMARK   16  A    between atoms: C_22  and  C_24
REMARK   17  A    between atoms: C_24  and  C_25
REMARK                            x       y       z     vdW  Elec       q    Type
REMARK                         _______ _______ _______ _____ _____    ______ ____
ROOT
ATOM      1  C   UNL     1       5.087   6.188  17.125  0.00  0.00    +0.000 C 
ENDROOT
BRANCH   1   3
ATOM      2  N   UNL     1       3.175   6.758  18.823  0.00  0.00    +0.000 N 
ATOM      3  C   UNL     1       3.945   7.063  17.703  0.00  0.00    +0.000 C 
ATOM      4  O   UNL     1       3.689   8.070  17.022  0.00  0.00    +0.000 OA
BRANCH   2   5
ATOM      5  C   UNL     1       2.032   7.663  19.224  0.00  0.00    +0.000 C 
BRANCH   5   6
ATOM      6  C   UNL     1       1.710   7.710  20.726  0.00  0.00    +0.000 C 
BRANCH   6   8
ATOM      7  C   UNL     1       0.341   9.695  20.286  0.00  0.00    +0.000 C 
ATOM      8  C   UNL     1       0.589   8.562  21.291  0.00  0.00    +0.000 C 
ENDBRANCH   6   8
ENDBRANCH   5   6
ENDBRANCH   2   5
BRANCH   2   9
ATOM      9  C   UNL     1       3.394   5.588  19.705  0.00  0.00    +0.000 C 
BRANCH   9  10
ATOM     10  C   UNL     1       2.616   4.343  19.338  0.00  0.00    +0.000 A 
ATOM     11  C   UNL     1       1.348   4.089  19.872  0.00  0.00    +0.000 A 
ATOM     12  C   UNL     1       0.674   2.901  19.586  0.00  0.00    +0.000 A 
ATOM     13  C   UNL     1       1.250   1.956  18.741  0.00  0.00    +0.000 A 
ATOM     14  C   UNL     1       2.473   2.226  18.135  0.00  0.00    +0.000 A 
ATOM     15  C   UNL     1       3.143   3.421  18.414  0.00  0.00    +0.000 A 
ENDBRANCH   9  10
ENDBRANCH   2   9
ENDBRANCH   1   3
BRANCH   1  16
ATOM     16  N   UNL     1       5.349   6.556  15.692  0.00  0.00    +0.000 NA
ATOM     17  H   UNL     1       6.268   6.986  15.630  0.00  0.00    +0.000 HD
BRANCH  16  18
ATOM     18  C   UNL     1       5.270   5.383  14.827  0.00  0.00    +0.000 C 
BRANCH  18  19
ATOM     19  C   UNL     1       6.496   4.443  14.775  0.00  0.00    +0.000 C 
BRANCH  19  20
ATOM     20  N   UNL     1       6.243   3.149  15.428  0.00  0.00    +0.000 NA
ATOM     21  H   UNL     1       6.616   2.397  14.849  0.00  0.00    +0.000 HD
ATOM     22  H   UNL     1       5.234   3.002  15.469  0.00  0.00    +0.000 HD
ENDBRANCH  19  20
BRANCH  19  23
ATOM     23  C   UNL     1       6.921   4.267  13.292  0.00  0.00    +0.000 C 
BRANCH  23  24
ATOM     24  S   UNL     1       5.794   3.235  12.280  0.00  0.00    +0.000 S 
ATOM     25  H   UNL     1       4.848   4.170  12.123  0.00  0.00    +0.000 HD
ENDBRANCH  23  24
ENDBRANCH  19  23
ENDBRANCH  18  19
ENDBRANCH  16  18
ENDBRANCH   1  16
BRANCH   1  26
ATOM     26  C   UNL     1       6.437   6.472  17.920  0.00  0.00    +0.000 C 
ATOM     27  C   UNL     1       7.230   5.210  18.368  0.00  0.00    +0.000 C 
BRANCH  26  28
ATOM     28  C   UNL     1       7.413   7.397  17.159  0.00  0.00    +0.000 C 
ATOM     29  C   UNL     1       8.157   8.372  18.056  0.00  0.00    +0.000 C 
ENDBRANCH  26  28
ENDBRANCH   1  26
TORSDOF 14
ENDMDL
MODEL 3
REMARK VINA RESULT:      -6.1      3.081      6.650
REMARK  Name = 
REMARK  17 active torsions:
REMARK  status: ('A' for Active; 'I' for Inactive)
REMARK    1  A    between atoms: C_1  and  C_2
REMARK    2  A    between atoms: C_2  and  C_3
REMARK    3  A    between atoms: C_3  and  C_4
REMARK    4  A    between atoms: C_4  and  N_5
REMARK    5  A    between atoms: N_5  and  C_6
REMARK    6  A    between atoms: C_6  and  C_7
REMARK    7  A    between atoms: C_13  and  C_15
REMARK    8  A    between atoms: C_15  and  N_16
REMARK    9  A    between atoms: C_15  and  C_22
REMARK   10  A    between atoms: N_16  and  C_17
REMARK   11  A    between atoms: C_17  and  C_18
REMARK   12  A    between atoms: C_18  and  N_19
REMARK   13  A    between atoms: C_18  and  C_20
REMARK   14  A    between atoms: C_20  and  S_21
REMARK   15  A    between atoms: C_22  and  C_23
REMARK   16  A    between atoms: C_22  and  C_24
REMARK   17  A    between atoms: C_24  and  C_25
REMARK                            x       y       z     vdW  Elec       q    Type
REMARK                         _______ _______ _______ _____ _____    ______ ____
ROOT
ATOM      1  C   UNL     1       2.958   6.159  18.170  0.00  0.00    +0.000 C 
ENDROOT
BRANCH   1   3
ATOM      2  N   UNL     1       5.474   5.944  17.473  0.00  0.00    +0.000 N 
ATOM      3  C   UNL     1       4.459   5.869  18.424  0.00  0.00    +0.000 C 
ATOM      4  O   UNL     1       4.707   5.463  19.572  0.00  0.00    +0.000 OA
BRANCH   2   5
ATOM      5  C   UNL     1       6.886   5.548  17.840  0.00  0.00    +0.000 C 
BRANCH   5   6
ATOM      6  C   UNL     1       7.820   6.697  18.252  0.00  0.00    +0.000 C 
BRANCH   6   8
ATOM      7  C   UNL     1       8.561   9.024  18.473  0.00  0.00    +0.000 C 
ATOM      8  C   UNL     1       7.789   8.052  17.570  0.00  0.00    +0.000 C 
ENDBRANCH   6   8
ENDBRANCH   5   6
ENDBRANCH   2   5
BRANCH   2   9
ATOM      9  C   UNL     1       5.292   6.414  16.079  0.00  0.00    +0.000 C 
BRANCH   9  10
ATOM     10  C   UNL     1       5.807   5.481  15.006  0.00  0.00    +0.000 A 
ATOM     11  C   UNL     1       7.086   5.629  14.459  0.00  0.00    +0.000 A 
ATOM     12  C   UNL     1       7.519   4.810  13.416  0.00  0.00    +0.000 A 
ATOM     13  C   UNL     1       6.685   3.812  12.917  0.00  0.00    +0.000 A 
ATOM     14  C   UNL     1       5.441   3.595  13.503  0.00  0.00    +0.000 A 
ATOM     15  C   UNL     1       5.012   4.410  14.554  0.00  0.00    +0.000 A 
ENDBRANCH   9  10
ENDBRANCH   2   9
ENDBRANCH   1   3
BRANCH   1  16
ATOM     16  N   UNL     1       2.106   5.144  18.878  0.00  0.00    +0.000 NA
ATOM     17  H   UNL     1       1.254   5.600  19.196  0.00  0.00    +0.000 HD
BRANCH  16  18
ATOM     18  C   UNL     1       1.791   4.020  18.002  0.00  0.00    +0.000 C 
BRANCH  18  19
ATOM     19  C   UNL     1       1.243   2.730  18.654  0.00  0.00    +0.000 C 
BRANCH  19  20
ATOM     20  N   UNL     1       2.227   1.636  18.655  0.00  0.00    +0.000 NA
ATOM     21  H   UNL     1       2.731   1.631  17.770  0.00  0.00    +0.000 HD
ATOM     22  H   UNL     1       1.721   0.750  18.700  0.00  0.00    +0.000 HD
ENDBRANCH  19  20
BRANCH  19  23
ATOM     23  C   UNL     1       0.758   3.070  20.090  0.00  0.00    +0.000 C 
BRANCH  23  24
ATOM     24  S   UNL     1       1.953   2.678  21.424  0.00  0.00    +0.000 S 
ATOM     25  H   UNL     1       1.566   1.407  21.592  0.00  0.00    +0.000 HD
ENDBRANCH  23  24
ENDBRANCH  19  23
ENDBRANCH  18  19
ENDBRANCH  16  18
ENDBRANCH   1  16
BRANCH   1  26
ATOM     26  C   UNL     1       2.573   7.578  18.778  0.00  0.00    +0.000 C 
ATOM     27  C   UNL     1       1.754   8.511  17.841  0.00  0.00    +0.000 C 
BRANCH  26  28
ATOM     28  C   UNL     1       1.821   7.484  20.125  0.00  0.00    +0.000 C 
ATOM     29  C   UNL     1       1.178   8.790  20.560  0.00  0.00    +0.000 C 
ENDBRANCH  26  28
ENDBRANCH   1  26
TORSDOF 14
ENDMDL
MODEL 4
REMARK VINA RESULT:      -6.0      2.335      4.967
REMARK  Name = 
REMARK  17 active torsions:
REMARK  status: ('A' for Active; 'I' for Inactive)
REMARK    1  A    between atoms: C_1  and  C_2
REMARK    2  A    between atoms: C_2  and  C_3
REMARK    3  A    between atoms: C_3  and  C_4
REMARK    4  A    between atoms: C_4  and  N_5
REMARK    5  A    between atoms: N_5  and  C_6
REMARK    6  A    between atoms: C_6  and  C_7
REMARK    7  A    between atoms: C_13  and  C_15
REMARK    8  A    between atoms: C_15  and  N_16
REMARK    9  A    between atoms: C_15  and  C_22
REMARK   10  A    between atoms: N_16  and  C_17
REMARK   11  A    between atoms: C_17  and  C_18
REMARK   12  A    between atoms: C_18  and  N_19
REMARK   13  A    between atoms: C_18  and  C_20
REMARK   14  A    between atoms: C_20  and  S_21
REMARK   15  A    between atoms: C_22  and  C_23
REMARK   16  A    between atoms: C_22  and  C_24
REMARK   17  A    between atoms: C_24  and  C_25
REMARK                            x       y       z     vdW  Elec       q    Type
REMARK                         _______ _______ _______ _____ _____    ______ ____
ROOT
ATOM      1  C   UNL     1       4.622   4.857  17.304  0.00  0.00    +0.000 C 
ENDROOT
BRANCH   1   3
ATOM      2  N   UNL     1       2.441   4.972  18.750  0.00  0.00    +0.000 N 
ATOM      3  C   UNL     1       3.173   4.458  17.682  0.00  0.00    +0.000 C 
ATOM      4  O   UNL     1       2.705   3.541  16.986  0.00  0.00    +0.000 OA
BRANCH   2   5
ATOM      5  C   UNL     1       1.064   4.426  19.056  0.00  0.00    +0.000 C 
BRANCH   5   6
ATOM      6  C   UNL     1       0.832   3.968  20.505  0.00  0.00    +0.000 C 
BRANCH   6   8
ATOM      7  C   UNL     1       1.846   1.818  19.903  0.00  0.00    +0.000 C 
ATOM      8  C   UNL     1       1.501   2.735  21.084  0.00  0.00    +0.000 C 
ENDBRANCH   6   8
ENDBRANCH   5   6
ENDBRANCH   2   5
BRANCH   2   9
ATOM      9  C   UNL     1       2.900   6.063  19.641  0.00  0.00    +0.000 C 
BRANCH   9  10
ATOM     10  C   UNL     1       2.246   7.408  19.411  0.00  0.00    +0.000 A 
ATOM     11  C   UNL     1       1.582   8.084  20.440  0.00  0.00    +0.000 A 
ATOM     12  C   UNL     1       0.918   9.287  20.196  0.00  0.00    +0.000 A 
ATOM     13  C   UNL     1       0.927   9.845  18.920  0.00  0.00    +0.000 A 
ATOM     14  C   UNL     1       1.651   9.230  17.903  0.00  0.00    +0.000 A 
ATOM     15  C   UNL     1       2.325   8.030  18.150  0.00  0.00    +0.000 A 
ENDBRANCH   9  10
ENDBRANCH   2   9
ENDBRANCH   1   3
BRANCH   1  16
ATOM     16  N   UNL     1       5.601   3.888  17.903  0.00  0.00    +0.000 NA
ATOM     17  H   UNL     1       6.211   3.545  17.165  0.00  0.00    +0.000 HD
BRANCH  16  18
ATOM     18  C   UNL     1       6.382   4.518  18.963  0.00  0.00    +0.000 C 
BRANCH  18  19
ATOM     19  C   UNL     1       7.840   4.918  18.643  0.00  0.00    +0.000 C 
BRANCH  19  20
ATOM     20  N   UNL     1       8.242   4.546  17.278  0.00  0.00    +0.000 NA
ATOM     21  H   UNL     1       9.224   4.778  17.137  0.00  0.00    +0.000 HD
ATOM     22  H   UNL     1       7.715   5.122  16.620  0.00  0.00    +0.000 HD
ENDBRANCH  19  20
BRANCH  19  23
ATOM     23  C   UNL     1       8.001   6.442  18.896  0.00  0.00    +0.000 C 
BRANCH  23  24
ATOM     24  S   UNL     1       7.502   7.515  17.496  0.00  0.00    +0.000 S 
ATOM     25  H   UNL     1       6.698   8.315  18.210  0.00  0.00    +0.000 HD
ENDBRANCH  23  24
ENDBRANCH  19  23
ENDBRANCH  18  19
ENDBRANCH  16  18
ENDBRANCH   1  16
BRANCH   1  26
ATOM     26  C   UNL     1       4.808   4.773  15.725  0.00  0.00    +0.000 C 
ATOM     27  C   UNL     1       5.286   6.083  15.035  0.00  0.00    +0.000 C 
BRANCH  26  28
ATOM     28  C   UNL     1       5.752   3.634  15.279  0.00  0.00    +0.000 C 
ATOM     29  C   UNL     1       6.324   3.822  13.885  0.00  0.00    +0.000 C 
ENDBRANCH  26  28
ENDBRANCH   1  26
TORSDOF 14
ENDMDL
MODEL 5
REMARK VINA RESULT:      -6.0      1.775      4.233
REMARK  Name = 
REMARK  17 active torsions:
REMARK  status: ('A' for Active; 'I' for Inactive)
REMARK    1  A    between atoms: C_1  and  C_2
REMARK    2  A    between atoms: C_2  and  C_3
REMARK    3  A    between atoms: C_3  and  C_4
REMARK    4  A    between atoms: C_4  and  N_5
REMARK    5  A    between atoms: N_5  and  C_6
REMARK    6  A    between atoms: C_6  and  C_7
REMARK    7  A    between atoms: C_13  and  C_15
REMARK    8  A    between atoms: C_15  and  N_16
REMARK    9  A    between atoms: C_15  and  C_22
REMARK   10  A    between atoms: N_16  and  C_17
REMARK   11  A    between atoms: C_17  and  C_18
REMARK   12  A    between atoms: C_18  and  N_19
REMARK   13  A    between atoms: C_18  and  C_20
REMARK   14  A    between atoms: C_20  and  S_21
REMARK   15  A    between atoms: C_22  and  C_23
REMARK   16  A    between atoms: C_22  and  C_24
REMARK   17  A    between atoms: C_24  and  C_25
REMARK                            x       y       z     vdW  Elec       q    Type
REMARK                         _______ _______ _______ _____ _____    ______ ____
ROOT
ATOM      1  C   UNL     1       5.660   4.834  17.543  0.00  0.00    +0.000 C 
ENDROOT
BRANCH   1   3
ATOM      2  N   UNL     1       3.158   5.041  18.295  0.00  0.00    +0.000 N 
ATOM      3  C   UNL     1       4.137   4.573  17.420  0.00  0.00    +0.000 C 
ATOM      4  O   UNL     1       3.830   3.811  16.488  0.00  0.00    +0.000 OA
BRANCH   2   5
ATOM      5  C   UNL     1       1.714   4.635  18.102  0.00  0.00    +0.000 C 
BRANCH   5   6
ATOM      6  C   UNL     1       1.217   3.484  18.991  0.00  0.00    +0.000 C 
BRANCH   6   8
ATOM      7  C   UNL     1       1.939   2.987  21.281  0.00  0.00    +0.000 C 
ATOM      8  C   UNL     1       0.853   3.683  20.450  0.00  0.00    +0.000 C 
ENDBRANCH   6   8
ENDBRANCH   5   6
ENDBRANCH   2   5
BRANCH   2   9
ATOM      9  C   UNL     1       3.412   5.952  19.435  0.00  0.00    +0.000 C 
BRANCH   9  10
ATOM     10  C   UNL     1       2.528   7.179  19.495  0.00  0.00    +0.000 A 
ATOM     11  C   UNL     1       1.823   7.517  20.655  0.00  0.00    +0.000 A 
ATOM     12  C   UNL     1       0.953   8.607  20.672  0.00  0.00    +0.000 A 
ATOM     13  C   UNL     1       0.790   9.393  19.534  0.00  0.00    +0.000 A 
ATOM     14  C   UNL     1       1.546   9.122  18.396  0.00  0.00    +0.000 A 
ATOM     15  C   UNL     1       2.425   8.036  18.382  0.00  0.00    +0.000 A 
ENDBRANCH   9  10
ENDBRANCH   2   9
ENDBRANCH   1   3
BRANCH   1  16
ATOM     16  N   UNL     1       6.423   3.874  16.675  0.00  0.00    +0.000 NA
ATOM     17  H   UNL     1       5.758   3.319  16.142  0.00  0.00    +0.000 HD
BRANCH  16  18
ATOM     18  C   UNL     1       7.333   4.584  15.782  0.00  0.00    +0.000 C 
BRANCH  18  19
ATOM     19  C   UNL     1       6.833   4.911  14.356  0.00  0.00    +0.000 C 
BRANCH  19  20
ATOM     20  N   UNL     1       7.916   5.362  13.468  0.00  0.00    +0.000 NA
ATOM     21  H   UNL     1       7.780   4.966  12.538  0.00  0.00    +0.000 HD
ATOM     22  H   UNL     1       8.796   4.979  13.814  0.00  0.00    +0.000 HD
ENDBRANCH  19  20
BRANCH  19  23
ATOM     23  C   UNL     1       6.104   3.663  13.790  0.00  0.00    +0.000 C 
BRANCH  23  24
ATOM     24  S   UNL     1       6.411   3.327  12.014  0.00  0.00    +0.000 S 
ATOM     25  H   UNL     1       5.523   2.330  11.903  0.00  0.00    +0.000 HD
ENDBRANCH  23  24
ENDBRANCH  19  23
ENDBRANCH  18  19
ENDBRANCH  16  18
ENDBRANCH   1  16
BRANCH   1  26
ATOM     26  C   UNL     1       6.000   6.296  17.012  0.00  0.00    +0.000 C 
ATOM     27  C   UNL     1       4.812   7.073  16.376  0.00  0.00    +0.000 C 
BRANCH  26  28
ATOM     28  C   UNL     1       6.638   7.205  18.087  0.00  0.00    +0.000 C 
ATOM     29  C   UNL     1       7.702   8.142  17.543  0.00  0.00    +0.000 C 
ENDBRANCH  26  28
ENDBRANCH   1  26
TORSDOF 14
ENDMDL
MODEL 6
REMARK VINA RESULT:      -6.0      2.010      2.904
REMARK  Name = 
REMARK  17 active torsions:
REMARK  status: ('A' for Active; 'I' for Inactive)
REMARK    1  A    between atoms: C_1  and  C_2
REMARK    2  A    between atoms: C_2  and  C_3
REMARK    3  A    between atoms: C_3  and  C_4
REMARK    4  A    between atoms: C_4  and  N_5
REMARK    5  A    between atoms: N_5  and  C_6
REMARK    6  A    between atoms: C_6  and  C_7
REMARK    7  A    between atoms: C_13  and  C_15
REMARK    8  A    between atoms: C_15  and  N_16
REMARK    9  A    between atoms: C_15  and  C_22
REMARK   10  A    between atoms: N_16  and  C_17
REMARK   11  A    between atoms: C_17  and  C_18
REMARK   12  A    between atoms: C_18  and  N_19
REMARK   13  A    between atoms: C_18  and  C_20
REMARK   14  A    between atoms: C_20  and  S_21
REMARK   15  A    between atoms: C_22  and  C_23
REMARK   16  A    between atoms: C_22  and  C_24
REMARK   17  A    between atoms: C_24  and  C_25
REMARK                            x       y       z     vdW  Elec       q    Type
REMARK                         _______ _______ _______ _____ _____    ______ ____
ROOT
ATOM      1  C   UNL     1       6.096   5.329  16.117  0.00  0.00    +0.000 C 
ENDROOT
BRANCH   1   3
ATOM      2  N   UNL     1       4.134   6.469  17.426  0.00  0.00    +0.000 N 
ATOM      3  C   UNL     1       4.993   6.397  16.332  0.00  0.00    +0.000 C 
ATOM      4  O   UNL     1       4.860   7.183  15.379  0.00  0.00    +0.000 OA
BRANCH   2   5
ATOM      5  C   UNL     1       3.043   7.516  17.464  0.00  0.00    +0.000 C 
BRANCH   5   6
ATOM      6  C   UNL     1       2.393   7.757  18.836  0.00  0.00    +0.000 C 
BRANCH   6   8
ATOM      7  C   UNL     1       1.591   9.882  17.913  0.00  0.00    +0.000 C 
ATOM      8  C   UNL     1       1.446   8.914  19.094  0.00  0.00    +0.000 C 
ENDBRANCH   6   8
ENDBRANCH   5   6
ENDBRANCH   2   5
BRANCH   2   9
ATOM      9  C   UNL     1       4.204   5.587  18.615  0.00  0.00    +0.000 C 
BRANCH   9  10
ATOM     10  C   UNL     1       3.232   4.427  18.622  0.00  0.00    +0.000 A 
ATOM     11  C   UNL     1       3.369   3.353  17.737  0.00  0.00    +0.000 A 
ATOM     12  C   UNL     1       2.422   2.328  17.702  0.00  0.00    +0.000 A 
ATOM     13  C   UNL     1       1.333   2.351  18.569  0.00  0.00    +0.000 A 
ATOM     14  C   UNL     1       1.224   3.369  19.513  0.00  0.00    +0.000 A 
ATOM     15  C   UNL     1       2.178   4.390  19.554  0.00  0.00    +0.000 A 
ENDBRANCH   9  10
ENDBRANCH   2   9
ENDBRANCH   1   3
BRANCH   1  16
ATOM     16  N   UNL     1       6.494   5.279  14.669  0.00  0.00    +0.000 NA
ATOM     17  H   UNL     1       7.502   5.408  14.606  0.00  0.00    +0.000 HD
BRANCH  16  18
ATOM     18  C   UNL     1       6.098   4.014  14.059  0.00  0.00    +0.000 C 
BRANCH  18  19
ATOM     19  C   UNL     1       6.053   3.942  12.515  0.00  0.00    +0.000 C 
BRANCH  19  20
ATOM     20  N   UNL     1       7.386   4.063  11.905  0.00  0.00    +0.000 NA
ATOM     21  H   UNL     1       7.688   3.150  11.566  0.00  0.00    +0.000 HD
ATOM     22  H   UNL     1       8.050   4.329  12.634  0.00  0.00    +0.000 HD
ENDBRANCH  19  20
BRANCH  19  23
ATOM     23  C   UNL     1       5.347   2.622  12.103  0.00  0.00    +0.000 C 
BRANCH  23  24
ATOM     24  S   UNL     1       6.391   1.449  11.157  0.00  0.00    +0.000 S 
ATOM     25  H   UNL     1       7.373   2.319  10.887  0.00  0.00    +0.000 HD
ENDBRANCH  23  24
ENDBRANCH  19  23
ENDBRANCH  18  19
ENDBRANCH  16  18
ENDBRANCH   1  16
BRANCH   1  26
ATOM     26  C   UNL     1       7.401   5.730  16.934  0.00  0.00    +0.000 C 
ATOM     27  C   UNL     1       7.483   7.219  17.379  0.00  0.00    +0.000 C 
BRANCH  26  28
ATOM     28  C   UNL     1       7.637   4.850  18.183  0.00  0.00    +0.000 C 
ATOM     29  C   UNL     1       7.887   5.644  19.453  0.00  0.00    +0.000 C 
ENDBRANCH  26  28
ENDBRANCH   1  26
TORSDOF 14
ENDMDL
MODEL 7
REMARK VINA RESULT:      -6.0      3.110      6.351
REMARK  Name = 
REMARK  17 active torsions:
REMARK  status: ('A' for Active; 'I' for Inactive)
REMARK    1  A    between atoms: C_1  and  C_2
REMARK    2  A    between atoms: C_2  and  C_3
REMARK    3  A    between atoms: C_3  and  C_4
REMARK    4  A    between atoms: C_4  and  N_5
REMARK    5  A    between atoms: N_5  and  C_6
REMARK    6  A    between atoms: C_6  and  C_7
REMARK    7  A    between atoms: C_13  and  C_15
REMARK    8  A    between atoms: C_15  and  N_16
REMARK    9  A    between atoms: C_15  and  C_22
REMARK   10  A    between atoms: N_16  and  C_17
REMARK   11  A    between atoms: C_17  and  C_18
REMARK   12  A    between atoms: C_18  and  N_19
REMARK   13  A    between atoms: C_18  and  C_20
REMARK   14  A    between atoms: C_20  and  S_21
REMARK   15  A    between atoms: C_22  and  C_23
REMARK   16  A    between atoms: C_22  and  C_24
REMARK   17  A    between atoms: C_24  and  C_25
REMARK                            x       y       z     vdW  Elec       q    Type
REMARK                         _______ _______ _______ _____ _____    ______ ____
ROOT
ATOM      1  C   UNL     1       4.111   4.092  18.745  0.00  0.00    +0.000 C 
ENDROOT
BRANCH   1   3
ATOM      2  N   UNL     1       5.250   4.137  16.385  0.00  0.00    +0.000 N 
ATOM      3  C   UNL     1       4.117   4.080  17.195  0.00  0.00    +0.000 C 
ATOM      4  O   UNL     1       2.983   4.099  16.686  0.00  0.00    +0.000 OA
BRANCH   2   5
ATOM      5  C   UNL     1       5.103   4.206  14.882  0.00  0.00    +0.000 C 
BRANCH   5   6
ATOM      6  C   UNL     1       6.397   4.021  14.073  0.00  0.00    +0.000 C 
BRANCH   6   8
ATOM      7  C   UNL     1       4.920   3.465  12.197  0.00  0.00    +0.000 C 
ATOM      8  C   UNL     1       6.390   3.613  12.612  0.00  0.00    +0.000 C 
ENDBRANCH   6   8
ENDBRANCH   5   6
ENDBRANCH   2   5
BRANCH   2   9
ATOM      9  C   UNL     1       6.645   4.117  16.884  0.00  0.00    +0.000 C 
BRANCH   9  10
ATOM     10  C   UNL     1       7.151   5.426  17.449  0.00  0.00    +0.000 A 
ATOM     11  C   UNL     1       7.031   6.625  16.739  0.00  0.00    +0.000 A 
ATOM     12  C   UNL     1       7.572   7.811  17.238  0.00  0.00    +0.000 A 
ATOM     13  C   UNL     1       8.222   7.821  18.469  0.00  0.00    +0.000 A 
ATOM     14  C   UNL     1       8.280   6.655  19.228  0.00  0.00    +0.000 A 
ATOM     15  C   UNL     1       7.730   5.470  18.732  0.00  0.00    +0.000 A 
ENDBRANCH   9  10
ENDBRANCH   2   9
ENDBRANCH   1   3
BRANCH   1  16
ATOM     16  N   UNL     1       4.206   5.502  19.254  0.00  0.00    +0.000 NA
ATOM     17  H   UNL     1       5.184   5.715  19.438  0.00  0.00    +0.000 HD
BRANCH  16  18
ATOM     18  C   UNL     1       3.646   6.447  18.293  0.00  0.00    +0.000 C 
BRANCH  18  19
ATOM     19  C   UNL     1       2.370   7.217  18.700  0.00  0.00    +0.000 C 
BRANCH  19  20
ATOM     20  N   UNL     1       2.260   7.399  20.156  0.00  0.00    +0.000 NA
ATOM     21  H   UNL     1       2.860   8.169  20.448  0.00  0.00    +0.000 HD
ATOM     22  H   UNL     1       2.627   6.563  20.613  0.00  0.00    +0.000 HD
ENDBRANCH  19  20
BRANCH  19  23
ATOM     23  C   UNL     1       2.350   8.574  17.946  0.00  0.00    +0.000 C 
BRANCH  23  24
ATOM     24  S   UNL     1       1.066   9.754  18.510  0.00  0.00    +0.000 S 
ATOM     25  H   UNL     1       1.053  10.495  17.393  0.00  0.00    +0.000 HD
ENDBRANCH  23  24
ENDBRANCH  19  23
ENDBRANCH  18  19
ENDBRANCH  16  18
ENDBRANCH   1  16
BRANCH   1  26
ATOM     26  C   UNL     1       2.732   3.507  19.282  0.00  0.00    +0.000 C 
ATOM     27  C   UNL     1       2.559   1.967  19.150  0.00  0.00    +0.000 C 
BRANCH  26  28
ATOM     28  C   UNL     1       2.433   3.892  20.749  0.00  0.00    +0.000 C 
ATOM     29  C   UNL     1       1.783   2.780  21.554  0.00  0.00    +0.000 C 
ENDBRANCH  26  28
ENDBRANCH   1  26
TORSDOF 14
ENDMDL
MODEL 8
REMARK VINA RESULT:      -6.0      2.159      3.199
REMARK  Name = 
REMARK  17 active torsions:
REMARK  status: ('A' for Active; 'I' for Inactive)
REMARK    1  A    between atoms: C_1  and  C_2
REMARK    2  A    between atoms: C_2  and  C_3
REMARK    3  A    between atoms: C_3  and  C_4
REMARK    4  A    between atoms: C_4  and  N_5
REMARK    5  A    between atoms: N_5  and  C_6
REMARK    6  A    between atoms: C_6  and  C_7
REMARK    7  A    between atoms: C_13  and  C_15
REMARK    8  A    between atoms: C_15  and  N_16
REMARK    9  A    between atoms: C_15  and  C_22
REMARK   10  A    between atoms: N_16  and  C_17
REMARK   11  A    between atoms: C_17  and  C_18
REMARK   12  A    between atoms: C_18  and  N_19
REMARK   13  A    between atoms: C_18  and  C_20
REMARK   14  A    between atoms: C_20  and  S_21
REMARK   15  A    between atoms: C_22  and  C_23
REMARK   16  A    between atoms: C_22  and  C_24
REMARK   17  A    between atoms: C_24  and  C_25
REMARK                            x       y       z     vdW  Elec       q    Type
REMARK                         _______ _______ _______ _____ _____    ______ ____
ROOT
ATOM      1  C   UNL     1       5.237   6.092  17.215  0.00  0.00    +0.000 C 
ENDROOT
BRANCH   1   3
ATOM      2  N   UNL     1       3.305   6.678  18.884  0.00  0.00    +0.000 N 
ATOM      3  C   UNL     1       4.079   6.964  17.762  0.00  0.00    +0.000 C 
ATOM      4  O   UNL     1       3.813   7.951  17.053  0.00  0.00    +0.000 OA
BRANCH   2   5
ATOM      5  C   UNL     1       2.146   7.577  19.254  0.00  0.00    +0.000 C 
BRANCH   5   6
ATOM      6  C   UNL     1       1.611   7.425  20.687  0.00  0.00    +0.000 C 
BRANCH   6   8
ATOM      7  C   UNL     1      -0.286   8.546  21.761  0.00  0.00    +0.000 C 
ATOM      8  C   UNL     1       1.231   8.618  21.543  0.00  0.00    +0.000 C 
ENDBRANCH   6   8
ENDBRANCH   5   6
ENDBRANCH   2   5
BRANCH   2   9
ATOM      9  C   UNL     1       3.533   5.534  19.797  0.00  0.00    +0.000 C 
BRANCH   9  10
ATOM     10  C   UNL     1       2.949   4.214  19.344  0.00  0.00    +0.000 A 
ATOM     11  C   UNL     1       3.755   3.200  18.815  0.00  0.00    +0.000 A 
ATOM     12  C   UNL     1       3.193   2.018  18.330  0.00  0.00    +0.000 A 
ATOM     13  C   UNL     1       1.816   1.822  18.388  0.00  0.00    +0.000 A 
ATOM     14  C   UNL     1       1.006   2.783  18.986  0.00  0.00    +0.000 A 
ATOM     15  C   UNL     1       1.570   3.963  19.481  0.00  0.00    +0.000 A 
ENDBRANCH   9  10
ENDBRANCH   2   9
ENDBRANCH   1   3
BRANCH   1  16
ATOM     16  N   UNL     1       5.486   6.407  15.767  0.00  0.00    +0.000 NA
ATOM     17  H   UNL     1       6.461   6.677  15.657  0.00  0.00    +0.000 HD
BRANCH  16  18
ATOM     18  C   UNL     1       5.171   5.263  14.918  0.00  0.00    +0.000 C 
BRANCH  18  19
ATOM     19  C   UNL     1       6.269   4.195  14.711  0.00  0.00    +0.000 C 
BRANCH  19  20
ATOM     20  N   UNL     1       6.217   3.128  15.722  0.00  0.00    +0.000 NA
ATOM     21  H   UNL     1       6.824   2.360  15.438  0.00  0.00    +0.000 HD
ATOM     22  H   UNL     1       5.269   2.749  15.740  0.00  0.00    +0.000 HD
ENDBRANCH  19  20
BRANCH  19  23
ATOM     23  C   UNL     1       6.144   3.631  13.270  0.00  0.00    +0.000 C 
BRANCH  23  24
ATOM     24  S   UNL     1       7.281   4.381  12.044  0.00  0.00    +0.000 S 
ATOM     25  H   UNL     1       7.907   5.192  12.907  0.00  0.00    +0.000 HD
ENDBRANCH  23  24
ENDBRANCH  19  23
ENDBRANCH  18  19
ENDBRANCH  16  18
ENDBRANCH   1  16
BRANCH   1  26
ATOM     26  C   UNL     1       6.583   6.434  17.992  0.00  0.00    +0.000 C 
ATOM     27  C   UNL     1       7.375   5.209  18.533  0.00  0.00    +0.000 C 
BRANCH  26  28
ATOM     28  C   UNL     1       7.561   7.304  17.171  0.00  0.00    +0.000 C 
ATOM     29  C   UNL     1       7.933   8.612  17.848  0.00  0.00    +0.000 C 
ENDBRANCH  26  28
ENDBRANCH   1  26
TORSDOF 14
ENDMDL
MODEL 9
REMARK VINA RESULT:      -5.9      3.124      6.580
REMARK  Name = 
REMARK  17 active torsions:
REMARK  status: ('A' for Active; 'I' for Inactive)
REMARK    1  A    between atoms: C_1  and  C_2
REMARK    2  A    between atoms: C_2  and  C_3
REMARK    3  A    between atoms: C_3  and  C_4
REMARK    4  A    between atoms: C_4  and  N_5
REMARK    5  A    between atoms: N_5  and  C_6
REMARK    6  A    between atoms: C_6  and  C_7
REMARK    7  A    between atoms: C_13  and  C_15
REMARK    8  A    between atoms: C_15  and  N_16
REMARK    9  A    between atoms: C_15  and  C_22
REMARK   10  A    between atoms: N_16  and  C_17
REMARK   11  A    between atoms: C_17  and  C_18
REMARK   12  A    between atoms: C_18  and  N_19
REMARK   13  A    between atoms: C_18  and  C_20
REMARK   14  A    between atoms: C_20  and  S_21
REMARK   15  A    between atoms: C_22  and  C_23
REMARK   16  A    between atoms: C_22  and  C_24
REMARK   17  A    between atoms: C_24  and  C_25
REMARK                            x       y       z     vdW  Elec       q    Type
REMARK                         _______ _______ _______ _____ _____    ______ ____
ROOT
ATOM      1  C   UNL     1       4.168   3.871  17.641  0.00  0.00    +0.000 C 
ENDROOT
BRANCH   1   3
ATOM      2  N   UNL     1       6.291   5.275  17.020  0.00  0.00    +0.000 N 
ATOM      3  C   UNL     1       5.584   4.450  17.891  0.00  0.00    +0.000 C 
ATOM      4  O   UNL     1       6.115   4.045  18.940  0.00  0.00    +0.000 OA
BRANCH   2   5
ATOM      5  C   UNL     1       7.704   5.696  17.355  0.00  0.00    +0.000 C 
BRANCH   5   6
ATOM      6  C   UNL     1       7.842   6.989  18.174  0.00  0.00    +0.000 C 
BRANCH   6   8
ATOM      7  C   UNL     1       8.539   9.336  18.297  0.00  0.00    +0.000 C 
ATOM      8  C   UNL     1       7.602   8.361  17.573  0.00  0.00    +0.000 C 
ENDBRANCH   6   8
ENDBRANCH   5   6
ENDBRANCH   2   5
BRANCH   2   9
ATOM      9  C   UNL     1       5.755   5.815  15.748  0.00  0.00    +0.000 C 
BRANCH   9  10
ATOM     10  C   UNL     1       6.171   5.069  14.499  0.00  0.00    +0.000 A 
ATOM     11  C   UNL     1       7.359   5.373  13.827  0.00  0.00    +0.000 A 
ATOM     12  C   UNL     1       7.692   4.730  12.634  0.00  0.00    +0.000 A 
ATOM     13  C   UNL     1       6.850   3.756  12.104  0.00  0.00    +0.000 A 
ATOM     14  C   UNL     1       5.704   3.381  12.801  0.00  0.00    +0.000 A 
ATOM     15  C   UNL     1       5.376   4.018  14.002  0.00  0.00    +0.000 A 
ENDBRANCH   9  10
ENDBRANCH   2   9
ENDBRANCH   1   3
BRANCH   1  16
ATOM     16  N   UNL     1       4.114   2.430  18.062  0.00  0.00    +0.000 NA
ATOM     17  H   UNL     1       5.036   2.152  18.388  0.00  0.00    +0.000 HD
BRANCH  16  18
ATOM     18  C   UNL     1       3.116   2.225  19.107  0.00  0.00    +0.000 C 
BRANCH  18  19
ATOM     19  C   UNL     1       3.614   1.781  20.501  0.00  0.00    +0.000 C 
BRANCH  19  20
ATOM     20  N   UNL     1       5.055   2.013  20.687  0.00  0.00    +0.000 NA
ATOM     21  H   UNL     1       5.468   1.217  21.170  0.00  0.00    +0.000 HD
ATOM     22  H   UNL     1       5.173   2.816  21.307  0.00  0.00    +0.000 HD
ENDBRANCH  19  20
BRANCH  19  23
ATOM     23  C   UNL     1       2.768   2.509  21.581  0.00  0.00    +0.000 C 
BRANCH  23  24
ATOM     24  S   UNL     1       1.098   3.030  21.036  0.00  0.00    +0.000 S 
ATOM     25  H   UNL     1       0.796   1.892  20.396  0.00  0.00    +0.000 HD
ENDBRANCH  23  24
ENDBRANCH  19  23
ENDBRANCH  18  19
ENDBRANCH  16  18
ENDBRANCH   1  16
BRANCH   1  26
ATOM     26  C   UNL     1       3.104   4.646  18.536  0.00  0.00    +0.000 C 
ATOM     27  C   UNL     1       3.697   5.527  19.672  0.00  0.00    +0.000 C 
BRANCH  26  28
ATOM     28  C   UNL     1       2.135   5.525  17.713  0.00  0.00    +0.000 C 
ATOM     29  C   UNL     1       2.196   7.001  18.068  0.00  0.00    +0.000 C 
ENDBRANCH  26  28
ENDBRANCH   1  26
TORSDOF 14
ENDMDL
