MODEL 1
REMARK VINA RESULT:      -8.3      0.000      0.000
REMARK  Name = 
REMARK  7 active torsions:
REMARK  status: ('A' for Active; 'I' for Inactive)
REMARK    1  A    between atoms: C_1  and  C_2
REMARK    2  A    between atoms: C_5  and  N_6
REMARK    3  A    between atoms: C_7  and  C_9
REMARK    4  A    between atoms: C_14  and  O_16
REMARK    5  A    between atoms: O_16  and  C_17
REMARK    6  A    between atoms: C_17  and  C_18
REMARK    7  A    between atoms: C_25  and  C_26
REMARK                            x       y       z     vdW  Elec       q    Type
REMARK                         _______ _______ _______ _____ _____    ______ ____
ROOT
ATOM      1  C   UNL     1       5.445   4.906  18.598  0.00  0.00    +0.000 C 
ATOM      2  C   UNL     1       6.741   5.604  19.026  0.00  0.00    +0.000 C 
ATOM      3  C   UNL     1       7.808   4.932  18.181  0.00  0.00    +0.000 C 
ATOM      4  C   UNL     1       7.091   4.584  16.884  0.00  0.00    +0.000 C 
ATOM      5  N   UNL     1       5.669   4.707  17.164  0.00  0.00    +0.000 N 
ATOM      6  C   UNL     1       4.788   4.092  16.300  0.00  0.00    +0.000 C 
ATOM      7  O   UNL     1       5.114   3.681  15.194  0.00  0.00    +0.000 OA
ENDROOT
BRANCH   1   9
ATOM      8  N   UNL     1       3.811   6.729  18.259  0.00  0.00    +0.000 N 
ATOM      9  C   UNL     1       4.277   5.754  19.123  0.00  0.00    +0.000 C 
ATOM     10  O   UNL     1       3.913   5.599  20.292  0.00  0.00    +0.000 OA
ATOM     11  H   UNL     1       4.084   6.622  17.289  0.00  0.00    +0.000 HD
BRANCH   8  16
ATOM     12  C   UNL     1      -0.176  10.599  19.676  0.00  0.00    +0.000 C 
ATOM     13  C   UNL     1       0.781   9.505  19.290  0.00  0.00    +0.000 A 
ATOM     14  C   UNL     1       1.308   9.491  17.993  0.00  0.00    +0.000 A 
ATOM     15  C   UNL     1       2.278   8.558  17.624  0.00  0.00    +0.000 A 
ATOM     16  C   UNL     1       2.744   7.614  18.540  0.00  0.00    +0.000 A 
ATOM     17  C   UNL     1       2.162   7.569  19.811  0.00  0.00    +0.000 A 
ATOM     18  C   UNL     1       1.214   8.532  20.211  0.00  0.00    +0.000 A 
ATOM     19  C   UNL     1       0.696   8.512  21.623  0.00  0.00    +0.000 C 
ENDBRANCH   8  16
ENDBRANCH   1   9
BRANCH   6  20
ATOM     20  O   UNL     1       3.525   4.066  16.784  0.00  0.00    +0.000 OA
BRANCH  20  21
ATOM     21  C   UNL     1       3.033   2.787  17.214  0.00  0.00    +0.000 C 
BRANCH  21  22
ATOM     22  C   UNL     1       2.451   2.915  18.598  0.00  0.00    +0.000 A 
ATOM     23  C   UNL     1       1.302   3.689  18.810  0.00  0.00    +0.000 A 
ATOM     24  C   UNL     1       0.772   3.832  20.093  0.00  0.00    +0.000 A 
ATOM     25  C   UNL     1       1.381   3.200  21.174  0.00  0.00    +0.000 A 
ATOM     26  C   UNL     1       2.516   2.414  20.974  0.00  0.00    +0.000 A 
ATOM     27  C   UNL     1       3.049   2.272  19.690  0.00  0.00    +0.000 A 
ENDBRANCH  21  22
ENDBRANCH  20  21
ENDBRANCH   6  20
TORSDOF 5
ENDMDL
MODEL 2
REMARK VINA RESULT:      -8.0      0.956      1.346
REMARK  Name = 
REMARK  7 active torsions:
REMARK  status: ('A' for Active; 'I' for Inactive)
REMARK    1  A    between atoms: C_1  and  C_2
REMARK    2  A    between atoms: C_5  and  N_6
REMARK    3  A    between atoms: C_7  and  C_9
REMARK    4  A    between atoms: C_14  and  O_16
REMARK    5  A    between atoms: O_16  and  C_17
REMARK    6  A    between atoms: C_17  and  C_18
REMARK    7  A    between atoms: C_25  and  C_26
REMARK                            x       y       z     vdW  Elec       q    Type
REMARK                         _______ _______ _______ _____ _____    ______ ____
ROOT
ATOM      1  C   UNL     1       5.458   5.600  18.238  0.00  0.00    +0.000 C 
ATOM      2  C   UNL     1       6.771   6.334  18.531  0.00  0.00    +0.000 C 
ATOM      3  C   UNL     1       7.834   5.275  18.304  0.00  0.00    +0.000 C 
ATOM      4  C   UNL     1       7.255   4.398  17.202  0.00  0.00    +0.000 C 
ATOM      5  N   UNL     1       5.841   4.729  17.125  0.00  0.00    +0.000 N 
ATOM      6  C   UNL     1       5.005   3.834  16.491  0.00  0.00    +0.000 C 
ATOM      7  O   UNL     1       5.413   2.927  15.779  0.00  0.00    +0.000 OA
ENDROOT
BRANCH   1   9
ATOM      8  N   UNL     1       3.449   6.737  19.123  0.00  0.00    +0.000 N 
ATOM      9  C   UNL     1       4.363   6.668  18.087  0.00  0.00    +0.000 C 
ATOM     10  O   UNL     1       4.296   7.301  17.030  0.00  0.00    +0.000 OA
ATOM     11  H   UNL     1       3.730   6.285  19.986  0.00  0.00    +0.000 HD
BRANCH   8  16
ATOM     12  C   UNL     1      -0.613  10.753  19.633  0.00  0.00    +0.000 C 
ATOM     13  C   UNL     1       0.365   9.618  19.492  0.00  0.00    +0.000 A 
ATOM     14  C   UNL     1       0.971   9.395  18.250  0.00  0.00    +0.000 A 
ATOM     15  C   UNL     1       1.960   8.422  18.101  0.00  0.00    +0.000 A 
ATOM     16  C   UNL     1       2.368   7.647  19.188  0.00  0.00    +0.000 A 
ATOM     17  C   UNL     1       1.709   7.807  20.410  0.00  0.00    +0.000 A 
ATOM     18  C   UNL     1       0.739   8.815  20.587  0.00  0.00    +0.000 A 
ATOM     19  C   UNL     1       0.135   9.024  21.948  0.00  0.00    +0.000 C 
ENDBRANCH   8  16
ENDBRANCH   1   9
BRANCH   6  20
ATOM     20  O   UNL     1       3.697   4.123  16.688  0.00  0.00    +0.000 OA
BRANCH  20  21
ATOM     21  C   UNL     1       2.862   3.034  17.112  0.00  0.00    +0.000 C 
BRANCH  21  22
ATOM     22  C   UNL     1       2.484   3.230  18.558  0.00  0.00    +0.000 A 
ATOM     23  C   UNL     1       3.281   2.686  19.575  0.00  0.00    +0.000 A 
ATOM     24  C   UNL     1       2.924   2.842  20.914  0.00  0.00    +0.000 A 
ATOM     25  C   UNL     1       1.771   3.548  21.252  0.00  0.00    +0.000 A 
ATOM     26  C   UNL     1       0.979   4.108  20.250  0.00  0.00    +0.000 A 
ATOM     27  C   UNL     1       1.333   3.950  18.908  0.00  0.00    +0.000 A 
ENDBRANCH  21  22
ENDBRANCH  20  21
ENDBRANCH   6  20
TORSDOF 5
ENDMDL
MODEL 3
REMARK VINA RESULT:      -7.7      1.788      4.609
REMARK  Name = 
REMARK  7 active torsions:
REMARK  status: ('A' for Active; 'I' for Inactive)
REMARK    1  A    between atoms: C_1  and  C_2
REMARK    2  A    between atoms: C_5  and  N_6
REMARK    3  A    between atoms: C_7  and  C_9
REMARK    4  A    between atoms: C_14  and  O_16
REMARK    5  A    between atoms: O_16  and  C_17
REMARK    6  A    between atoms: C_17  and  C_18
REMARK    7  A    between atoms: C_25  and  C_26
REMARK                            x       y       z     vdW  Elec       q    Type
REMARK                         _______ _______ _______ _____ _____    ______ ____
ROOT
ATOM      1  C   UNL     1       1.920   3.439  19.729  0.00  0.00    +0.000 C 
ATOM      2  C   UNL     1       0.948   3.586  20.905  0.00  0.00    +0.000 C 
ATOM      3  C   UNL     1       1.313   2.431  21.820  0.00  0.00    +0.000 C 
ATOM      4  C   UNL     1       2.809   2.250  21.611  0.00  0.00    +0.000 C 
ATOM      5  N   UNL     1       3.140   2.984  20.401  0.00  0.00    +0.000 N 
ATOM      6  C   UNL     1       4.329   2.685  19.771  0.00  0.00    +0.000 C 
ATOM      7  O   UNL     1       5.223   2.038  20.302  0.00  0.00    +0.000 OA
ENDROOT
BRANCH   1   9
ATOM      8  N   UNL     1       2.018   5.908  19.684  0.00  0.00    +0.000 N 
ATOM      9  C   UNL     1       1.877   4.754  18.936  0.00  0.00    +0.000 C 
ATOM     10  O   UNL     1       1.608   4.709  17.732  0.00  0.00    +0.000 OA
ATOM     11  H   UNL     1       2.400   5.783  20.615  0.00  0.00    +0.000 HD
BRANCH   8  16
ATOM     12  C   UNL     1       2.317  11.358  17.925  0.00  0.00    +0.000 C 
ATOM     13  C   UNL     1       2.132   9.921  18.332  0.00  0.00    +0.000 A 
ATOM     14  C   UNL     1       2.811   8.924  17.623  0.00  0.00    +0.000 A 
ATOM     15  C   UNL     1       2.752   7.590  18.031  0.00  0.00    +0.000 A 
ATOM     16  C   UNL     1       2.012   7.220  19.155  0.00  0.00    +0.000 A 
ATOM     17  C   UNL     1       1.265   8.199  19.818  0.00  0.00    +0.000 A 
ATOM     18  C   UNL     1       1.350   9.555  19.445  0.00  0.00    +0.000 A 
ATOM     19  C   UNL     1       0.617  10.589  20.254  0.00  0.00    +0.000 C 
ENDBRANCH   8  16
ENDBRANCH   1   9
BRANCH   6  20
ATOM     20  O   UNL     1       4.418   3.246  18.543  0.00  0.00    +0.000 OA
BRANCH  20  21
ATOM     21  C   UNL     1       5.281   4.389  18.426  0.00  0.00    +0.000 C 
BRANCH  21  22
ATOM     22  C   UNL     1       5.754   4.512  17.000  0.00  0.00    +0.000 A 
ATOM     23  C   UNL     1       4.854   4.333  15.941  0.00  0.00    +0.000 A 
ATOM     24  C   UNL     1       5.290   4.421  14.619  0.00  0.00    +0.000 A 
ATOM     25  C   UNL     1       6.628   4.695  14.342  0.00  0.00    +0.000 A 
ATOM     26  C   UNL     1       7.530   4.890  15.387  0.00  0.00    +0.000 A 
ATOM     27  C   UNL     1       7.095   4.800  16.712  0.00  0.00    +0.000 A 
ENDBRANCH  21  22
ENDBRANCH  20  21
ENDBRANCH   6  20
TORSDOF 5
ENDMDL
MODEL 4
REMARK VINA RESULT:      -7.6      2.014      4.502
REMARK  Name = 
REMARK  7 active torsions:
REMARK  status: ('A' for Active; 'I' for Inactive)
REMARK    1  A    between atoms: C_1  and  C_2
REMARK    2  A    between atoms: C_5  and  N_6
REMARK    3  A    between atoms: C_7  and  C_9
REMARK    4  A    between atoms: C_14  and  O_16
REMARK    5  A    between atoms: O_16  and  C_17
REMARK    6  A    between atoms: C_17  and  C_18
REMARK    7  A    between atoms: C_25  and  C_26
REMARK                            x       y       z     vdW  Elec       q    Type
REMARK                         _______ _______ _______ _____ _____    ______ ____
ROOT
ATOM      1  C   UNL     1       3.213   3.891  18.685  0.00  0.00    +0.000 C 
ATOM      2  C   UNL     1       2.572   3.234  19.913  0.00  0.00    +0.000 C 
ATOM      3  C   UNL     1       3.603   2.209  20.351  0.00  0.00    +0.000 C 
ATOM      4  C   UNL     1       4.937   2.840  19.978  0.00  0.00    +0.000 C 
ATOM      5  N   UNL     1       4.627   3.930  19.066  0.00  0.00    +0.000 N 
ATOM      6  C   UNL     1       5.648   4.423  18.281  0.00  0.00    +0.000 C 
ATOM      7  O   UNL     1       6.829   4.179  18.491  0.00  0.00    +0.000 OA
ENDROOT
BRANCH   1   9
ATOM      8  N   UNL     1       2.807   6.293  19.105  0.00  0.00    +0.000 N 
ATOM      9  C   UNL     1       2.421   5.174  18.390  0.00  0.00    +0.000 C 
ATOM     10  O   UNL     1       1.440   5.104  17.644  0.00  0.00    +0.000 OA
ATOM     11  H   UNL     1       3.722   6.241  19.540  0.00  0.00    +0.000 HD
BRANCH   8  16
ATOM     12  C   UNL     1       0.794  11.659  18.922  0.00  0.00    +0.000 C 
ATOM     13  C   UNL     1       1.211  10.214  18.947  0.00  0.00    +0.000 A 
ATOM     14  C   UNL     1       1.863   9.677  17.831  0.00  0.00    +0.000 A 
ATOM     15  C   UNL     1       2.360   8.373  17.851  0.00  0.00    +0.000 A 
ATOM     16  C   UNL     1       2.217   7.572  18.985  0.00  0.00    +0.000 A 
ATOM     17  C   UNL     1       1.493   8.073  20.072  0.00  0.00    +0.000 A 
ATOM     18  C   UNL     1       1.023   9.402  20.083  0.00  0.00    +0.000 A 
ATOM     19  C   UNL     1       0.347   9.933  21.316  0.00  0.00    +0.000 C 
ENDBRANCH   8  16
ENDBRANCH   1   9
BRANCH   6  20
ATOM     20  O   UNL     1       5.199   5.255  17.313  0.00  0.00    +0.000 OA
BRANCH  20  21
ATOM     21  C   UNL     1       6.200   5.886  16.500  0.00  0.00    +0.000 C 
BRANCH  21  22
ATOM     22  C   UNL     1       6.272   5.188  15.166  0.00  0.00    +0.000 A 
ATOM     23  C   UNL     1       5.232   4.343  14.757  0.00  0.00    +0.000 A 
ATOM     24  C   UNL     1       5.302   3.674  13.534  0.00  0.00    +0.000 A 
ATOM     25  C   UNL     1       6.409   3.850  12.706  0.00  0.00    +0.000 A 
ATOM     26  C   UNL     1       7.443   4.701  13.094  0.00  0.00    +0.000 A 
ATOM     27  C   UNL     1       7.375   5.368  14.320  0.00  0.00    +0.000 A 
ENDBRANCH  21  22
ENDBRANCH  20  21
ENDBRANCH   6  20
TORSDOF 5
ENDMDL
MODEL 5
REMARK VINA RESULT:      -7.5      1.771      4.303
REMARK  Name = 
REMARK  7 active torsions:
REMARK  status: ('A' for Active; 'I' for Inactive)
REMARK    1  A    between atoms: C_1  and  C_2
REMARK    2  A    between atoms: C_5  and  N_6
REMARK    3  A    between atoms: C_7  and  C_9
REMARK    4  A    between atoms: C_14  and  O_16
REMARK    5  A    between atoms: O_16  and  C_17
REMARK    6  A    between atoms: C_17  and  C_18
REMARK    7  A    between atoms: C_25  and  C_26
REMARK                            x       y       z     vdW  Elec       q    Type
REMARK                         _______ _______ _______ _____ _____    ______ ____
ROOT
ATOM      1  C   UNL     1       3.361   4.338  18.430  0.00  0.00    +0.000 C 
ATOM      2  C   UNL     1       2.514   3.155  18.911  0.00  0.00    +0.000 C 
ATOM      3  C   UNL     1       3.541   2.085  19.237  0.00  0.00    +0.000 C 
ATOM      4  C   UNL     1       4.755   2.870  19.714  0.00  0.00    +0.000 C 
ATOM      5  N   UNL     1       4.531   4.248  19.307  0.00  0.00    +0.000 N 
ATOM      6  C   UNL     1       5.620   5.093  19.269  0.00  0.00    +0.000 C 
ATOM      7  O   UNL     1       6.692   4.826  19.796  0.00  0.00    +0.000 OA
ENDROOT
BRANCH   1   9
ATOM      8  N   UNL     1       2.668   6.483  19.445  0.00  0.00    +0.000 N 
ATOM      9  C   UNL     1       2.451   5.576  18.423  0.00  0.00    +0.000 C 
ATOM     10  O   UNL     1       1.530   5.628  17.604  0.00  0.00    +0.000 OA
ATOM     11  H   UNL     1       3.555   6.396  19.927  0.00  0.00    +0.000 HD
BRANCH   8  16
ATOM     12  C   UNL     1       0.150  11.537  20.446  0.00  0.00    +0.000 C 
ATOM     13  C   UNL     1       0.701  10.165  20.168  0.00  0.00    +0.000 A 
ATOM     14  C   UNL     1       1.239   9.894  18.904  0.00  0.00    +0.000 A 
ATOM     15  C   UNL     1       1.855   8.671  18.636  0.00  0.00    +0.000 A 
ATOM     16  C   UNL     1       1.948   7.687  19.622  0.00  0.00    +0.000 A 
ATOM     17  C   UNL     1       1.339   7.919  20.859  0.00  0.00    +0.000 A 
ATOM     18  C   UNL     1       0.752   9.166  21.159  0.00  0.00    +0.000 A 
ATOM     19  C   UNL     1       0.207   9.410  22.539  0.00  0.00    +0.000 C 
ENDBRANCH   8  16
ENDBRANCH   1   9
BRANCH   6  20
ATOM     20  O   UNL     1       5.341   6.265  18.653  0.00  0.00    +0.000 OA
BRANCH  20  21
ATOM     21  C   UNL     1       6.284   6.704  17.662  0.00  0.00    +0.000 C 
BRANCH  21  22
ATOM     22  C   UNL     1       6.195   5.806  16.456  0.00  0.00    +0.000 A 
ATOM     23  C   UNL     1       7.138   4.787  16.264  0.00  0.00    +0.000 A 
ATOM     24  C   UNL     1       7.076   3.968  15.136  0.00  0.00    +0.000 A 
ATOM     25  C   UNL     1       6.067   4.155  14.193  0.00  0.00    +0.000 A 
ATOM     26  C   UNL     1       5.114   5.154  14.380  0.00  0.00    +0.000 A 
ATOM     27  C   UNL     1       5.176   5.977  15.508  0.00  0.00    +0.000 A 
ENDBRANCH  21  22
ENDBRANCH  20  21
ENDBRANCH   6  20
TORSDOF 5
ENDMDL
MODEL 6
REMARK VINA RESULT:      -7.4      1.882      4.423
REMARK  Name = 
REMARK  7 active torsions:
REMARK  status: ('A' for Active; 'I' for Inactive)
REMARK    1  A    between atoms: C_1  and  C_2
REMARK    2  A    between atoms: C_5  and  N_6
REMARK    3  A    between atoms: C_7  and  C_9
REMARK    4  A    between atoms: C_14  and  O_16
REMARK    5  A    between atoms: O_16  and  C_17
REMARK    6  A    between atoms: C_17  and  C_18
REMARK    7  A    between atoms: C_25  and  C_26
REMARK                            x       y       z     vdW  Elec       q    Type
REMARK                         _______ _______ _______ _____ _____    ______ ____
ROOT
ATOM      1  C   UNL     1       2.233   4.006  18.753  0.00  0.00    +0.000 C 
ATOM      2  C   UNL     1       1.079   3.008  18.609  0.00  0.00    +0.000 C 
ATOM      3  C   UNL     1       1.762   1.733  18.145  0.00  0.00    +0.000 C 
ATOM      4  C   UNL     1       3.131   1.783  18.807  0.00  0.00    +0.000 C 
ATOM      5  N   UNL     1       3.308   3.153  19.265  0.00  0.00    +0.000 N 
ATOM      6  C   UNL     1       4.589   3.574  19.553  0.00  0.00    +0.000 C 
ATOM      7  O   UNL     1       5.530   2.805  19.693  0.00  0.00    +0.000 OA
ENDROOT
BRANCH   1   9
ATOM      8  N   UNL     1       2.187   6.441  19.175  0.00  0.00    +0.000 N 
ATOM      9  C   UNL     1       1.701   5.203  19.556  0.00  0.00    +0.000 C 
ATOM     10  O   UNL     1       0.987   4.986  20.539  0.00  0.00    +0.000 OA
ATOM     11  H   UNL     1       2.619   6.479  18.258  0.00  0.00    +0.000 HD
BRANCH   8  16
ATOM     12  C   UNL     1       0.238  11.326  21.459  0.00  0.00    +0.000 C 
ATOM     13  C   UNL     1       0.857  10.097  20.852  0.00  0.00    +0.000 A 
ATOM     14  C   UNL     1       1.194   9.025  21.686  0.00  0.00    +0.000 A 
ATOM     15  C   UNL     1       1.672   7.827  21.154  0.00  0.00    +0.000 A 
ATOM     16  C   UNL     1       1.827   7.670  19.775  0.00  0.00    +0.000 A 
ATOM     17  C   UNL     1       1.572   8.764  18.943  0.00  0.00    +0.000 A 
ATOM     18  C   UNL     1       1.047   9.965  19.462  0.00  0.00    +0.000 A 
ATOM     19  C   UNL     1       0.684  11.078  18.518  0.00  0.00    +0.000 C 
ENDBRANCH   8  16
ENDBRANCH   1   9
BRANCH   6  20
ATOM     20  O   UNL     1       4.662   4.913  19.733  0.00  0.00    +0.000 OA
BRANCH  20  21
ATOM     21  C   UNL     1       5.876   5.549  19.302  0.00  0.00    +0.000 C 
BRANCH  21  22
ATOM     22  C   UNL     1       5.974   5.471  17.800  0.00  0.00    +0.000 A 
ATOM     23  C   UNL     1       5.065   6.175  16.998  0.00  0.00    +0.000 A 
ATOM     24  C   UNL     1       5.134   6.088  15.607  0.00  0.00    +0.000 A 
ATOM     25  C   UNL     1       6.114   5.302  15.005  0.00  0.00    +0.000 A 
ATOM     26  C   UNL     1       7.033   4.610  15.791  0.00  0.00    +0.000 A 
ATOM     27  C   UNL     1       6.964   4.694  17.184  0.00  0.00    +0.000 A 
ENDBRANCH  21  22
ENDBRANCH  20  21
ENDBRANCH   6  20
TORSDOF 5
ENDMDL
MODEL 7
REMARK VINA RESULT:      -7.4      1.934      4.530
REMARK  Name = 
REMARK  7 active torsions:
REMARK  status: ('A' for Active; 'I' for Inactive)
REMARK    1  A    between atoms: C_1  and  C_2
REMARK    2  A    between atoms: C_5  and  N_6
REMARK    3  A    between atoms: C_7  and  C_9
REMARK    4  A    between atoms: C_14  and  O_16
REMARK    5  A    between atoms: O_16  and  C_17
REMARK    6  A    between atoms: C_17  and  C_18
REMARK    7  A    between atoms: C_25  and  C_26
REMARK                            x       y       z     vdW  Elec       q    Type
REMARK                         _______ _______ _______ _____ _____    ______ ____
ROOT
ATOM      1  C   UNL     1       2.859   5.307  18.056  0.00  0.00    +0.000 C 
ATOM      2  C   UNL     1       1.469   4.690  17.863  0.00  0.00    +0.000 C 
ATOM      3  C   UNL     1       1.746   3.200  17.767  0.00  0.00    +0.000 C 
ATOM      4  C   UNL     1       2.958   2.989  18.663  0.00  0.00    +0.000 C 
ATOM      5  N   UNL     1       3.516   4.311  18.905  0.00  0.00    +0.000 N 
ATOM      6  C   UNL     1       4.815   4.387  19.360  0.00  0.00    +0.000 C 
ATOM      7  O   UNL     1       5.424   3.425  19.810  0.00  0.00    +0.000 OA
ENDROOT
BRANCH   1   9
ATOM      8  N   UNL     1       1.776   6.924  19.580  0.00  0.00    +0.000 N 
ATOM      9  C   UNL     1       2.652   6.756  18.523  0.00  0.00    +0.000 C 
ATOM     10  O   UNL     1       3.172   7.666  17.872  0.00  0.00    +0.000 OA
ATOM     11  H   UNL     1       1.567   6.088  20.114  0.00  0.00    +0.000 HD
BRANCH   8  16
ATOM     12  C   UNL     1      -0.055  11.867  21.839  0.00  0.00    +0.000 C 
ATOM     13  C   UNL     1       0.532  10.622  21.230  0.00  0.00    +0.000 A 
ATOM     14  C   UNL     1       0.926   9.576  22.072  0.00  0.00    +0.000 A 
ATOM     15  C   UNL     1       1.376   8.365  21.546  0.00  0.00    +0.000 A 
ATOM     16  C   UNL     1       1.446   8.169  20.166  0.00  0.00    +0.000 A 
ATOM     17  C   UNL     1       1.134   9.238  19.321  0.00  0.00    +0.000 A 
ATOM     18  C   UNL     1       0.637  10.452  19.836  0.00  0.00    +0.000 A 
ATOM     19  C   UNL     1       0.209  11.535  18.885  0.00  0.00    +0.000 C 
ENDBRANCH   8  16
ENDBRANCH   1   9
BRANCH   6  20
ATOM     20  O   UNL     1       5.302   5.649  19.319  0.00  0.00    +0.000 OA
BRANCH  20  21
ATOM     21  C   UNL     1       6.576   5.819  18.677  0.00  0.00    +0.000 C 
BRANCH  21  22
ATOM     22  C   UNL     1       6.439   5.507  17.209  0.00  0.00    +0.000 A 
ATOM     23  C   UNL     1       5.623   6.302  16.392  0.00  0.00    +0.000 A 
ATOM     24  C   UNL     1       5.472   6.004  15.038  0.00  0.00    +0.000 A 
ATOM     25  C   UNL     1       6.140   4.914  14.484  0.00  0.00    +0.000 A 
ATOM     26  C   UNL     1       6.967   4.125  15.282  0.00  0.00    +0.000 A 
ATOM     27  C   UNL     1       7.117   4.420  16.640  0.00  0.00    +0.000 A 
ENDBRANCH  21  22
ENDBRANCH  20  21
ENDBRANCH   6  20
TORSDOF 5
ENDMDL
MODEL 8
REMARK VINA RESULT:      -7.3      1.841      4.277
REMARK  Name = 
REMARK  7 active torsions:
REMARK  status: ('A' for Active; 'I' for Inactive)
REMARK    1  A    between atoms: C_1  and  C_2
REMARK    2  A    between atoms: C_5  and  N_6
REMARK    3  A    between atoms: C_7  and  C_9
REMARK    4  A    between atoms: C_14  and  O_16
REMARK    5  A    between atoms: O_16  and  C_17
REMARK    6  A    between atoms: C_17  and  C_18
REMARK    7  A    between atoms: C_25  and  C_26
REMARK                            x       y       z     vdW  Elec       q    Type
REMARK                         _______ _______ _______ _____ _____    ______ ____
ROOT
ATOM      1  C   UNL     1       2.353   4.409  18.669  0.00  0.00    +0.000 C 
ATOM      2  C   UNL     1       1.074   3.565  18.697  0.00  0.00    +0.000 C 
ATOM      3  C   UNL     1       1.576   2.145  18.504  0.00  0.00    +0.000 C 
ATOM      4  C   UNL     1       2.944   2.141  19.171  0.00  0.00    +0.000 C 
ATOM      5  N   UNL     1       3.306   3.537  19.358  0.00  0.00    +0.000 N 
ATOM      6  C   UNL     1       4.634   3.832  19.585  0.00  0.00    +0.000 C 
ATOM      7  O   UNL     1       5.465   2.986  19.890  0.00  0.00    +0.000 OA
ENDROOT
BRANCH   1   9
ATOM      8  N   UNL     1       2.125   6.846  18.318  0.00  0.00    +0.000 N 
ATOM      9  C   UNL     1       1.992   5.800  19.214  0.00  0.00    +0.000 C 
ATOM     10  O   UNL     1       1.730   5.915  20.414  0.00  0.00    +0.000 OA
ATOM     11  H   UNL     1       2.178   6.581  17.341  0.00  0.00    +0.000 HD
BRANCH   8  16
ATOM     12  C   UNL     1       1.385  12.328  19.828  0.00  0.00    +0.000 C 
ATOM     13  C   UNL     1       1.463  10.887  19.403  0.00  0.00    +0.000 A 
ATOM     14  C   UNL     1       2.004  10.577  18.150  0.00  0.00    +0.000 A 
ATOM     15  C   UNL     1       2.192   9.251  17.760  0.00  0.00    +0.000 A 
ATOM     16  C   UNL     1       1.842   8.200  18.610  0.00  0.00    +0.000 A 
ATOM     17  C   UNL     1       1.224   8.501  19.827  0.00  0.00    +0.000 A 
ATOM     18  C   UNL     1       1.068   9.836  20.253  0.00  0.00    +0.000 A 
ATOM     19  C   UNL     1       0.498  10.111  21.618  0.00  0.00    +0.000 C 
ENDBRANCH   8  16
ENDBRANCH   1   9
BRANCH   6  20
ATOM     20  O   UNL     1       4.888   5.159  19.503  0.00  0.00    +0.000 OA
BRANCH  20  21
ATOM     21  C   UNL     1       6.180   5.530  18.995  0.00  0.00    +0.000 C 
BRANCH  21  22
ATOM     22  C   UNL     1       6.182   5.398  17.494  0.00  0.00    +0.000 A 
ATOM     23  C   UNL     1       5.267   6.126  16.721  0.00  0.00    +0.000 A 
ATOM     24  C   UNL     1       5.247   5.990  15.333  0.00  0.00    +0.000 A 
ATOM     25  C   UNL     1       6.144   5.130  14.703  0.00  0.00    +0.000 A 
ATOM     26  C   UNL     1       7.070   4.412  15.460  0.00  0.00    +0.000 A 
ATOM     27  C   UNL     1       7.090   4.546  16.850  0.00  0.00    +0.000 A 
ENDBRANCH  21  22
ENDBRANCH  20  21
ENDBRANCH   6  20
TORSDOF 5
ENDMDL
MODEL 9
REMARK VINA RESULT:      -7.2      1.931      4.343
REMARK  Name = 
REMARK  7 active torsions:
REMARK  status: ('A' for Active; 'I' for Inactive)
REMARK    1  A    between atoms: C_1  and  C_2
REMARK    2  A    between atoms: C_5  and  N_6
REMARK    3  A    between atoms: C_7  and  C_9
REMARK    4  A    between atoms: C_14  and  O_16
REMARK    5  A    between atoms: O_16  and  C_17
REMARK    6  A    between atoms: C_17  and  C_18
REMARK    7  A    between atoms: C_25  and  C_26
REMARK                            x       y       z     vdW  Elec       q    Type
REMARK                         _______ _______ _______ _____ _____    ______ ____
ROOT
ATOM      1  C   UNL     1       2.658   4.950  18.308  0.00  0.00    +0.000 C 
ATOM      2  C   UNL     1       1.327   4.229  18.068  0.00  0.00    +0.000 C 
ATOM      3  C   UNL     1       1.741   2.797  17.776  0.00  0.00    +0.000 C 
ATOM      4  C   UNL     1       2.997   2.596  18.612  0.00  0.00    +0.000 C 
ATOM      5  N   UNL     1       3.434   3.925  19.009  0.00  0.00    +0.000 N 
ATOM      6  C   UNL     1       4.736   4.071  19.442  0.00  0.00    +0.000 C 
ATOM      7  O   UNL     1       5.447   3.125  19.752  0.00  0.00    +0.000 OA
ENDROOT
BRANCH   1   9
ATOM      8  N   UNL     1       2.115   7.351  18.086  0.00  0.00    +0.000 N 
ATOM      9  C   UNL     1       2.331   6.302  18.961  0.00  0.00    +0.000 C 
ATOM     10  O   UNL     1       2.396   6.396  20.190  0.00  0.00    +0.000 OA
ATOM     11  H   UNL     1       1.924   7.089  17.126  0.00  0.00    +0.000 HD
BRANCH   8  16
ATOM     12  C   UNL     1       1.198  12.671  20.020  0.00  0.00    +0.000 C 
ATOM     13  C   UNL     1       1.326  11.276  19.472  0.00  0.00    +0.000 A 
ATOM     14  C   UNL     1       1.993  11.083  18.257  0.00  0.00    +0.000 A 
ATOM     15  C   UNL     1       2.226   9.798  17.765  0.00  0.00    +0.000 A 
ATOM     16  C   UNL     1       1.797   8.674  18.474  0.00  0.00    +0.000 A 
ATOM     17  C   UNL     1       1.057   8.862  19.645  0.00  0.00    +0.000 A 
ATOM     18  C   UNL     1       0.852  10.152  20.176  0.00  0.00    +0.000 A 
ATOM     19  C   UNL     1       0.147  10.300  21.496  0.00  0.00    +0.000 C 
ENDBRANCH   8  16
ENDBRANCH   1   9
BRANCH   6  20
ATOM     20  O   UNL     1       5.099   5.370  19.552  0.00  0.00    +0.000 OA
BRANCH  20  21
ATOM     21  C   UNL     1       6.351   5.735  18.948  0.00  0.00    +0.000 C 
BRANCH  21  22
ATOM     22  C   UNL     1       6.265   5.526  17.458  0.00  0.00    +0.000 A 
ATOM     23  C   UNL     1       7.082   4.575  16.832  0.00  0.00    +0.000 A 
ATOM     24  C   UNL     1       7.026   4.394  15.450  0.00  0.00    +0.000 A 
ATOM     25  C   UNL     1       6.149   5.156  14.681  0.00  0.00    +0.000 A 
ATOM     26  C   UNL     1       5.319   6.094  15.294  0.00  0.00    +0.000 A 
ATOM     27  C   UNL     1       5.376   6.278  16.678  0.00  0.00    +0.000 A 
ENDBRANCH  21  22
ENDBRANCH  20  21
ENDBRANCH   6  20
TORSDOF 5
ENDMDL
