MODEL 1
REMARK VINA RESULT:      -8.1      0.000      0.000
REMARK  Name = 
REMARK  9 active torsions:
REMARK  status: ('A' for Active; 'I' for Inactive)
REMARK    1  A    between atoms: C_1  and  C_2
REMARK    2  A    between atoms: C_5  and  S_6
REMARK    3  A    between atoms: S_6  and  C_7
REMARK    4  A    between atoms: C_7  and  C_8
REMARK    5  A    between atoms: C_7  and  C_14
REMARK    6  A    between atoms: C_14  and  C_15
REMARK    7  A    between atoms: C_14  and  C_21
REMARK    8  A    between atoms: C_15  and  N_16
REMARK    9  A    between atoms: C_21  and  C_23
REMARK                            x       y       z     vdW  Elec       q    Type
REMARK                         _______ _______ _______ _____ _____    ______ ____
ROOT
ATOM      1  C   UNL     1       2.250   6.374  18.484  0.00  0.00    +0.000 C 
ENDROOT
BRANCH   1   2
ATOM      2  C   UNL     1       1.714   5.019  18.959  0.00  0.00    +0.000 A 
ATOM      3  C   UNL     1       1.466   3.944  18.084  0.00  0.00    +0.000 A 
ATOM      4  C   UNL     1       1.136   2.676  18.561  0.00  0.00    +0.000 A 
ATOM      5  C   UNL     1       1.017   2.462  19.927  0.00  0.00    +0.000 A 
ATOM      6  C   UNL     1       1.211   3.521  20.813  0.00  0.00    +0.000 A 
ATOM      7  C   UNL     1       1.562   4.785  20.336  0.00  0.00    +0.000 A 
ENDBRANCH   1   2
BRANCH   1   8
ATOM      8  S   UNL     1       4.124   6.477  18.496  0.00  0.00    +0.000 S 
BRANCH   8  13
ATOM      9  C   UNL     1       6.368   3.798  13.463  0.00  0.00    +0.000 C 
ATOM     10  C   UNL     1       5.876   4.434  14.730  0.00  0.00    +0.000 A 
ATOM     11  C   UNL     1       5.569   3.656  15.847  0.00  0.00    +0.000 A 
ATOM     12  C   UNL     1       5.061   4.239  17.019  0.00  0.00    +0.000 A 
ATOM     13  C   UNL     1       4.811   5.607  17.096  0.00  0.00    +0.000 A 
ATOM     14  C   UNL     1       5.136   6.385  15.970  0.00  0.00    +0.000 A 
ATOM     15  C   UNL     1       5.657   5.812  14.802  0.00  0.00    +0.000 A 
ENDBRANCH   8  13
ENDBRANCH   1   8
BRANCH   1  16
ATOM     16  C   UNL     1       1.564   7.634  19.091  0.00  0.00    +0.000 C 
BRANCH  16  17
ATOM     17  C   UNL     1       1.645   8.828  18.129  0.00  0.00    +0.000 C 
ATOM     18  O   UNL     1       2.501   8.883  17.245  0.00  0.00    +0.000 OA
BRANCH  17  19
ATOM     19  C   UNL     1       0.745  10.014  18.322  0.00  0.00    +0.000 A 
ATOM     20  C   UNL     1       1.213  11.261  18.754  0.00  0.00    +0.000 A 
ATOM     21  C   UNL     1       0.353  12.361  18.798  0.00  0.00    +0.000 A 
ATOM     22  C   UNL     1      -0.982  12.223  18.426  0.00  0.00    +0.000 A 
ATOM     23  C   UNL     1      -1.471  10.975  18.050  0.00  0.00    +0.000 A 
ATOM     24  C   UNL     1      -0.615   9.873  18.005  0.00  0.00    +0.000 A 
ENDBRANCH  17  19
ENDBRANCH  16  17
BRANCH  16  25
ATOM     25  C   UNL     1       2.124   8.122  20.440  0.00  0.00    +0.000 C 
BRANCH  25  26
ATOM     26  N   UNL     1       1.147   8.623  21.384  0.00  0.00    +0.000 N 
ATOM     27  C   UNL     1      -0.182   8.334  21.448  0.00  0.00    +0.000 A 
ATOM     28  N   UNL     1      -0.705   8.902  22.510  0.00  0.00    +0.000 NA
ATOM     29  C   UNL     1       0.364   9.542  23.067  0.00  0.00    +0.000 A 
ATOM     30  N   UNL     1       1.524   9.382  22.426  0.00  0.00    +0.000 NA
ENDBRANCH  25  26
ENDBRANCH  16  25
ENDBRANCH   1  16
TORSDOF 8
ENDMDL
MODEL 2
REMARK VINA RESULT:      -8.0      0.608      1.069
REMARK  Name = 
REMARK  9 active torsions:
REMARK  status: ('A' for Active; 'I' for Inactive)
REMARK    1  A    between atoms: C_1  and  C_2
REMARK    2  A    between atoms: C_5  and  S_6
REMARK    3  A    between atoms: S_6  and  C_7
REMARK    4  A    between atoms: C_7  and  C_8
REMARK    5  A    between atoms: C_7  and  C_14
REMARK    6  A    between atoms: C_14  and  C_15
REMARK    7  A    between atoms: C_14  and  C_21
REMARK    8  A    between atoms: C_15  and  N_16
REMARK    9  A    between atoms: C_21  and  C_23
REMARK                            x       y       z     vdW  Elec       q    Type
REMARK                         _______ _______ _______ _____ _____    ______ ____
ROOT
ATOM      1  C   UNL     1       2.452   6.287  18.705  0.00  0.00    +0.000 C 
ENDROOT
BRANCH   1   2
ATOM      2  C   UNL     1       1.799   4.942  19.039  0.00  0.00    +0.000 A 
ATOM      3  C   UNL     1       1.557   3.946  18.073  0.00  0.00    +0.000 A 
ATOM      4  C   UNL     1       1.115   2.674  18.431  0.00  0.00    +0.000 A 
ATOM      5  C   UNL     1       0.876   2.376  19.766  0.00  0.00    +0.000 A 
ATOM      6  C   UNL     1       1.062   3.358  20.737  0.00  0.00    +0.000 A 
ATOM      7  C   UNL     1       1.525   4.626  20.381  0.00  0.00    +0.000 A 
ENDBRANCH   1   2
BRANCH   1   8
ATOM      8  S   UNL     1       4.292   6.333  19.074  0.00  0.00    +0.000 S 
BRANCH   8  13
ATOM      9  C   UNL     1       7.195   4.528  13.990  0.00  0.00    +0.000 C 
ATOM     10  C   UNL     1       6.542   5.005  15.254  0.00  0.00    +0.000 A 
ATOM     11  C   UNL     1       7.015   4.595  16.501  0.00  0.00    +0.000 A 
ATOM     12  C   UNL     1       6.379   4.997  17.686  0.00  0.00    +0.000 A 
ATOM     13  C   UNL     1       5.232   5.787  17.658  0.00  0.00    +0.000 A 
ATOM     14  C   UNL     1       4.771   6.207  16.397  0.00  0.00    +0.000 A 
ATOM     15  C   UNL     1       5.410   5.822  15.211  0.00  0.00    +0.000 A 
ENDBRANCH   8  13
ENDBRANCH   1   8
BRANCH   1  16
ATOM     16  C   UNL     1       1.697   7.557  19.196  0.00  0.00    +0.000 C 
BRANCH  16  17
ATOM     17  C   UNL     1       1.783   8.690  18.163  0.00  0.00    +0.000 C 
ATOM     18  O   UNL     1       2.657   8.702  17.296  0.00  0.00    +0.000 OA
BRANCH  17  19
ATOM     19  C   UNL     1       0.864   9.873  18.264  0.00  0.00    +0.000 A 
ATOM     20  C   UNL     1      -0.512   9.790  18.023  0.00  0.00    +0.000 A 
ATOM     21  C   UNL     1      -1.337  10.895  18.251  0.00  0.00    +0.000 A 
ATOM     22  C   UNL     1      -0.793  12.093  18.707  0.00  0.00    +0.000 A 
ATOM     23  C   UNL     1       0.582  12.204  18.895  0.00  0.00    +0.000 A 
ATOM     24  C   UNL     1       1.409  11.102  18.667  0.00  0.00    +0.000 A 
ENDBRANCH  17  19
ENDBRANCH  16  17
BRANCH  16  25
ATOM     25  C   UNL     1       2.177   8.150  20.535  0.00  0.00    +0.000 C 
BRANCH  25  26
ATOM     26  N   UNL     1       1.137   8.642  21.415  0.00  0.00    +0.000 N 
ATOM     27  C   UNL     1      -0.171   8.268  21.458  0.00  0.00    +0.000 A 
ATOM     28  N   UNL     1      -0.766   8.865  22.465  0.00  0.00    +0.000 NA
ATOM     29  C   UNL     1       0.239   9.610  23.011  0.00  0.00    +0.000 A 
ATOM     30  N   UNL     1       1.428   9.489  22.415  0.00  0.00    +0.000 NA
ENDBRANCH  25  26
ENDBRANCH  16  25
ENDBRANCH   1  16
TORSDOF 8
ENDMDL
MODEL 3
REMARK VINA RESULT:      -7.9      3.540      7.624
REMARK  Name = 
REMARK  9 active torsions:
REMARK  status: ('A' for Active; 'I' for Inactive)
REMARK    1  A    between atoms: C_1  and  C_2
REMARK    2  A    between atoms: C_5  and  S_6
REMARK    3  A    between atoms: S_6  and  C_7
REMARK    4  A    between atoms: C_7  and  C_8
REMARK    5  A    between atoms: C_7  and  C_14
REMARK    6  A    between atoms: C_14  and  C_15
REMARK    7  A    between atoms: C_14  and  C_21
REMARK    8  A    between atoms: C_15  and  N_16
REMARK    9  A    between atoms: C_21  and  C_23
REMARK                            x       y       z     vdW  Elec       q    Type
REMARK                         _______ _______ _______ _____ _____    ______ ____
ROOT
ATOM      1  C   UNL     1       5.254   6.120  17.752  0.00  0.00    +0.000 C 
ENDROOT
BRANCH   1   2
ATOM      2  C   UNL     1       4.793   4.687  18.038  0.00  0.00    +0.000 A 
ATOM      3  C   UNL     1       5.128   3.995  19.218  0.00  0.00    +0.000 A 
ATOM      4  C   UNL     1       4.562   2.759  19.525  0.00  0.00    +0.000 A 
ATOM      5  C   UNL     1       3.668   2.170  18.641  0.00  0.00    +0.000 A 
ATOM      6  C   UNL     1       3.356   2.812  17.444  0.00  0.00    +0.000 A 
ATOM      7  C   UNL     1       3.906   4.060  17.147  0.00  0.00    +0.000 A 
ENDBRANCH   1   2
BRANCH   1   8
ATOM      8  S   UNL     1       3.973   7.146  16.842  0.00  0.00    +0.000 S 
BRANCH   8  13
ATOM      9  C   UNL     1       0.050   9.390  20.979  0.00  0.00    +0.000 C 
ATOM     10  C   UNL     1       1.049   8.899  19.973  0.00  0.00    +0.000 A 
ATOM     11  C   UNL     1       1.223   9.561  18.757  0.00  0.00    +0.000 A 
ATOM     12  C   UNL     1       2.120   9.078  17.791  0.00  0.00    +0.000 A 
ATOM     13  C   UNL     1       2.839   7.903  17.995  0.00  0.00    +0.000 A 
ATOM     14  C   UNL     1       2.667   7.250  19.229  0.00  0.00    +0.000 A 
ATOM     15  C   UNL     1       1.785   7.734  20.204  0.00  0.00    +0.000 A 
ENDBRANCH   8  13
ENDBRANCH   1   8
BRANCH   1  16
ATOM     16  C   UNL     1       6.690   6.275  17.168  0.00  0.00    +0.000 C 
BRANCH  16  17
ATOM     17  C   UNL     1       7.164   4.975  16.504  0.00  0.00    +0.000 C 
ATOM     18  O   UNL     1       7.792   4.124  17.134  0.00  0.00    +0.000 OA
BRANCH  17  19
ATOM     19  C   UNL     1       6.966   4.766  15.030  0.00  0.00    +0.000 A 
ATOM     20  C   UNL     1       7.732   5.423  14.060  0.00  0.00    +0.000 A 
ATOM     21  C   UNL     1       7.589   5.098  12.708  0.00  0.00    +0.000 A 
ATOM     22  C   UNL     1       6.671   4.127  12.315  0.00  0.00    +0.000 A 
ATOM     23  C   UNL     1       5.864   3.509  13.265  0.00  0.00    +0.000 A 
ATOM     24  C   UNL     1       6.004   3.831  14.617  0.00  0.00    +0.000 A 
ENDBRANCH  17  19
ENDBRANCH  16  17
BRANCH  16  25
ATOM     25  C   UNL     1       7.786   6.675  18.175  0.00  0.00    +0.000 C 
BRANCH  25  26
ATOM     26  N   UNL     1       8.087   8.090  18.248  0.00  0.00    +0.000 N 
ATOM     27  C   UNL     1       8.915   8.727  19.121  0.00  0.00    +0.000 A 
ATOM     28  N   UNL     1       9.007   9.995  18.795  0.00  0.00    +0.000 NA
ATOM     29  C   UNL     1       8.197  10.085  17.700  0.00  0.00    +0.000 A 
ATOM     30  N   UNL     1       7.629   8.939  17.314  0.00  0.00    +0.000 NA
ENDBRANCH  25  26
ENDBRANCH  16  25
ENDBRANCH   1  16
TORSDOF 8
ENDMDL
MODEL 4
REMARK VINA RESULT:      -7.9      4.168      7.717
REMARK  Name = 
REMARK  9 active torsions:
REMARK  status: ('A' for Active; 'I' for Inactive)
REMARK    1  A    between atoms: C_1  and  C_2
REMARK    2  A    between atoms: C_5  and  S_6
REMARK    3  A    between atoms: S_6  and  C_7
REMARK    4  A    between atoms: C_7  and  C_8
REMARK    5  A    between atoms: C_7  and  C_14
REMARK    6  A    between atoms: C_14  and  C_15
REMARK    7  A    between atoms: C_14  and  C_21
REMARK    8  A    between atoms: C_15  and  N_16
REMARK    9  A    between atoms: C_21  and  C_23
REMARK                            x       y       z     vdW  Elec       q    Type
REMARK                         _______ _______ _______ _____ _____    ______ ____
ROOT
ATOM      1  C   UNL     1       4.642   5.220  17.660  0.00  0.00    +0.000 C 
ENDROOT
BRANCH   1   2
ATOM      2  C   UNL     1       3.742   4.129  18.251  0.00  0.00    +0.000 A 
ATOM      3  C   UNL     1       4.013   3.495  19.479  0.00  0.00    +0.000 A 
ATOM      4  C   UNL     1       3.095   2.627  20.070  0.00  0.00    +0.000 A 
ATOM      5  C   UNL     1       1.895   2.352  19.431  0.00  0.00    +0.000 A 
ATOM      6  C   UNL     1       1.623   2.930  18.192  0.00  0.00    +0.000 A 
ATOM      7  C   UNL     1       2.532   3.815  17.610  0.00  0.00    +0.000 A 
ENDBRANCH   1   2
BRANCH   1   8
ATOM      8  S   UNL     1       3.713   6.788  17.212  0.00  0.00    +0.000 S 
BRANCH   8  13
ATOM      9  C   UNL     1       0.291   9.038  21.769  0.00  0.00    +0.000 C 
ATOM     10  C   UNL     1       1.083   8.434  20.647  0.00  0.00    +0.000 A 
ATOM     11  C   UNL     1       1.702   7.192  20.797  0.00  0.00    +0.000 A 
ATOM     12  C   UNL     1       2.485   6.644  19.769  0.00  0.00    +0.000 A 
ATOM     13  C   UNL     1       2.705   7.335  18.581  0.00  0.00    +0.000 A 
ATOM     14  C   UNL     1       2.067   8.580  18.433  0.00  0.00    +0.000 A 
ATOM     15  C   UNL     1       1.270   9.127  19.448  0.00  0.00    +0.000 A 
ENDBRANCH   8  13
ENDBRANCH   1   8
BRANCH   1  16
ATOM     16  C   UNL     1       5.639   4.762  16.555  0.00  0.00    +0.000 C 
BRANCH  16  17
ATOM     17  C   UNL     1       7.094   4.974  16.996  0.00  0.00    +0.000 C 
ATOM     18  O   UNL     1       7.925   4.068  16.928  0.00  0.00    +0.000 OA
BRANCH  17  19
ATOM     19  C   UNL     1       7.507   6.270  17.632  0.00  0.00    +0.000 A 
ATOM     20  C   UNL     1       8.092   6.342  18.901  0.00  0.00    +0.000 A 
ATOM     21  C   UNL     1       8.569   7.561  19.392  0.00  0.00    +0.000 A 
ATOM     22  C   UNL     1       8.452   8.717  18.625  0.00  0.00    +0.000 A 
ATOM     23  C   UNL     1       7.821   8.668  17.386  0.00  0.00    +0.000 A 
ATOM     24  C   UNL     1       7.343   7.452  16.893  0.00  0.00    +0.000 A 
ENDBRANCH  17  19
ENDBRANCH  16  17
BRANCH  16  25
ATOM     25  C   UNL     1       5.492   5.454  15.187  0.00  0.00    +0.000 C 
BRANCH  25  26
ATOM     26  N   UNL     1       6.177   4.817  14.081  0.00  0.00    +0.000 N 
ATOM     27  C   UNL     1       5.764   3.751  13.342  0.00  0.00    +0.000 A 
ATOM     28  N   UNL     1       6.612   3.542  12.361  0.00  0.00    +0.000 NA
ATOM     29  C   UNL     1       7.544   4.521  12.553  0.00  0.00    +0.000 A 
ATOM     30  N   UNL     1       7.308   5.341  13.581  0.00  0.00    +0.000 NA
ENDBRANCH  25  26
ENDBRANCH  16  25
ENDBRANCH   1  16
TORSDOF 8
ENDMDL
MODEL 5
REMARK VINA RESULT:      -7.9      0.506      1.429
REMARK  Name = 
REMARK  9 active torsions:
REMARK  status: ('A' for Active; 'I' for Inactive)
REMARK    1  A    between atoms: C_1  and  C_2
REMARK    2  A    between atoms: C_5  and  S_6
REMARK    3  A    between atoms: S_6  and  C_7
REMARK    4  A    between atoms: C_7  and  C_8
REMARK    5  A    between atoms: C_7  and  C_14
REMARK    6  A    between atoms: C_14  and  C_15
REMARK    7  A    between atoms: C_14  and  C_21
REMARK    8  A    between atoms: C_15  and  N_16
REMARK    9  A    between atoms: C_21  and  C_23
REMARK                            x       y       z     vdW  Elec       q    Type
REMARK                         _______ _______ _______ _____ _____    ______ ____
ROOT
ATOM      1  C   UNL     1       2.370   6.303  18.427  0.00  0.00    +0.000 C 
ENDROOT
BRANCH   1   2
ATOM      2  C   UNL     1       1.909   4.937  18.947  0.00  0.00    +0.000 A 
ATOM      3  C   UNL     1       1.696   4.669  20.313  0.00  0.00    +0.000 A 
ATOM      4  C   UNL     1       1.122   3.473  20.741  0.00  0.00    +0.000 A 
ATOM      5  C   UNL     1       0.773   2.503  19.812  0.00  0.00    +0.000 A 
ATOM      6  C   UNL     1       1.016   2.724  18.457  0.00  0.00    +0.000 A 
ATOM      7  C   UNL     1       1.572   3.930  18.027  0.00  0.00    +0.000 A 
ENDBRANCH   1   2
BRANCH   1   8
ATOM      8  S   UNL     1       4.237   6.473  18.334  0.00  0.00    +0.000 S 
BRANCH   8  13
ATOM      9  C   UNL     1       6.329   3.669  13.305  0.00  0.00    +0.000 C 
ATOM     10  C   UNL     1       5.876   4.337  14.570  0.00  0.00    +0.000 A 
ATOM     11  C   UNL     1       5.614   3.589  15.718  0.00  0.00    +0.000 A 
ATOM     12  C   UNL     1       5.142   4.201  16.890  0.00  0.00    +0.000 A 
ATOM     13  C   UNL     1       4.882   5.568  16.937  0.00  0.00    +0.000 A 
ATOM     14  C   UNL     1       5.162   6.316  15.779  0.00  0.00    +0.000 A 
ATOM     15  C   UNL     1       5.647   5.715  14.610  0.00  0.00    +0.000 A 
ENDBRANCH   8  13
ENDBRANCH   1   8
BRANCH   1  16
ATOM     16  C   UNL     1       1.672   7.547  19.055  0.00  0.00    +0.000 C 
BRANCH  16  17
ATOM     17  C   UNL     1       1.709   8.747  18.098  0.00  0.00    +0.000 C 
ATOM     18  O   UNL     1       2.589   8.859  17.243  0.00  0.00    +0.000 OA
BRANCH  17  19
ATOM     19  C   UNL     1       0.731   9.874  18.263  0.00  0.00    +0.000 A 
ATOM     20  C   UNL     1      -0.627   9.754  17.949  0.00  0.00    +0.000 A 
ATOM     21  C   UNL     1      -1.514  10.795  18.240  0.00  0.00    +0.000 A 
ATOM     22  C   UNL     1      -1.048  11.966  18.831  0.00  0.00    +0.000 A 
ATOM     23  C   UNL     1       0.310  12.119  19.095  0.00  0.00    +0.000 A 
ATOM     24  C   UNL     1       1.198  11.081  18.806  0.00  0.00    +0.000 A 
ENDBRANCH  17  19
ENDBRANCH  16  17
BRANCH  16  25
ATOM     25  C   UNL     1       2.251   8.038  20.395  0.00  0.00    +0.000 C 
BRANCH  25  26
ATOM     26  N   UNL     1       1.285   8.524  21.358  0.00  0.00    +0.000 N 
ATOM     27  C   UNL     1       1.477   9.434  22.352  0.00  0.00    +0.000 A 
ATOM     28  N   UNL     1       0.332   9.691  22.940  0.00  0.00    +0.000 NA
ATOM     29  C   UNL     1      -0.543   8.894  22.260  0.00  0.00    +0.000 A 
ATOM     30  N   UNL     1      -0.009   8.177  21.267  0.00  0.00    +0.000 NA
ENDBRANCH  25  26
ENDBRANCH  16  25
ENDBRANCH   1  16
TORSDOF 8
ENDMDL
MODEL 6
REMARK VINA RESULT:      -7.9      2.715      7.284
REMARK  Name = 
REMARK  9 active torsions:
REMARK  status: ('A' for Active; 'I' for Inactive)
REMARK    1  A    between atoms: C_1  and  C_2
REMARK    2  A    between atoms: C_5  and  S_6
REMARK    3  A    between atoms: S_6  and  C_7
REMARK    4  A    between atoms: C_7  and  C_8
REMARK    5  A    between atoms: C_7  and  C_14
REMARK    6  A    between atoms: C_14  and  C_15
REMARK    7  A    between atoms: C_14  and  C_21
REMARK    8  A    between atoms: C_15  and  N_16
REMARK    9  A    between atoms: C_21  and  C_23
REMARK                            x       y       z     vdW  Elec       q    Type
REMARK                         _______ _______ _______ _____ _____    ______ ____
ROOT
ATOM      1  C   UNL     1       3.794   5.615  18.427  0.00  0.00    +0.000 C 
ENDROOT
BRANCH   1   2
ATOM      2  C   UNL     1       5.267   6.021  18.306  0.00  0.00    +0.000 A 
ATOM      3  C   UNL     1       5.714   7.028  17.428  0.00  0.00    +0.000 A 
ATOM      4  C   UNL     1       7.030   7.488  17.457  0.00  0.00    +0.000 A 
ATOM      5  C   UNL     1       7.938   6.931  18.347  0.00  0.00    +0.000 A 
ATOM      6  C   UNL     1       7.532   5.901  19.193  0.00  0.00    +0.000 A 
ATOM      7  C   UNL     1       6.210   5.454  19.180  0.00  0.00    +0.000 A 
ENDBRANCH   1   2
BRANCH   1   8
ATOM      8  S   UNL     1       2.937   6.364  19.920  0.00  0.00    +0.000 S 
BRANCH   8  13
ATOM      9  C   UNL     1      -0.356  11.373  18.656  0.00  0.00    +0.000 C 
ATOM     10  C   UNL     1       0.509  10.183  18.950  0.00  0.00    +0.000 A 
ATOM     11  C   UNL     1       1.258   9.577  17.940  0.00  0.00    +0.000 A 
ATOM     12  C   UNL     1       2.030   8.433  18.199  0.00  0.00    +0.000 A 
ATOM     13  C   UNL     1       2.046   7.841  19.459  0.00  0.00    +0.000 A 
ATOM     14  C   UNL     1       1.299   8.467  20.473  0.00  0.00    +0.000 A 
ATOM     15  C   UNL     1       0.538   9.617  20.227  0.00  0.00    +0.000 A 
ENDBRANCH   8  13
ENDBRANCH   1   8
BRANCH   1  16
ATOM     16  C   UNL     1       3.483   4.101  18.237  0.00  0.00    +0.000 C 
BRANCH  16  17
ATOM     17  C   UNL     1       3.566   3.697  16.758  0.00  0.00    +0.000 C 
ATOM     18  O   UNL     1       2.679   3.032  16.223  0.00  0.00    +0.000 OA
BRANCH  17  19
ATOM     19  C   UNL     1       4.798   4.013  15.959  0.00  0.00    +0.000 A 
ATOM     20  C   UNL     1       4.763   4.736  14.762  0.00  0.00    +0.000 A 
ATOM     21  C   UNL     1       5.952   5.106  14.126  0.00  0.00    +0.000 A 
ATOM     22  C   UNL     1       7.180   4.745  14.672  0.00  0.00    +0.000 A 
ATOM     23  C   UNL     1       7.226   3.977  15.832  0.00  0.00    +0.000 A 
ATOM     24  C   UNL     1       6.040   3.604  16.470  0.00  0.00    +0.000 A 
ENDBRANCH  17  19
ENDBRANCH  16  17
BRANCH  16  25
ATOM     25  C   UNL     1       2.105   3.629  18.741  0.00  0.00    +0.000 C 
BRANCH  25  26
ATOM     26  N   UNL     1       2.078   3.086  20.084  0.00  0.00    +0.000 N 
ATOM     27  C   UNL     1       3.127   2.642  20.830  0.00  0.00    +0.000 A 
ATOM     28  N   UNL     1       2.709   2.329  22.034  0.00  0.00    +0.000 NA
ATOM     29  C   UNL     1       1.372   2.600  21.969  0.00  0.00    +0.000 A 
ATOM     30  N   UNL     1       0.943   3.087  20.802  0.00  0.00    +0.000 NA
ENDBRANCH  25  26
ENDBRANCH  16  25
ENDBRANCH   1  16
TORSDOF 8
ENDMDL
MODEL 7
REMARK VINA RESULT:      -7.7      2.724      7.286
REMARK  Name = 
REMARK  9 active torsions:
REMARK  status: ('A' for Active; 'I' for Inactive)
REMARK    1  A    between atoms: C_1  and  C_2
REMARK    2  A    between atoms: C_5  and  S_6
REMARK    3  A    between atoms: S_6  and  C_7
REMARK    4  A    between atoms: C_7  and  C_8
REMARK    5  A    between atoms: C_7  and  C_14
REMARK    6  A    between atoms: C_14  and  C_15
REMARK    7  A    between atoms: C_14  and  C_21
REMARK    8  A    between atoms: C_15  and  N_16
REMARK    9  A    between atoms: C_21  and  C_23
REMARK                            x       y       z     vdW  Elec       q    Type
REMARK                         _______ _______ _______ _____ _____    ______ ____
ROOT
ATOM      1  C   UNL     1       3.673   5.661  18.440  0.00  0.00    +0.000 C 
ENDROOT
BRANCH   1   2
ATOM      2  C   UNL     1       5.133   6.128  18.445  0.00  0.00    +0.000 A 
ATOM      3  C   UNL     1       6.118   5.554  19.272  0.00  0.00    +0.000 A 
ATOM      4  C   UNL     1       7.466   5.884  19.138  0.00  0.00    +0.000 A 
ATOM      5  C   UNL     1       7.857   6.820  18.191  0.00  0.00    +0.000 A 
ATOM      6  C   UNL     1       6.896   7.438  17.392  0.00  0.00    +0.000 A 
ATOM      7  C   UNL     1       5.549   7.092  17.511  0.00  0.00    +0.000 A 
ENDBRANCH   1   2
BRANCH   1   8
ATOM      8  S   UNL     1       2.661   6.371  19.852  0.00  0.00    +0.000 S 
BRANCH   8  13
ATOM      9  C   UNL     1       0.116  11.809  18.632  0.00  0.00    +0.000 C 
ATOM     10  C   UNL     1       0.803  10.506  18.921  0.00  0.00    +0.000 A 
ATOM     11  C   UNL     1       1.533   9.848  17.930  0.00  0.00    +0.000 A 
ATOM     12  C   UNL     1       2.136   8.605  18.180  0.00  0.00    +0.000 A 
ATOM     13  C   UNL     1       1.996   7.967  19.409  0.00  0.00    +0.000 A 
ATOM     14  C   UNL     1       1.269   8.644  20.406  0.00  0.00    +0.000 A 
ATOM     15  C   UNL     1       0.677   9.892  20.170  0.00  0.00    +0.000 A 
ENDBRANCH   8  13
ENDBRANCH   1   8
BRANCH   1  16
ATOM     16  C   UNL     1       3.442   4.135  18.227  0.00  0.00    +0.000 C 
BRANCH  16  17
ATOM     17  C   UNL     1       3.530   3.762  16.740  0.00  0.00    +0.000 C 
ATOM     18  O   UNL     1       2.627   3.139  16.180  0.00  0.00    +0.000 OA
BRANCH  17  19
ATOM     19  C   UNL     1       4.781   4.053  15.963  0.00  0.00    +0.000 A 
ATOM     20  C   UNL     1       4.778   4.752  14.751  0.00  0.00    +0.000 A 
ATOM     21  C   UNL     1       5.983   5.101  14.134  0.00  0.00    +0.000 A 
ATOM     22  C   UNL     1       7.196   4.742  14.715  0.00  0.00    +0.000 A 
ATOM     23  C   UNL     1       7.210   3.997  15.890  0.00  0.00    +0.000 A 
ATOM     24  C   UNL     1       6.009   3.646  16.509  0.00  0.00    +0.000 A 
ENDBRANCH  17  19
ENDBRANCH  16  17
BRANCH  16  25
ATOM     25  C   UNL     1       2.098   3.581  18.738  0.00  0.00    +0.000 C 
BRANCH  25  26
ATOM     26  N   UNL     1       2.090   3.113  20.109  0.00  0.00    +0.000 N 
ATOM     27  C   UNL     1       1.026   3.000  20.950  0.00  0.00    +0.000 A 
ATOM     28  N   UNL     1       1.410   2.434  22.071  0.00  0.00    +0.000 NA
ATOM     29  C   UNL     1       2.742   2.223  21.862  0.00  0.00    +0.000 A 
ATOM     30  N   UNL     1       3.200   2.601  20.666  0.00  0.00    +0.000 NA
ENDBRANCH  25  26
ENDBRANCH  16  25
ENDBRANCH   1  16
TORSDOF 8
ENDMDL
MODEL 8
REMARK VINA RESULT:      -7.7      3.878      7.506
REMARK  Name = 
REMARK  9 active torsions:
REMARK  status: ('A' for Active; 'I' for Inactive)
REMARK    1  A    between atoms: C_1  and  C_2
REMARK    2  A    between atoms: C_5  and  S_6
REMARK    3  A    between atoms: S_6  and  C_7
REMARK    4  A    between atoms: C_7  and  C_8
REMARK    5  A    between atoms: C_7  and  C_14
REMARK    6  A    between atoms: C_14  and  C_15
REMARK    7  A    between atoms: C_14  and  C_21
REMARK    8  A    between atoms: C_15  and  N_16
REMARK    9  A    between atoms: C_21  and  C_23
REMARK                            x       y       z     vdW  Elec       q    Type
REMARK                         _______ _______ _______ _____ _____    ______ ____
ROOT
ATOM      1  C   UNL     1       3.979   5.790  18.149  0.00  0.00    +0.000 C 
ENDROOT
BRANCH   1   2
ATOM      2  C   UNL     1       2.937   4.816  18.712  0.00  0.00    +0.000 A 
ATOM      3  C   UNL     1       1.893   4.278  17.935  0.00  0.00    +0.000 A 
ATOM      4  C   UNL     1       1.061   3.273  18.426  0.00  0.00    +0.000 A 
ATOM      5  C   UNL     1       1.238   2.802  19.720  0.00  0.00    +0.000 A 
ATOM      6  C   UNL     1       2.234   3.351  20.526  0.00  0.00    +0.000 A 
ATOM      7  C   UNL     1       3.080   4.342  20.027  0.00  0.00    +0.000 A 
ENDBRANCH   1   2
BRANCH   1   8
ATOM      8  S   UNL     1       3.234   7.391  17.515  0.00  0.00    +0.000 S 
BRANCH   8  13
ATOM      9  C   UNL     1      -0.402  10.245  21.536  0.00  0.00    +0.000 C 
ATOM     10  C   UNL     1       0.448   9.489  20.558  0.00  0.00    +0.000 A 
ATOM     11  C   UNL     1       1.185   8.375  20.964  0.00  0.00    +0.000 A 
ATOM     12  C   UNL     1       2.021   7.694  20.065  0.00  0.00    +0.000 A 
ATOM     13  C   UNL     1       2.174   8.125  18.750  0.00  0.00    +0.000 A 
ATOM     14  C   UNL     1       1.417   9.240  18.347  0.00  0.00    +0.000 A 
ATOM     15  C   UNL     1       0.568   9.917  19.234  0.00  0.00    +0.000 A 
ENDBRANCH   8  13
ENDBRANCH   1   8
BRANCH   1  16
ATOM     16  C   UNL     1       5.035   5.179  17.180  0.00  0.00    +0.000 C 
BRANCH  16  17
ATOM     17  C   UNL     1       6.438   5.201  17.802  0.00  0.00    +0.000 C 
ATOM     18  O   UNL     1       6.944   4.185  18.280  0.00  0.00    +0.000 OA
BRANCH  17  19
ATOM     19  C   UNL     1       7.180   6.499  17.944  0.00  0.00    +0.000 A 
ATOM     20  C   UNL     1       6.921   7.614  17.139  0.00  0.00    +0.000 A 
ATOM     21  C   UNL     1       7.555   8.833  17.396  0.00  0.00    +0.000 A 
ATOM     22  C   UNL     1       8.460   8.943  18.448  0.00  0.00    +0.000 A 
ATOM     23  C   UNL     1       8.768   7.826  19.219  0.00  0.00    +0.000 A 
ATOM     24  C   UNL     1       8.137   6.606  18.964  0.00  0.00    +0.000 A 
ENDBRANCH  17  19
ENDBRANCH  16  17
BRANCH  16  25
ATOM     25  C   UNL     1       5.156   5.859  15.803  0.00  0.00    +0.000 C 
BRANCH  25  26
ATOM     26  N   UNL     1       5.854   5.100  14.786  0.00  0.00    +0.000 N 
ATOM     27  C   UNL     1       5.398   4.031  14.077  0.00  0.00    +0.000 A 
ATOM     28  N   UNL     1       6.287   3.691  13.173  0.00  0.00    +0.000 NA
ATOM     29  C   UNL     1       7.287   4.596  13.378  0.00  0.00    +0.000 A 
ATOM     30  N   UNL     1       7.058   5.494  14.340  0.00  0.00    +0.000 NA
ENDBRANCH  25  26
ENDBRANCH  16  25
ENDBRANCH   1  16
TORSDOF 8
ENDMDL
MODEL 9
REMARK VINA RESULT:      -7.7      3.474      7.789
REMARK  Name = 
REMARK  9 active torsions:
REMARK  status: ('A' for Active; 'I' for Inactive)
REMARK    1  A    between atoms: C_1  and  C_2
REMARK    2  A    between atoms: C_5  and  S_6
REMARK    3  A    between atoms: S_6  and  C_7
REMARK    4  A    between atoms: C_7  and  C_8
REMARK    5  A    between atoms: C_7  and  C_14
REMARK    6  A    between atoms: C_14  and  C_15
REMARK    7  A    between atoms: C_14  and  C_21
REMARK    8  A    between atoms: C_15  and  N_16
REMARK    9  A    between atoms: C_21  and  C_23
REMARK                            x       y       z     vdW  Elec       q    Type
REMARK                         _______ _______ _______ _____ _____    ______ ____
ROOT
ATOM      1  C   UNL     1       3.842   6.067  17.858  0.00  0.00    +0.000 C 
ENDROOT
BRANCH   1   2
ATOM      2  C   UNL     1       5.353   6.202  18.077  0.00  0.00    +0.000 A 
ATOM      3  C   UNL     1       6.158   7.091  17.338  0.00  0.00    +0.000 A 
ATOM      4  C   UNL     1       7.494   7.311  17.668  0.00  0.00    +0.000 A 
ATOM      5  C   UNL     1       8.066   6.624  18.730  0.00  0.00    +0.000 A 
ATOM      6  C   UNL     1       7.304   5.703  19.448  0.00  0.00    +0.000 A 
ATOM      7  C   UNL     1       5.960   5.498  19.131  0.00  0.00    +0.000 A 
ENDBRANCH   1   2
BRANCH   1   8
ATOM      8  S   UNL     1       2.839   6.322  19.424  0.00  0.00    +0.000 S 
BRANCH   8  13
ATOM      9  C   UNL     1       0.137  11.799  18.944  0.00  0.00    +0.000 C 
ATOM     10  C   UNL     1       0.735  10.429  19.075  0.00  0.00    +0.000 A 
ATOM     11  C   UNL     1       0.712   9.753  20.296  0.00  0.00    +0.000 A 
ATOM     12  C   UNL     1       1.314   8.493  20.437  0.00  0.00    +0.000 A 
ATOM     13  C   UNL     1       1.988   7.890  19.378  0.00  0.00    +0.000 A 
ATOM     14  C   UNL     1       1.995   8.573  18.148  0.00  0.00    +0.000 A 
ATOM     15  C   UNL     1       1.383   9.825  17.995  0.00  0.00    +0.000 A 
ENDBRANCH   8  13
ENDBRANCH   1   8
BRANCH   1  16
ATOM     16  C   UNL     1       3.377   4.835  17.026  0.00  0.00    +0.000 C 
BRANCH  16  17
ATOM     17  C   UNL     1       2.194   4.125  17.699  0.00  0.00    +0.000 C 
ATOM     18  O   UNL     1       1.059   4.179  17.224  0.00  0.00    +0.000 OA
BRANCH  17  19
ATOM     19  C   UNL     1       2.379   3.441  19.022  0.00  0.00    +0.000 A 
ATOM     20  C   UNL     1       3.584   2.843  19.406  0.00  0.00    +0.000 A 
ATOM     21  C   UNL     1       3.738   2.329  20.698  0.00  0.00    +0.000 A 
ATOM     22  C   UNL     1       2.686   2.396  21.607  0.00  0.00    +0.000 A 
ATOM     23  C   UNL     1       1.464   2.937  21.217  0.00  0.00    +0.000 A 
ATOM     24  C   UNL     1       1.307   3.451  19.928  0.00  0.00    +0.000 A 
ENDBRANCH  17  19
ENDBRANCH  16  17
BRANCH  16  25
ATOM     25  C   UNL     1       4.445   3.756  16.767  0.00  0.00    +0.000 C 
BRANCH  25  26
ATOM     26  N   UNL     1       5.455   4.092  15.785  0.00  0.00    +0.000 N 
ATOM     27  C   UNL     1       6.809   4.050  15.927  0.00  0.00    +0.000 A 
ATOM     28  N   UNL     1       7.380   4.325  14.777  0.00  0.00    +0.000 NA
ATOM     29  C   UNL     1       6.312   4.536  13.952  0.00  0.00    +0.000 A 
ATOM     30  N   UNL     1       5.113   4.383  14.520  0.00  0.00    +0.000 NA
ENDBRANCH  25  26
ENDBRANCH  16  25
ENDBRANCH   1  16
TORSDOF 8
ENDMDL
