MODEL 1
REMARK VINA RESULT:      -8.4      0.000      0.000
REMARK  Name = 
REMARK  12 active torsions:
REMARK  status: ('A' for Active; 'I' for Inactive)
REMARK    1  A    between atoms: C_1  and  C_2
REMARK    2  A    between atoms: C_2  and  C_3
REMARK    3  A    between atoms: C_3  and  O_5
REMARK    4  A    between atoms: C_11  and  O_12
REMARK    5  A    between atoms: O_12  and  C_13
REMARK    6  A    between atoms: C_13  and  C_14
REMARK    7  A    between atoms: C_14  and  C_15
REMARK    8  A    between atoms: C_15  and  O_16
REMARK    9  A    between atoms: O_16  and  C_17
REMARK   10  A    between atoms: C_20  and  O_21
REMARK   11  A    between atoms: O_21  and  C_22
REMARK   12  A    between atoms: C_22  and  C_23
REMARK                            x       y       z     vdW  Elec       q    Type
REMARK                         _______ _______ _______ _____ _____    ______ ____
ROOT
ATOM      1  C   UNL     1       7.729   9.047  17.993  0.00  0.00    +0.000 C 
ENDROOT
BRANCH   1   2
ATOM      2  O   UNL     1       8.958   9.117  18.723  0.00  0.00    +0.000 OA
BRANCH   2  10
ATOM      3  C   UNL     1       8.471  15.396  18.368  0.00  0.00    +0.000 C 
ATOM      4  C   UNL     1       9.925  14.977  18.108  0.00  0.00    +0.000 C 
ATOM      5  C   UNL     1      10.861  15.170  19.305  0.00  0.00    +0.000 C 
ATOM      6  C   UNL     1      10.393  14.326  20.475  0.00  0.00    +0.000 C 
ATOM      7  C   UNL     1      10.019  12.951  20.010  0.00  0.00    +0.000 A 
ATOM      8  C   UNL     1       9.806  11.949  20.963  0.00  0.00    +0.000 A 
ATOM      9  C   UNL     1       9.448  10.661  20.569  0.00  0.00    +0.000 A 
ATOM     10  C   UNL     1       9.301  10.352  19.216  0.00  0.00    +0.000 A 
ATOM     11  C   UNL     1       9.500  11.357  18.260  0.00  0.00    +0.000 A 
ATOM     12  C   UNL     1       9.832  12.658  18.655  0.00  0.00    +0.000 A 
ATOM     13  O   UNL     1       9.957  13.600  17.658  0.00  0.00    +0.000 OA
BRANCH   4  14
ATOM     14  C   UNL     1      10.450  15.880  16.979  0.00  0.00    +0.000 C 
ATOM     15  O   UNL     1      10.387  17.102  16.986  0.00  0.00    +0.000 OA
BRANCH  14  16
ATOM     16  O   UNL     1      10.998  15.194  15.948  0.00  0.00    +0.000 OA
ATOM     17  H   UNL     1      11.486  14.413  16.297  0.00  0.00    +0.000 HD
ENDBRANCH  14  16
ENDBRANCH   4  14
ENDBRANCH   2  10
ENDBRANCH   1   2
BRANCH   1  18
ATOM     18  C   UNL     1       7.635   7.732  17.228  0.00  0.00    +0.000 C 
BRANCH  18  19
ATOM     19  C   UNL     1       6.623   6.777  17.855  0.00  0.00    +0.000 C 
BRANCH  19  20
ATOM     20  O   UNL     1       5.828   6.160  16.837  0.00  0.00    +0.000 OA
BRANCH  20  21
ATOM     21  C   UNL     1       4.735   5.432  17.225  0.00  0.00    +0.000 A 
ATOM     22  C   UNL     1       4.678   4.038  17.172  0.00  0.00    +0.000 A 
ATOM     23  C   UNL     1       3.517   3.363  17.559  0.00  0.00    +0.000 A 
ATOM     24  C   UNL     1       2.385   4.066  17.963  0.00  0.00    +0.000 A 
ATOM     25  C   UNL     1       2.419   5.457  18.006  0.00  0.00    +0.000 A 
ATOM     26  C   UNL     1       3.589   6.134  17.632  0.00  0.00    +0.000 A 
ATOM     27 CL   UNL     1       3.582   7.863  17.717  0.00  0.00    +0.000 Cl
BRANCH  24  28
ATOM     28  O   UNL     1       1.329   3.285  18.335  0.00  0.00    +0.000 OA
BRANCH  28  29
ATOM     29  C   UNL     1       1.533   2.442  19.475  0.00  0.00    +0.000 C 
BRANCH  29  30
ATOM     30  C   UNL     1       1.448   3.249  20.770  0.00  0.00    +0.000 C 
ATOM     31  F   UNL     1       2.647   3.713  21.183  0.00  0.00    +0.000 F 
ATOM     32  F   UNL     1       0.634   4.320  20.612  0.00  0.00    +0.000 F 
ATOM     33  F   UNL     1       0.935   2.500  21.774  0.00  0.00    +0.000 F 
ENDBRANCH  29  30
ENDBRANCH  28  29
ENDBRANCH  24  28
ENDBRANCH  20  21
ENDBRANCH  19  20
ENDBRANCH  18  19
ENDBRANCH   1  18
TORSDOF 11
ENDMDL
MODEL 2
REMARK VINA RESULT:      -8.1      1.496      2.015
REMARK  Name = 
REMARK  12 active torsions:
REMARK  status: ('A' for Active; 'I' for Inactive)
REMARK    1  A    between atoms: C_1  and  C_2
REMARK    2  A    between atoms: C_2  and  C_3
REMARK    3  A    between atoms: C_3  and  O_5
REMARK    4  A    between atoms: C_11  and  O_12
REMARK    5  A    between atoms: O_12  and  C_13
REMARK    6  A    between atoms: C_13  and  C_14
REMARK    7  A    between atoms: C_14  and  C_15
REMARK    8  A    between atoms: C_15  and  O_16
REMARK    9  A    between atoms: O_16  and  C_17
REMARK   10  A    between atoms: C_20  and  O_21
REMARK   11  A    between atoms: O_21  and  C_22
REMARK   12  A    between atoms: C_22  and  C_23
REMARK                            x       y       z     vdW  Elec       q    Type
REMARK                         _______ _______ _______ _____ _____    ______ ____
ROOT
ATOM      1  C   UNL     1       8.303   9.240  17.734  0.00  0.00    +0.000 C 
ENDROOT
BRANCH   1   2
ATOM      2  O   UNL     1       8.792  10.098  18.770  0.00  0.00    +0.000 OA
BRANCH   2  10
ATOM      3  C   UNL     1      10.068  16.198  19.745  0.00  0.00    +0.000 C 
ATOM      4  C   UNL     1       9.271  16.040  18.442  0.00  0.00    +0.000 C 
ATOM      5  C   UNL     1      10.119  16.120  17.169  0.00  0.00    +0.000 C 
ATOM      6  C   UNL     1      11.149  15.008  17.158  0.00  0.00    +0.000 C 
ATOM      7  C   UNL     1      10.523  13.712  17.580  0.00  0.00    +0.000 A 
ATOM      8  C   UNL     1      11.236  12.524  17.392  0.00  0.00    +0.000 A 
ATOM      9  C   UNL     1      10.690  11.301  17.781  0.00  0.00    +0.000 A 
ATOM     10  C   UNL     1       9.421  11.247  18.360  0.00  0.00    +0.000 A 
ATOM     11  C   UNL     1       8.710  12.438  18.561  0.00  0.00    +0.000 A 
ATOM     12  C   UNL     1       9.268  13.669  18.198  0.00  0.00    +0.000 A 
ATOM     13  O   UNL     1       8.529  14.797  18.478  0.00  0.00    +0.000 OA
BRANCH   4  14
ATOM     14  C   UNL     1       8.274  17.211  18.391  0.00  0.00    +0.000 C 
ATOM     15  O   UNL     1       8.589  18.379  18.205  0.00  0.00    +0.000 OA
BRANCH  14  16
ATOM     16  O   UNL     1       6.987  16.834  18.576  0.00  0.00    +0.000 OA
ATOM     17  H   UNL     1       6.852  16.580  19.519  0.00  0.00    +0.000 HD
ENDBRANCH  14  16
ENDBRANCH   4  14
ENDBRANCH   2  10
ENDBRANCH   1   2
BRANCH   1  18
ATOM     18  C   UNL     1       8.098   7.825  18.261  0.00  0.00    +0.000 C 
BRANCH  18  19
ATOM     19  C   UNL     1       7.317   6.957  17.280  0.00  0.00    +0.000 C 
BRANCH  19  20
ATOM     20  O   UNL     1       5.910   7.169  17.443  0.00  0.00    +0.000 OA
BRANCH  20  21
ATOM     21  C   UNL     1       5.140   6.111  17.848  0.00  0.00    +0.000 A 
ATOM     22  C   UNL     1       5.651   4.838  18.103  0.00  0.00    +0.000 A 
ATOM     23  C   UNL     1       4.800   3.798  18.487  0.00  0.00    +0.000 A 
ATOM     24  C   UNL     1       3.425   4.001  18.579  0.00  0.00    +0.000 A 
ATOM     25  C   UNL     1       2.897   5.261  18.313  0.00  0.00    +0.000 A 
ATOM     26  C   UNL     1       3.753   6.308  17.943  0.00  0.00    +0.000 A 
ATOM     27 CL   UNL     1       3.046   7.857  17.636  0.00  0.00    +0.000 Cl
BRANCH  24  28
ATOM     28  O   UNL     1       2.712   2.910  18.985  0.00  0.00    +0.000 OA
BRANCH  28  29
ATOM     29  C   UNL     1       1.617   3.161  19.874  0.00  0.00    +0.000 C 
BRANCH  29  30
ATOM     30  C   UNL     1       2.076   3.107  21.330  0.00  0.00    +0.000 C 
ATOM     31  F   UNL     1       3.208   2.390  21.501  0.00  0.00    +0.000 F 
ATOM     32  F   UNL     1       2.314   4.354  21.802  0.00  0.00    +0.000 F 
ATOM     33  F   UNL     1       1.124   2.555  22.119  0.00  0.00    +0.000 F 
ENDBRANCH  29  30
ENDBRANCH  28  29
ENDBRANCH  24  28
ENDBRANCH  20  21
ENDBRANCH  19  20
ENDBRANCH  18  19
ENDBRANCH   1  18
TORSDOF 11
ENDMDL
MODEL 3
REMARK VINA RESULT:      -8.1      6.807      8.905
REMARK  Name = 
REMARK  12 active torsions:
REMARK  status: ('A' for Active; 'I' for Inactive)
REMARK    1  A    between atoms: C_1  and  C_2
REMARK    2  A    between atoms: C_2  and  C_3
REMARK    3  A    between atoms: C_3  and  O_5
REMARK    4  A    between atoms: C_11  and  O_12
REMARK    5  A    between atoms: O_12  and  C_13
REMARK    6  A    between atoms: C_13  and  C_14
REMARK    7  A    between atoms: C_14  and  C_15
REMARK    8  A    between atoms: C_15  and  O_16
REMARK    9  A    between atoms: O_16  and  C_17
REMARK   10  A    between atoms: C_20  and  O_21
REMARK   11  A    between atoms: O_21  and  C_22
REMARK   12  A    between atoms: C_22  and  C_23
REMARK                            x       y       z     vdW  Elec       q    Type
REMARK                         _______ _______ _______ _____ _____    ______ ____
ROOT
ATOM      1  C   UNL     1       1.720   2.520  20.185  0.00  0.00    +0.000 C 
ENDROOT
BRANCH   1   2
ATOM      2  O   UNL     1       2.544   2.089  19.096  0.00  0.00    +0.000 OA
BRANCH   2  10
ATOM      3  C   UNL     1       5.428   6.162  15.239  0.00  0.00    +0.000 C 
ATOM      4  C   UNL     1       6.242   4.863  15.317  0.00  0.00    +0.000 C 
ATOM      5  C   UNL     1       7.469   4.941  16.231  0.00  0.00    +0.000 C 
ATOM      6  C   UNL     1       7.042   5.245  17.654  0.00  0.00    +0.000 C 
ATOM      7  C   UNL     1       5.857   4.407  18.033  0.00  0.00    +0.000 A 
ATOM      8  C   UNL     1       5.471   4.351  19.376  0.00  0.00    +0.000 A 
ATOM      9  C   UNL     1       4.368   3.591  19.765  0.00  0.00    +0.000 A 
ATOM     10  C   UNL     1       3.638   2.872  18.818  0.00  0.00    +0.000 A 
ATOM     11  C   UNL     1       4.015   2.936  17.470  0.00  0.00    +0.000 A 
ATOM     12  C   UNL     1       5.104   3.722  17.073  0.00  0.00    +0.000 A 
ATOM     13  O   UNL     1       5.376   3.776  15.724  0.00  0.00    +0.000 OA
BRANCH   4  14
ATOM     14  C   UNL     1       6.758   4.580  13.896  0.00  0.00    +0.000 C 
ATOM     15  O   UNL     1       7.444   5.355  13.243  0.00  0.00    +0.000 OA
BRANCH  14  16
ATOM     16  O   UNL     1       6.380   3.373  13.413  0.00  0.00    +0.000 OA
ATOM     17  H   UNL     1       6.530   2.683  14.102  0.00  0.00    +0.000 HD
ENDBRANCH  14  16
ENDBRANCH   4  14
ENDBRANCH   2  10
ENDBRANCH   1   2
BRANCH   1  18
ATOM     18  C   UNL     1       1.018   3.829  19.841  0.00  0.00    +0.000 C 
BRANCH  18  19
ATOM     19  C   UNL     1       1.276   4.907  20.888  0.00  0.00    +0.000 C 
BRANCH  19  20
ATOM     20  O   UNL     1       2.244   5.844  20.406  0.00  0.00    +0.000 OA
BRANCH  20  21
ATOM     21  C   UNL     1       1.839   7.134  20.184  0.00  0.00    +0.000 A 
ATOM     22  C   UNL     1       1.087   7.875  21.096  0.00  0.00    +0.000 A 
ATOM     23  C   UNL     1       0.686   9.178  20.790  0.00  0.00    +0.000 A 
ATOM     24  C   UNL     1       0.992   9.745  19.555  0.00  0.00    +0.000 A 
ATOM     25  C   UNL     1       1.729   9.015  18.627  0.00  0.00    +0.000 A 
ATOM     26  C   UNL     1       2.144   7.712  18.941  0.00  0.00    +0.000 A 
ATOM     27 CL   UNL     1       3.069   6.853  17.757  0.00  0.00    +0.000 Cl
BRANCH  24  28
ATOM     28  O   UNL     1       0.561  11.030  19.393  0.00  0.00    +0.000 OA
BRANCH  28  29
ATOM     29  C   UNL     1      -0.792  11.299  19.779  0.00  0.00    +0.000 C 
BRANCH  29  30
ATOM     30  C   UNL     1      -1.755  11.002  18.631  0.00  0.00    +0.000 C 
ATOM     31  F   UNL     1      -2.120   9.703  18.570  0.00  0.00    +0.000 F 
ATOM     32  F   UNL     1      -2.888  11.733  18.757  0.00  0.00    +0.000 F 
ATOM     33  F   UNL     1      -1.201  11.323  17.438  0.00  0.00    +0.000 F 
ENDBRANCH  29  30
ENDBRANCH  28  29
ENDBRANCH  24  28
ENDBRANCH  20  21
ENDBRANCH  19  20
ENDBRANCH  18  19
ENDBRANCH   1  18
TORSDOF 11
ENDMDL
MODEL 4
REMARK VINA RESULT:      -8.1      5.738      8.844
REMARK  Name = 
REMARK  12 active torsions:
REMARK  status: ('A' for Active; 'I' for Inactive)
REMARK    1  A    between atoms: C_1  and  C_2
REMARK    2  A    between atoms: C_2  and  C_3
REMARK    3  A    between atoms: C_3  and  O_5
REMARK    4  A    between atoms: C_11  and  O_12
REMARK    5  A    between atoms: O_12  and  C_13
REMARK    6  A    between atoms: C_13  and  C_14
REMARK    7  A    between atoms: C_14  and  C_15
REMARK    8  A    between atoms: C_15  and  O_16
REMARK    9  A    between atoms: O_16  and  C_17
REMARK   10  A    between atoms: C_20  and  O_21
REMARK   11  A    between atoms: O_21  and  C_22
REMARK   12  A    between atoms: C_22  and  C_23
REMARK                            x       y       z     vdW  Elec       q    Type
REMARK                         _______ _______ _______ _____ _____    ______ ____
ROOT
ATOM      1  C   UNL     1       1.409   2.767  20.781  0.00  0.00    +0.000 C 
ENDROOT
BRANCH   1   2
ATOM      2  O   UNL     1       2.795   2.435  20.643  0.00  0.00    +0.000 OA
BRANCH   2  10
ATOM      3  C   UNL     1       7.976   4.455  17.666  0.00  0.00    +0.000 C 
ATOM      4  C   UNL     1       6.888   5.536  17.596  0.00  0.00    +0.000 C 
ATOM      5  C   UNL     1       6.153   5.606  16.255  0.00  0.00    +0.000 C 
ATOM      6  C   UNL     1       5.446   4.293  15.977  0.00  0.00    +0.000 C 
ATOM      7  C   UNL     1       4.744   3.808  17.209  0.00  0.00    +0.000 A 
ATOM      8  C   UNL     1       3.831   2.755  17.096  0.00  0.00    +0.000 A 
ATOM      9  C   UNL     1       3.166   2.269  18.222  0.00  0.00    +0.000 A 
ATOM     10  C   UNL     1       3.401   2.833  19.477  0.00  0.00    +0.000 A 
ATOM     11  C   UNL     1       4.325   3.880  19.595  0.00  0.00    +0.000 A 
ATOM     12  C   UNL     1       5.015   4.349  18.471  0.00  0.00    +0.000 A 
ATOM     13  O   UNL     1       5.946   5.342  18.679  0.00  0.00    +0.000 OA
BRANCH   4  14
ATOM     14  C   UNL     1       7.595   6.888  17.792  0.00  0.00    +0.000 C 
ATOM     15  O   UNL     1       7.538   7.818  16.999  0.00  0.00    +0.000 OA
BRANCH  14  16
ATOM     16  O   UNL     1       8.307   6.965  18.941  0.00  0.00    +0.000 OA
ATOM     17  H   UNL     1       9.268   6.893  18.737  0.00  0.00    +0.000 HD
ENDBRANCH  14  16
ENDBRANCH   4  14
ENDBRANCH   2  10
ENDBRANCH   1   2
BRANCH   1  18
ATOM     18  C   UNL     1       1.061   3.978  19.923  0.00  0.00    +0.000 C 
BRANCH  18  19
ATOM     19  C   UNL     1       1.008   5.263  20.744  0.00  0.00    +0.000 C 
BRANCH  19  20
ATOM     20  O   UNL     1       2.071   6.141  20.357  0.00  0.00    +0.000 OA
BRANCH  20  21
ATOM     21  C   UNL     1       1.761   7.447  20.083  0.00  0.00    +0.000 A 
ATOM     22  C   UNL     1       1.019   8.260  20.940  0.00  0.00    +0.000 A 
ATOM     23  C   UNL     1       0.718   9.577  20.582  0.00  0.00    +0.000 A 
ATOM     24  C   UNL     1       1.116  10.087  19.348  0.00  0.00    +0.000 A 
ATOM     25  C   UNL     1       1.844   9.285  18.475  0.00  0.00    +0.000 A 
ATOM     26  C   UNL     1       2.158   7.968  18.841  0.00  0.00    +0.000 A 
ATOM     27 CL   UNL     1       3.077   7.018  17.724  0.00  0.00    +0.000 Cl
BRANCH  24  28
ATOM     28  O   UNL     1       0.777  11.392  19.134  0.00  0.00    +0.000 OA
BRANCH  28  29
ATOM     29  C   UNL     1      -0.486  11.816  19.661  0.00  0.00    +0.000 C 
BRANCH  29  30
ATOM     30  C   UNL     1      -1.520  11.962  18.546  0.00  0.00    +0.000 C 
ATOM     31  F   UNL     1      -2.732  12.351  18.997  0.00  0.00    +0.000 F 
ATOM     32  F   UNL     1      -1.114  12.881  17.637  0.00  0.00    +0.000 F 
ATOM     33  F   UNL     1      -1.689  10.793  17.886  0.00  0.00    +0.000 F 
ENDBRANCH  29  30
ENDBRANCH  28  29
ENDBRANCH  24  28
ENDBRANCH  20  21
ENDBRANCH  19  20
ENDBRANCH  18  19
ENDBRANCH   1  18
TORSDOF 11
ENDMDL
MODEL 5
REMARK VINA RESULT:      -8.0      1.761      2.154
REMARK  Name = 
REMARK  12 active torsions:
REMARK  status: ('A' for Active; 'I' for Inactive)
REMARK    1  A    between atoms: C_1  and  C_2
REMARK    2  A    between atoms: C_2  and  C_3
REMARK    3  A    between atoms: C_3  and  O_5
REMARK    4  A    between atoms: C_11  and  O_12
REMARK    5  A    between atoms: O_12  and  C_13
REMARK    6  A    between atoms: C_13  and  C_14
REMARK    7  A    between atoms: C_14  and  C_15
REMARK    8  A    between atoms: C_15  and  O_16
REMARK    9  A    between atoms: O_16  and  C_17
REMARK   10  A    between atoms: C_20  and  O_21
REMARK   11  A    between atoms: O_21  and  C_22
REMARK   12  A    between atoms: C_22  and  C_23
REMARK                            x       y       z     vdW  Elec       q    Type
REMARK                         _______ _______ _______ _____ _____    ______ ____
ROOT
ATOM      1  C   UNL     1       8.431   9.781  18.071  0.00  0.00    +0.000 C 
ENDROOT
BRANCH   1   2
ATOM      2  O   UNL     1       9.040  10.098  19.327  0.00  0.00    +0.000 OA
BRANCH   2  10
ATOM      3  C   UNL     1       9.901  16.287  20.188  0.00  0.00    +0.000 C 
ATOM      4  C   UNL     1      10.199  15.924  18.726  0.00  0.00    +0.000 C 
ATOM      5  C   UNL     1      11.690  15.816  18.393  0.00  0.00    +0.000 C 
ATOM      6  C   UNL     1      12.333  14.725  19.227  0.00  0.00    +0.000 C 
ATOM      7  C   UNL     1      11.463  13.503  19.248  0.00  0.00    +0.000 A 
ATOM      8  C   UNL     1      11.990  12.307  19.746  0.00  0.00    +0.000 A 
ATOM      9  C   UNL     1      11.208  11.153  19.791  0.00  0.00    +0.000 A 
ATOM     10  C   UNL     1       9.890  11.177  19.334  0.00  0.00    +0.000 A 
ATOM     11  C   UNL     1       9.356  12.377  18.847  0.00  0.00    +0.000 A 
ATOM     12  C   UNL     1      10.129  13.544  18.828  0.00  0.00    +0.000 A 
ATOM     13  O   UNL     1       9.515  14.693  18.386  0.00  0.00    +0.000 OA
BRANCH   4  14
ATOM     14  C   UNL     1       9.628  17.063  17.863  0.00  0.00    +0.000 C 
ATOM     15  O   UNL     1       8.503  17.528  17.990  0.00  0.00    +0.000 OA
BRANCH  14  16
ATOM     16  O   UNL     1      10.493  17.518  16.927  0.00  0.00    +0.000 OA
ATOM     17  H   UNL     1      11.312  16.971  16.943  0.00  0.00    +0.000 HD
ENDBRANCH  14  16
ENDBRANCH   4  14
ENDBRANCH   2  10
ENDBRANCH   1   2
BRANCH   1  18
ATOM     18  C   UNL     1       8.180   8.282  17.960  0.00  0.00    +0.000 C 
BRANCH  18  19
ATOM     19  C   UNL     1       6.731   7.970  17.599  0.00  0.00    +0.000 C 
BRANCH  19  20
ATOM     20  O   UNL     1       6.660   6.762  16.834  0.00  0.00    +0.000 OA
BRANCH  20  21
ATOM     21  C   UNL     1       5.921   5.724  17.335  0.00  0.00    +0.000 A 
ATOM     22  C   UNL     1       5.716   5.509  18.699  0.00  0.00    +0.000 A 
ATOM     23  C   UNL     1       4.972   4.411  19.138  0.00  0.00    +0.000 A 
ATOM     24  C   UNL     1       4.459   3.489  18.228  0.00  0.00    +0.000 A 
ATOM     25  C   UNL     1       4.666   3.679  16.866  0.00  0.00    +0.000 A 
ATOM     26  C   UNL     1       5.401   4.790  16.424  0.00  0.00    +0.000 A 
ATOM     27 CL   UNL     1       5.618   4.986  14.719  0.00  0.00    +0.000 Cl
BRANCH  24  28
ATOM     28  O   UNL     1       3.733   2.477  18.788  0.00  0.00    +0.000 OA
BRANCH  28  29
ATOM     29  C   UNL     1       2.520   2.117  18.116  0.00  0.00    +0.000 C 
BRANCH  29  30
ATOM     30  C   UNL     1       1.342   2.931  18.647  0.00  0.00    +0.000 C 
ATOM     31  F   UNL     1       1.160   4.093  17.982  0.00  0.00    +0.000 F 
ATOM     32  F   UNL     1       0.191   2.225  18.548  0.00  0.00    +0.000 F 
ATOM     33  F   UNL     1       1.514   3.236  19.955  0.00  0.00    +0.000 F 
ENDBRANCH  29  30
ENDBRANCH  28  29
ENDBRANCH  24  28
ENDBRANCH  20  21
ENDBRANCH  19  20
ENDBRANCH  18  19
ENDBRANCH   1  18
TORSDOF 11
ENDMDL
MODEL 6
REMARK VINA RESULT:      -8.0      5.279     12.134
REMARK  Name = 
REMARK  12 active torsions:
REMARK  status: ('A' for Active; 'I' for Inactive)
REMARK    1  A    between atoms: C_1  and  C_2
REMARK    2  A    between atoms: C_2  and  C_3
REMARK    3  A    between atoms: C_3  and  O_5
REMARK    4  A    between atoms: C_11  and  O_12
REMARK    5  A    between atoms: O_12  and  C_13
REMARK    6  A    between atoms: C_13  and  C_14
REMARK    7  A    between atoms: C_14  and  C_15
REMARK    8  A    between atoms: C_15  and  O_16
REMARK    9  A    between atoms: O_16  and  C_17
REMARK   10  A    between atoms: C_20  and  O_21
REMARK   11  A    between atoms: O_21  and  C_22
REMARK   12  A    between atoms: C_22  and  C_23
REMARK                            x       y       z     vdW  Elec       q    Type
REMARK                         _______ _______ _______ _____ _____    ______ ____
ROOT
ATOM      1  C   UNL     1       7.249   7.500  17.019  0.00  0.00    +0.000 C 
ENDROOT
BRANCH   1   2
ATOM      2  O   UNL     1       5.851   7.446  17.325  0.00  0.00    +0.000 OA
BRANCH   2  10
ATOM      3  C   UNL     1       1.170   3.663  19.210  0.00  0.00    +0.000 C 
ATOM      4  C   UNL     1       2.498   3.177  19.810  0.00  0.00    +0.000 C 
ATOM      5  C   UNL     1       3.111   1.972  19.090  0.00  0.00    +0.000 C 
ATOM      6  C   UNL     1       3.416   2.325  17.647  0.00  0.00    +0.000 C 
ATOM      7  C   UNL     1       4.063   3.676  17.566  0.00  0.00    +0.000 A 
ATOM      8  C   UNL     1       4.649   4.072  16.360  0.00  0.00    +0.000 A 
ATOM      9  C   UNL     1       5.251   5.325  16.243  0.00  0.00    +0.000 A 
ATOM     10  C   UNL     1       5.280   6.198  17.332  0.00  0.00    +0.000 A 
ATOM     11  C   UNL     1       4.682   5.808  18.538  0.00  0.00    +0.000 A 
ATOM     12  C   UNL     1       4.051   4.562  18.648  0.00  0.00    +0.000 A 
ATOM     13  O   UNL     1       3.440   4.277  19.848  0.00  0.00    +0.000 OA
BRANCH   4  14
ATOM     14  C   UNL     1       2.195   2.733  21.251  0.00  0.00    +0.000 C 
ATOM     15  O   UNL     1       3.040   2.339  22.044  0.00  0.00    +0.000 OA
BRANCH  14  16
ATOM     16  O   UNL     1       0.884   2.813  21.578  0.00  0.00    +0.000 OA
ATOM     17  H   UNL     1       0.590   1.956  21.966  0.00  0.00    +0.000 HD
ENDBRANCH  14  16
ENDBRANCH   4  14
ENDBRANCH   2  10
ENDBRANCH   1   2
BRANCH   1  18
ATOM     18  C   UNL     1       8.047   7.951  18.237  0.00  0.00    +0.000 C 
BRANCH  18  19
ATOM     19  C   UNL     1       8.554   9.381  18.090  0.00  0.00    +0.000 C 
BRANCH  19  20
ATOM     20  O   UNL     1       8.958   9.897  19.362  0.00  0.00    +0.000 OA
BRANCH  20  21
ATOM     21  C   UNL     1       9.781  10.992  19.384  0.00  0.00    +0.000 A 
ATOM     22  C   UNL     1      10.665  11.313  18.354  0.00  0.00    +0.000 A 
ATOM     23  C   UNL     1      11.495  12.433  18.457  0.00  0.00    +0.000 A 
ATOM     24  C   UNL     1      11.485  13.223  19.604  0.00  0.00    +0.000 A 
ATOM     25  C   UNL     1      10.620  12.909  20.647  0.00  0.00    +0.000 A 
ATOM     26  C   UNL     1       9.777  11.793  20.537  0.00  0.00    +0.000 A 
ATOM     27 CL   UNL     1       8.711  11.455  21.858  0.00  0.00    +0.000 Cl
BRANCH  24  28
ATOM     28  O   UNL     1      12.326  14.297  19.565  0.00  0.00    +0.000 OA
BRANCH  28  29
ATOM     29  C   UNL     1      11.924  15.390  18.730  0.00  0.00    +0.000 C 
BRANCH  29  30
ATOM     30  C   UNL     1      11.228  16.474  19.550  0.00  0.00    +0.000 C 
ATOM     31  F   UNL     1       9.886  16.470  19.400  0.00  0.00    +0.000 F 
ATOM     32  F   UNL     1      11.487  16.314  20.870  0.00  0.00    +0.000 F 
ATOM     33  F   UNL     1      11.671  17.705  19.202  0.00  0.00    +0.000 F 
ENDBRANCH  29  30
ENDBRANCH  28  29
ENDBRANCH  24  28
ENDBRANCH  20  21
ENDBRANCH  19  20
ENDBRANCH  18  19
ENDBRANCH   1  18
TORSDOF 11
ENDMDL
MODEL 7
REMARK VINA RESULT:      -7.9      5.773      6.941
REMARK  Name = 
REMARK  12 active torsions:
REMARK  status: ('A' for Active; 'I' for Inactive)
REMARK    1  A    between atoms: C_1  and  C_2
REMARK    2  A    between atoms: C_2  and  C_3
REMARK    3  A    between atoms: C_3  and  O_5
REMARK    4  A    between atoms: C_11  and  O_12
REMARK    5  A    between atoms: O_12  and  C_13
REMARK    6  A    between atoms: C_13  and  C_14
REMARK    7  A    between atoms: C_14  and  C_15
REMARK    8  A    between atoms: C_15  and  O_16
REMARK    9  A    between atoms: O_16  and  C_17
REMARK   10  A    between atoms: C_20  and  O_21
REMARK   11  A    between atoms: O_21  and  C_22
REMARK   12  A    between atoms: C_22  and  C_23
REMARK                            x       y       z     vdW  Elec       q    Type
REMARK                         _______ _______ _______ _____ _____    ______ ____
ROOT
ATOM      1  C   UNL     1       4.949   7.572  16.779  0.00  0.00    +0.000 C 
ENDROOT
BRANCH   1   2
ATOM      2  O   UNL     1       3.755   6.847  17.092  0.00  0.00    +0.000 OA
BRANCH   2  10
ATOM      3  C   UNL     1      -1.332  10.207  18.712  0.00  0.00    +0.000 C 
ATOM      4  C   UNL     1      -0.064  10.932  19.186  0.00  0.00    +0.000 C 
ATOM      5  C   UNL     1       0.237  10.766  20.678  0.00  0.00    +0.000 C 
ATOM      6  C   UNL     1       0.453   9.302  21.008  0.00  0.00    +0.000 C 
ATOM      7  C   UNL     1       1.328   8.658  19.975  0.00  0.00    +0.000 A 
ATOM      8  C   UNL     1       1.852   7.386  20.230  0.00  0.00    +0.000 A 
ATOM      9  C   UNL     1       2.662   6.751  19.289  0.00  0.00    +0.000 A 
ATOM     10  C   UNL     1       2.964   7.380  18.080  0.00  0.00    +0.000 A 
ATOM     11  C   UNL     1       2.430   8.649  17.817  0.00  0.00    +0.000 A 
ATOM     12  C   UNL     1       1.594   9.275  18.748  0.00  0.00    +0.000 A 
ATOM     13  O   UNL     1       1.066  10.496  18.391  0.00  0.00    +0.000 OA
BRANCH   4  14
ATOM     14  C   UNL     1      -0.295  12.432  18.938  0.00  0.00    +0.000 C 
ATOM     15  O   UNL     1      -0.813  12.894  17.930  0.00  0.00    +0.000 OA
BRANCH  14  16
ATOM     16  O   UNL     1       0.135  13.221  19.951  0.00  0.00    +0.000 OA
ATOM     17  H   UNL     1      -0.341  14.082  19.920  0.00  0.00    +0.000 HD
ENDBRANCH  14  16
ENDBRANCH   4  14
ENDBRANCH   2  10
ENDBRANCH   1   2
BRANCH   1  18
ATOM     18  C   UNL     1       6.113   7.081  17.633  0.00  0.00    +0.000 C 
BRANCH  18  19
ATOM     19  C   UNL     1       7.117   6.271  16.819  0.00  0.00    +0.000 C 
BRANCH  19  20
ATOM     20  O   UNL     1       7.104   4.902  17.236  0.00  0.00    +0.000 OA
BRANCH  20  21
ATOM     21  C   UNL     1       5.920   4.373  17.678  0.00  0.00    +0.000 A 
ATOM     22  C   UNL     1       5.608   4.200  19.027  0.00  0.00    +0.000 A 
ATOM     23  C   UNL     1       4.390   3.627  19.403  0.00  0.00    +0.000 A 
ATOM     24  C   UNL     1       3.486   3.181  18.442  0.00  0.00    +0.000 A 
ATOM     25  C   UNL     1       3.788   3.332  17.092  0.00  0.00    +0.000 A 
ATOM     26  C   UNL     1       5.004   3.921  16.715  0.00  0.00    +0.000 A 
ATOM     27 CL   UNL     1       5.324   4.097  15.023  0.00  0.00    +0.000 Cl
BRANCH  24  28
ATOM     28  O   UNL     1       2.327   2.663  18.943  0.00  0.00    +0.000 OA
BRANCH  28  29
ATOM     29  C   UNL     1       2.343   2.294  20.328  0.00  0.00    +0.000 C 
BRANCH  29  30
ATOM     30  C   UNL     1       1.483   3.248  21.155  0.00  0.00    +0.000 C 
ATOM     31  F   UNL     1       2.195   4.249  21.717  0.00  0.00    +0.000 F 
ATOM     32  F   UNL     1       0.526   3.817  20.383  0.00  0.00    +0.000 F 
ATOM     33  F   UNL     1       0.852   2.589  22.155  0.00  0.00    +0.000 F 
ENDBRANCH  29  30
ENDBRANCH  28  29
ENDBRANCH  24  28
ENDBRANCH  20  21
ENDBRANCH  19  20
ENDBRANCH  18  19
ENDBRANCH   1  18
TORSDOF 11
ENDMDL
MODEL 8
REMARK VINA RESULT:      -7.9      1.707      2.303
REMARK  Name = 
REMARK  12 active torsions:
REMARK  status: ('A' for Active; 'I' for Inactive)
REMARK    1  A    between atoms: C_1  and  C_2
REMARK    2  A    between atoms: C_2  and  C_3
REMARK    3  A    between atoms: C_3  and  O_5
REMARK    4  A    between atoms: C_11  and  O_12
REMARK    5  A    between atoms: O_12  and  C_13
REMARK    6  A    between atoms: C_13  and  C_14
REMARK    7  A    between atoms: C_14  and  C_15
REMARK    8  A    between atoms: C_15  and  O_16
REMARK    9  A    between atoms: O_16  and  C_17
REMARK   10  A    between atoms: C_20  and  O_21
REMARK   11  A    between atoms: O_21  and  C_22
REMARK   12  A    between atoms: C_22  and  C_23
REMARK                            x       y       z     vdW  Elec       q    Type
REMARK                         _______ _______ _______ _____ _____    ______ ____
ROOT
ATOM      1  C   UNL     1       8.560   9.191  17.787  0.00  0.00    +0.000 C 
ENDROOT
BRANCH   1   2
ATOM      2  O   UNL     1       8.344  10.505  18.313  0.00  0.00    +0.000 OA
BRANCH   2  10
ATOM      3  C   UNL     1      10.885  16.154  19.504  0.00  0.00    +0.000 C 
ATOM      4  C   UNL     1      10.407  16.102  18.046  0.00  0.00    +0.000 C 
ATOM      5  C   UNL     1      11.524  15.873  17.024  0.00  0.00    +0.000 C 
ATOM      6  C   UNL     1      12.204  14.543  17.281  0.00  0.00    +0.000 C 
ATOM      7  C   UNL     1      11.182  13.478  17.549  0.00  0.00    +0.000 A 
ATOM      8  C   UNL     1      11.587  12.140  17.558  0.00  0.00    +0.000 A 
ATOM      9  C   UNL     1      10.668  11.123  17.813  0.00  0.00    +0.000 A 
ATOM     10  C   UNL     1       9.329  11.428  18.058  0.00  0.00    +0.000 A 
ATOM     11  C   UNL     1       8.922  12.770  18.063  0.00  0.00    +0.000 A 
ATOM     12  C   UNL     1       9.850  13.794  17.836  0.00  0.00    +0.000 A 
ATOM     13  O   UNL     1       9.382  15.087  17.911  0.00  0.00    +0.000 OA
BRANCH   4  14
ATOM     14  C   UNL     1       9.788  17.475  17.735  0.00  0.00    +0.000 C 
ATOM     15  O   UNL     1       8.760  17.901  18.246  0.00  0.00    +0.000 OA
BRANCH  14  16
ATOM     16  O   UNL     1      10.489  18.192  16.826  0.00  0.00    +0.000 OA
ATOM     17  H   UNL     1      11.387  18.385  17.183  0.00  0.00    +0.000 HD
ENDBRANCH  14  16
ENDBRANCH   4  14
ENDBRANCH   2  10
ENDBRANCH   1   2
BRANCH   1  18
ATOM     18  C   UNL     1       7.290   8.355  17.897  0.00  0.00    +0.000 C 
BRANCH  18  19
ATOM     19  C   UNL     1       7.392   7.055  17.106  0.00  0.00    +0.000 C 
BRANCH  19  20
ATOM     20  O   UNL     1       6.259   6.910  16.243  0.00  0.00    +0.000 OA
BRANCH  20  21
ATOM     21  C   UNL     1       5.127   6.331  16.753  0.00  0.00    +0.000 A 
ATOM     22  C   UNL     1       4.125   7.046  17.411  0.00  0.00    +0.000 A 
ATOM     23  C   UNL     1       3.009   6.384  17.931  0.00  0.00    +0.000 A 
ATOM     24  C   UNL     1       2.898   4.998  17.840  0.00  0.00    +0.000 A 
ATOM     25  C   UNL     1       3.895   4.269  17.200  0.00  0.00    +0.000 A 
ATOM     26  C   UNL     1       5.008   4.935  16.666  0.00  0.00    +0.000 A 
ATOM     27 CL   UNL     1       6.213   3.982  15.870  0.00  0.00    +0.000 Cl
BRANCH  24  28
ATOM     28  O   UNL     1       1.750   4.481  18.368  0.00  0.00    +0.000 OA
BRANCH  28  29
ATOM     29  C   UNL     1       1.721   4.320  19.791  0.00  0.00    +0.000 C 
BRANCH  29  30
ATOM     30  C   UNL     1       1.265   2.913  20.170  0.00  0.00    +0.000 C 
ATOM     31  F   UNL     1       2.212   1.974  19.953  0.00  0.00    +0.000 F 
ATOM     32  F   UNL     1       0.933   2.855  21.482  0.00  0.00    +0.000 F 
ATOM     33  F   UNL     1       0.168   2.552  19.464  0.00  0.00    +0.000 F 
ENDBRANCH  29  30
ENDBRANCH  28  29
ENDBRANCH  24  28
ENDBRANCH  20  21
ENDBRANCH  19  20
ENDBRANCH  18  19
ENDBRANCH   1  18
TORSDOF 11
ENDMDL
MODEL 9
REMARK VINA RESULT:      -7.8      7.530     10.319
REMARK  Name = 
REMARK  12 active torsions:
REMARK  status: ('A' for Active; 'I' for Inactive)
REMARK    1  A    between atoms: C_1  and  C_2
REMARK    2  A    between atoms: C_2  and  C_3
REMARK    3  A    between atoms: C_3  and  O_5
REMARK    4  A    between atoms: C_11  and  O_12
REMARK    5  A    between atoms: O_12  and  C_13
REMARK    6  A    between atoms: C_13  and  C_14
REMARK    7  A    between atoms: C_14  and  C_15
REMARK    8  A    between atoms: C_15  and  O_16
REMARK    9  A    between atoms: O_16  and  C_17
REMARK   10  A    between atoms: C_20  and  O_21
REMARK   11  A    between atoms: O_21  and  C_22
REMARK   12  A    between atoms: C_22  and  C_23
REMARK                            x       y       z     vdW  Elec       q    Type
REMARK                         _______ _______ _______ _____ _____    ______ ____
ROOT
ATOM      1  C   UNL     1       1.171   8.491  21.623  0.00  0.00    +0.000 C 
ENDROOT
BRANCH   1   2
ATOM      2  O   UNL     1       1.328   9.879  21.937  0.00  0.00    +0.000 OA
BRANCH   2  10
ATOM      3  C   UNL     1      -2.977  13.999  24.004  0.00  0.00    +0.000 C 
ATOM      4  C   UNL     1      -3.678  12.721  23.522  0.00  0.00    +0.000 C 
ATOM      5  C   UNL     1      -4.313  12.835  22.132  0.00  0.00    +0.000 C 
ATOM      6  C   UNL     1      -3.248  13.136  21.095  0.00  0.00    +0.000 C 
ATOM      7  C   UNL     1      -2.043  12.272  21.318  0.00  0.00    +0.000 A 
ATOM      8  C   UNL     1      -1.060  12.214  20.324  0.00  0.00    +0.000 A 
ATOM      9  C   UNL     1       0.079  11.430  20.500  0.00  0.00    +0.000 A 
ATOM     10  C   UNL     1       0.250  10.687  21.669  0.00  0.00    +0.000 A 
ATOM     11  C   UNL     1      -0.727  10.752  22.671  0.00  0.00    +0.000 A 
ATOM     12  C   UNL     1      -1.857  11.562  22.509  0.00  0.00    +0.000 A 
ATOM     13  O   UNL     1      -2.743  11.615  23.562  0.00  0.00    +0.000 OA
BRANCH   4  14
ATOM     14  C   UNL     1      -4.819  12.442  24.515  0.00  0.00    +0.000 C 
ATOM     15  O   UNL     1      -5.963  12.155  24.189  0.00  0.00    +0.000 OA
BRANCH  14  16
ATOM     16  O   UNL     1      -4.445  12.544  25.812  0.00  0.00    +0.000 OA
ATOM     17  H   UNL     1      -4.479  13.490  26.089  0.00  0.00    +0.000 HD
ENDBRANCH  14  16
ENDBRANCH   4  14
ENDBRANCH   2  10
ENDBRANCH   1   2
BRANCH   1  18
ATOM     18  C   UNL     1       1.832   8.166  20.288  0.00  0.00    +0.000 C 
BRANCH  18  19
ATOM     19  C   UNL     1       2.039   6.666  20.103  0.00  0.00    +0.000 C 
BRANCH  19  20
ATOM     20  O   UNL     1       2.053   6.336  18.710  0.00  0.00    +0.000 OA
BRANCH  20  21
ATOM     21  C   UNL     1       3.191   5.780  18.190  0.00  0.00    +0.000 A 
ATOM     22  C   UNL     1       4.356   6.505  17.935  0.00  0.00    +0.000 A 
ATOM     23  C   UNL     1       5.472   5.876  17.376  0.00  0.00    +0.000 A 
ATOM     24  C   UNL     1       5.429   4.528  17.025  0.00  0.00    +0.000 A 
ATOM     25  C   UNL     1       4.269   3.795  17.258  0.00  0.00    +0.000 A 
ATOM     26  C   UNL     1       3.155   4.423  17.832  0.00  0.00    +0.000 A 
ATOM     27 CL   UNL     1       1.743   3.461  18.113  0.00  0.00    +0.000 Cl
BRANCH  24  28
ATOM     28  O   UNL     1       6.592   4.034  16.510  0.00  0.00    +0.000 OA
BRANCH  28  29
ATOM     29  C   UNL     1       7.181   4.781  15.439  0.00  0.00    +0.000 C 
BRANCH  29  30
ATOM     30  C   UNL     1       6.477   4.483  14.116  0.00  0.00    +0.000 C 
ATOM     31  F   UNL     1       5.277   5.095  14.007  0.00  0.00    +0.000 F 
ATOM     32  F   UNL     1       7.234   4.890  13.070  0.00  0.00    +0.000 F 
ATOM     33  F   UNL     1       6.269   3.154  13.967  0.00  0.00    +0.000 F 
ENDBRANCH  29  30
ENDBRANCH  28  29
ENDBRANCH  24  28
ENDBRANCH  20  21
ENDBRANCH  19  20
ENDBRANCH  18  19
ENDBRANCH   1  18
TORSDOF 11
ENDMDL
