MODEL 1
REMARK VINA RESULT:      -9.0      0.000      0.000
REMARK  Name = 
REMARK  5 active torsions:
REMARK  status: ('A' for Active; 'I' for Inactive)
REMARK    1  A    between atoms: C_1  and  C_2
REMARK    2  A    between atoms: C_6  and  O_7
REMARK    3  A    between atoms: O_7  and  C_8
REMARK    4  A    between atoms: C_8  and  C_10
REMARK    5  A    between atoms: C_12  and  C_13
REMARK                            x       y       z     vdW  Elec       q    Type
REMARK                         _______ _______ _______ _____ _____    ______ ____
ROOT
ATOM      1  C   UNL     1       7.564   6.804  17.899  0.00  0.00    +0.000 A 
ATOM      2  C   UNL     1       8.424   7.504  18.787  0.00  0.00    +0.000 A 
ATOM      3  C   UNL     1       8.420   8.805  18.335  0.00  0.00    +0.000 A 
ATOM      4  O   UNL     1       7.613   8.873  17.239  0.00  0.00    +0.000 OA
ATOM      5  N   UNL     1       7.083   7.635  16.960  0.00  0.00    +0.000 NA
ENDROOT
BRANCH   3   6
ATOM      6  C   UNL     1       9.039  10.058  18.749  0.00  0.00    +0.000 A 
ATOM      7  C   UNL     1       9.291  10.322  20.108  0.00  0.00    +0.000 A 
ATOM      8  C   UNL     1       9.891  11.517  20.512  0.00  0.00    +0.000 A 
ATOM      9  C   UNL     1      10.245  12.467  19.563  0.00  0.00    +0.000 A 
ATOM     10  C   UNL     1      10.019  12.215  18.207  0.00  0.00    +0.000 A 
ATOM     11  C   UNL     1       9.408  11.025  17.802  0.00  0.00    +0.000 A 
ATOM     12  O   UNL     1      10.365  13.096  17.214  0.00  0.00    +0.000 OA
ATOM     13  C   UNL     1      11.292  14.078  17.691  0.00  0.00    +0.000 C 
ATOM     14  C   UNL     1      10.842  14.641  19.030  0.00  0.00    +0.000 C 
ATOM     15  O   UNL     1      10.822  13.618  20.032  0.00  0.00    +0.000 OA
ENDBRANCH   3   6
BRANCH   1  16
ATOM     16  C   UNL     1       7.174   5.399  17.956  0.00  0.00    +0.000 C 
ATOM     17  O   UNL     1       7.723   4.525  17.294  0.00  0.00    +0.000 OA
BRANCH  16  18
ATOM     18  O   UNL     1       6.140   5.190  18.872  0.00  0.00    +0.000 OA
BRANCH  18  24
ATOM     19  C   UNL     1       2.429   2.109  17.747  0.00  0.00    +0.000 C 
ATOM     20  C   UNL     1       2.961   3.496  17.954  0.00  0.00    +0.000 A 
ATOM     21  C   UNL     1       2.125   4.616  17.870  0.00  0.00    +0.000 A 
ATOM     22  C   UNL     1       2.636   5.900  18.077  0.00  0.00    +0.000 A 
ATOM     23  C   UNL     1       3.988   6.075  18.371  0.00  0.00    +0.000 A 
ATOM     24  C   UNL     1       4.820   4.961  18.443  0.00  0.00    +0.000 A 
ATOM     25  C   UNL     1       4.317   3.675  18.249  0.00  0.00    +0.000 A 
ENDBRANCH  18  24
ENDBRANCH  16  18
ENDBRANCH   1  16
TORSDOF 4
ENDMDL
MODEL 2
REMARK VINA RESULT:      -8.8      0.807      1.303
REMARK  Name = 
REMARK  5 active torsions:
REMARK  status: ('A' for Active; 'I' for Inactive)
REMARK    1  A    between atoms: C_1  and  C_2
REMARK    2  A    between atoms: C_6  and  O_7
REMARK    3  A    between atoms: O_7  and  C_8
REMARK    4  A    between atoms: C_8  and  C_10
REMARK    5  A    between atoms: C_12  and  C_13
REMARK                            x       y       z     vdW  Elec       q    Type
REMARK                         _______ _______ _______ _____ _____    ______ ____
ROOT
ATOM      1  C   UNL     1       7.677   6.622  17.882  0.00  0.00    +0.000 A 
ATOM      2  C   UNL     1       8.468   7.391  18.780  0.00  0.00    +0.000 A 
ATOM      3  C   UNL     1       8.347   8.690  18.338  0.00  0.00    +0.000 A 
ATOM      4  O   UNL     1       7.541   8.693  17.239  0.00  0.00    +0.000 OA
ATOM      5  N   UNL     1       7.126   7.415  16.948  0.00  0.00    +0.000 NA
ENDROOT
BRANCH   3   6
ATOM      6  C   UNL     1       8.849   9.990  18.765  0.00  0.00    +0.000 A 
ATOM      7  C   UNL     1       9.227  10.212  20.101  0.00  0.00    +0.000 A 
ATOM      8  C   UNL     1       9.717  11.453  20.516  0.00  0.00    +0.000 A 
ATOM      9  C   UNL     1       9.831  12.492  19.600  0.00  0.00    +0.000 A 
ATOM     10  C   UNL     1       9.476  12.284  18.264  0.00  0.00    +0.000 A 
ATOM     11  C   UNL     1       8.976  11.046  17.850  0.00  0.00    +0.000 A 
ATOM     12  O   UNL     1       9.587  13.255  17.301  0.00  0.00    +0.000 OA
ATOM     13  C   UNL     1      10.433  14.325  17.737  0.00  0.00    +0.000 C 
ATOM     14  C   UNL     1      10.080  14.750  19.154  0.00  0.00    +0.000 C 
ATOM     15  O   UNL     1      10.310  13.682  20.079  0.00  0.00    +0.000 OA
ENDBRANCH   3   6
BRANCH   1  16
ATOM     16  C   UNL     1       7.416   5.188  17.926  0.00  0.00    +0.000 C 
ATOM     17  O   UNL     1       7.933   4.389  17.153  0.00  0.00    +0.000 OA
BRANCH  16  18
ATOM     18  O   UNL     1       6.547   4.857  18.969  0.00  0.00    +0.000 OA
BRANCH  18  24
ATOM     19  C   UNL     1       1.865   5.736  20.325  0.00  0.00    +0.000 C 
ATOM     20  C   UNL     1       2.864   5.207  19.340  0.00  0.00    +0.000 A 
ATOM     21  C   UNL     1       2.464   4.702  18.097  0.00  0.00    +0.000 A 
ATOM     22  C   UNL     1       3.411   4.224  17.187  0.00  0.00    +0.000 A 
ATOM     23  C   UNL     1       4.766   4.247  17.512  0.00  0.00    +0.000 A 
ATOM     24  C   UNL     1       5.162   4.738  18.754  0.00  0.00    +0.000 A 
ATOM     25  C   UNL     1       4.226   5.228  19.664  0.00  0.00    +0.000 A 
ENDBRANCH  18  24
ENDBRANCH  16  18
ENDBRANCH   1  16
TORSDOF 4
ENDMDL
MODEL 3
REMARK VINA RESULT:      -8.7      1.230      1.805
REMARK  Name = 
REMARK  5 active torsions:
REMARK  status: ('A' for Active; 'I' for Inactive)
REMARK    1  A    between atoms: C_1  and  C_2
REMARK    2  A    between atoms: C_6  and  O_7
REMARK    3  A    between atoms: O_7  and  C_8
REMARK    4  A    between atoms: C_8  and  C_10
REMARK    5  A    between atoms: C_12  and  C_13
REMARK                            x       y       z     vdW  Elec       q    Type
REMARK                         _______ _______ _______ _____ _____    ______ ____
ROOT
ATOM      1  C   UNL     1       7.608   6.832  17.867  0.00  0.00    +0.000 A 
ATOM      2  C   UNL     1       8.354   7.549  18.842  0.00  0.00    +0.000 A 
ATOM      3  C   UNL     1       8.449   8.830  18.348  0.00  0.00    +0.000 A 
ATOM      4  O   UNL     1       7.806   8.872  17.147  0.00  0.00    +0.000 OA
ATOM      5  N   UNL     1       7.286   7.636  16.841  0.00  0.00    +0.000 NA
ENDROOT
BRANCH   3   6
ATOM      6  C   UNL     1       9.038  10.085  18.800  0.00  0.00    +0.000 A 
ATOM      7  C   UNL     1       9.403  10.264  20.146  0.00  0.00    +0.000 A 
ATOM      8  C   UNL     1       9.975  11.460  20.586  0.00  0.00    +0.000 A 
ATOM      9  C   UNL     1      10.186  12.497  19.685  0.00  0.00    +0.000 A 
ATOM     10  C   UNL     1       9.845  12.330  18.340  0.00  0.00    +0.000 A 
ATOM     11  C   UNL     1       9.262  11.138  17.901  0.00  0.00    +0.000 A 
ATOM     12  O   UNL     1      10.048  13.299  17.391  0.00  0.00    +0.000 OA
ATOM     13  C   UNL     1      10.963  14.298  17.857  0.00  0.00    +0.000 C 
ATOM     14  C   UNL     1      10.614  14.735  19.271  0.00  0.00    +0.000 C 
ATOM     15  O   UNL     1      10.744  13.643  20.187  0.00  0.00    +0.000 OA
ENDBRANCH   3   6
BRANCH   1  16
ATOM     16  C   UNL     1       7.176   5.440  17.919  0.00  0.00    +0.000 C 
ATOM     17  O   UNL     1       7.878   4.538  18.362  0.00  0.00    +0.000 OA
BRANCH  16  18
ATOM     18  O   UNL     1       5.872   5.289  17.440  0.00  0.00    +0.000 OA
BRANCH  18  24
ATOM     19  C   UNL     1       2.021   8.376  17.863  0.00  0.00    +0.000 C 
ATOM     20  C   UNL     1       2.838   7.226  18.371  0.00  0.00    +0.000 A 
ATOM     21  C   UNL     1       2.452   6.505  19.509  0.00  0.00    +0.000 A 
ATOM     22  C   UNL     1       3.220   5.429  19.962  0.00  0.00    +0.000 A 
ATOM     23  C   UNL     1       4.380   5.064  19.281  0.00  0.00    +0.000 A 
ATOM     24  C   UNL     1       4.769   5.788  18.156  0.00  0.00    +0.000 A 
ATOM     25  C   UNL     1       4.004   6.856  17.691  0.00  0.00    +0.000 A 
ENDBRANCH  18  24
ENDBRANCH  16  18
ENDBRANCH   1  16
TORSDOF 4
ENDMDL
MODEL 4
REMARK VINA RESULT:      -8.6      0.962      1.610
REMARK  Name = 
REMARK  5 active torsions:
REMARK  status: ('A' for Active; 'I' for Inactive)
REMARK    1  A    between atoms: C_1  and  C_2
REMARK    2  A    between atoms: C_6  and  O_7
REMARK    3  A    between atoms: O_7  and  C_8
REMARK    4  A    between atoms: C_8  and  C_10
REMARK    5  A    between atoms: C_12  and  C_13
REMARK                            x       y       z     vdW  Elec       q    Type
REMARK                         _______ _______ _______ _____ _____    ______ ____
ROOT
ATOM      1  C   UNL     1       7.687   6.439  18.053  0.00  0.00    +0.000 A 
ATOM      2  C   UNL     1       8.324   7.398  18.887  0.00  0.00    +0.000 A 
ATOM      3  C   UNL     1       8.233   8.586  18.197  0.00  0.00    +0.000 A 
ATOM      4  O   UNL     1       7.588   8.347  17.020  0.00  0.00    +0.000 OA
ATOM      5  N   UNL     1       7.251   7.018  16.923  0.00  0.00    +0.000 NA
ENDROOT
BRANCH   3   6
ATOM      6  C   UNL     1       8.637   9.967  18.434  0.00  0.00    +0.000 A 
ATOM      7  C   UNL     1       8.332  10.975  17.502  0.00  0.00    +0.000 A 
ATOM      8  C   UNL     1       8.708  12.302  17.725  0.00  0.00    +0.000 A 
ATOM      9  C   UNL     1       9.399  12.638  18.883  0.00  0.00    +0.000 A 
ATOM     10  C   UNL     1       9.696  11.652  19.828  0.00  0.00    +0.000 A 
ATOM     11  C   UNL     1       9.330  10.323  19.600  0.00  0.00    +0.000 A 
ATOM     12  O   UNL     1      10.352  11.915  21.003  0.00  0.00    +0.000 OA
ATOM     13  C   UNL     1      10.346  13.317  21.299  0.00  0.00    +0.000 C 
ATOM     14  C   UNL     1      10.715  14.131  20.068  0.00  0.00    +0.000 C 
ATOM     15  O   UNL     1       9.743  13.956  19.032  0.00  0.00    +0.000 OA
ENDBRANCH   3   6
BRANCH   1  16
ATOM     16  C   UNL     1       7.459   5.025  18.332  0.00  0.00    +0.000 C 
ATOM     17  O   UNL     1       8.111   4.127  17.811  0.00  0.00    +0.000 OA
BRANCH  16  18
ATOM     18  O   UNL     1       6.446   4.845  19.277  0.00  0.00    +0.000 OA
BRANCH  18  24
ATOM     19  C   UNL     1       2.579   2.168  17.724  0.00  0.00    +0.000 C 
ATOM     20  C   UNL     1       3.166   3.462  18.203  0.00  0.00    +0.000 A 
ATOM     21  C   UNL     1       2.364   4.589  18.424  0.00  0.00    +0.000 A 
ATOM     22  C   UNL     1       2.928   5.783  18.881  0.00  0.00    +0.000 A 
ATOM     23  C   UNL     1       4.299   5.861  19.122  0.00  0.00    +0.000 A 
ATOM     24  C   UNL     1       5.097   4.743  18.891  0.00  0.00    +0.000 A 
ATOM     25  C   UNL     1       4.543   3.544  18.445  0.00  0.00    +0.000 A 
ENDBRANCH  18  24
ENDBRANCH  16  18
ENDBRANCH   1  16
TORSDOF 4
ENDMDL
MODEL 5
REMARK VINA RESULT:      -8.6      5.731      8.952
REMARK  Name = 
REMARK  5 active torsions:
REMARK  status: ('A' for Active; 'I' for Inactive)
REMARK    1  A    between atoms: C_1  and  C_2
REMARK    2  A    between atoms: C_6  and  O_7
REMARK    3  A    between atoms: O_7  and  C_8
REMARK    4  A    between atoms: C_8  and  C_10
REMARK    5  A    between atoms: C_12  and  C_13
REMARK                            x       y       z     vdW  Elec       q    Type
REMARK                         _______ _______ _______ _____ _____    ______ ____
ROOT
ATOM      1  C   UNL     1       0.949   9.717  19.039  0.00  0.00    +0.000 A 
ATOM      2  C   UNL     1       1.596   9.102  17.932  0.00  0.00    +0.000 A 
ATOM      3  C   UNL     1       2.199   7.979  18.451  0.00  0.00    +0.000 A 
ATOM      4  O   UNL     1       1.936   7.932  19.788  0.00  0.00    +0.000 OA
ATOM      5  N   UNL     1       1.165   9.009  20.159  0.00  0.00    +0.000 NA
ENDROOT
BRANCH   3   6
ATOM      6  C   UNL     1       3.001   6.883  17.921  0.00  0.00    +0.000 A 
ATOM      7  C   UNL     1       2.608   5.546  18.112  0.00  0.00    +0.000 A 
ATOM      8  C   UNL     1       3.366   4.490  17.600  0.00  0.00    +0.000 A 
ATOM      9  C   UNL     1       4.532   4.757  16.893  0.00  0.00    +0.000 A 
ATOM     10  C   UNL     1       4.929   6.080  16.678  0.00  0.00    +0.000 A 
ATOM     11  C   UNL     1       4.177   7.136  17.200  0.00  0.00    +0.000 A 
ATOM     12  O   UNL     1       6.053   6.418  15.968  0.00  0.00    +0.000 OA
ATOM     13  C   UNL     1       6.525   5.314  15.187  0.00  0.00    +0.000 C 
ATOM     14  C   UNL     1       6.549   4.038  16.012  0.00  0.00    +0.000 C 
ATOM     15  O   UNL     1       5.229   3.673  16.427  0.00  0.00    +0.000 OA
ENDBRANCH   3   6
BRANCH   1  16
ATOM     16  C   UNL     1       0.118  10.916  19.034  0.00  0.00    +0.000 C 
ATOM     17  O   UNL     1       0.569  12.042  18.851  0.00  0.00    +0.000 OA
BRANCH  16  18
ATOM     18  O   UNL     1      -1.231  10.606  19.226  0.00  0.00    +0.000 OA
BRANCH  18  24
ATOM     19  C   UNL     1      -2.978  10.032  14.628  0.00  0.00    +0.000 C 
ATOM     20  C   UNL     1      -3.116  10.565  16.023  0.00  0.00    +0.000 A 
ATOM     21  C   UNL     1      -4.277  11.231  16.436  0.00  0.00    +0.000 A 
ATOM     22  C   UNL     1      -4.392  11.711  17.744  0.00  0.00    +0.000 A 
ATOM     23  C   UNL     1      -3.348  11.528  18.649  0.00  0.00    +0.000 A 
ATOM     24  C   UNL     1      -2.190  10.875  18.233  0.00  0.00    +0.000 A 
ATOM     25  C   UNL     1      -2.070  10.383  16.934  0.00  0.00    +0.000 A 
ENDBRANCH  18  24
ENDBRANCH  16  18
ENDBRANCH   1  16
TORSDOF 4
ENDMDL
MODEL 6
REMARK VINA RESULT:      -8.6      1.043      2.187
REMARK  Name = 
REMARK  5 active torsions:
REMARK  status: ('A' for Active; 'I' for Inactive)
REMARK    1  A    between atoms: C_1  and  C_2
REMARK    2  A    between atoms: C_6  and  O_7
REMARK    3  A    between atoms: O_7  and  C_8
REMARK    4  A    between atoms: C_8  and  C_10
REMARK    5  A    between atoms: C_12  and  C_13
REMARK                            x       y       z     vdW  Elec       q    Type
REMARK                         _______ _______ _______ _____ _____    ______ ____
ROOT
ATOM      1  C   UNL     1       7.699   6.389  17.894  0.00  0.00    +0.000 A 
ATOM      2  C   UNL     1       8.359   7.287  18.776  0.00  0.00    +0.000 A 
ATOM      3  C   UNL     1       8.251   8.521  18.174  0.00  0.00    +0.000 A 
ATOM      4  O   UNL     1       7.576   8.365  17.000  0.00  0.00    +0.000 OA
ATOM      5  N   UNL     1       7.235   7.046  16.819  0.00  0.00    +0.000 NA
ENDROOT
BRANCH   3   6
ATOM      6  C   UNL     1       8.662   9.882  18.498  0.00  0.00    +0.000 A 
ATOM      7  C   UNL     1       8.586  10.904  17.535  0.00  0.00    +0.000 A 
ATOM      8  C   UNL     1       8.971  12.212  17.839  0.00  0.00    +0.000 A 
ATOM      9  C   UNL     1       9.441  12.516  19.111  0.00  0.00    +0.000 A 
ATOM     10  C   UNL     1       9.507  11.516  20.085  0.00  0.00    +0.000 A 
ATOM     11  C   UNL     1       9.134  10.205  19.779  0.00  0.00    +0.000 A 
ATOM     12  O   UNL     1       9.937  11.748  21.367  0.00  0.00    +0.000 OA
ATOM     13  C   UNL     1       9.936  13.148  21.670  0.00  0.00    +0.000 C 
ATOM     14  C   UNL     1      10.569  13.946  20.541  0.00  0.00    +0.000 C 
ATOM     15  O   UNL     1       9.807  13.816  19.336  0.00  0.00    +0.000 OA
ENDBRANCH   3   6
BRANCH   1  16
ATOM     16  C   UNL     1       7.477   4.959  18.077  0.00  0.00    +0.000 C 
ATOM     17  O   UNL     1       8.115   4.100  17.478  0.00  0.00    +0.000 OA
BRANCH  16  18
ATOM     18  O   UNL     1       6.488   4.712  19.033  0.00  0.00    +0.000 OA
BRANCH  18  24
ATOM     19  C   UNL     1       2.196   7.073  18.297  0.00  0.00    +0.000 C 
ATOM     20  C   UNL     1       3.030   5.827  18.246  0.00  0.00    +0.000 A 
ATOM     21  C   UNL     1       2.524   4.634  17.714  0.00  0.00    +0.000 A 
ATOM     22  C   UNL     1       3.320   3.486  17.665  0.00  0.00    +0.000 A 
ATOM     23  C   UNL     1       4.627   3.521  18.147  0.00  0.00    +0.000 A 
ATOM     24  C   UNL     1       5.125   4.705  18.687  0.00  0.00    +0.000 A 
ATOM     25  C   UNL     1       4.342   5.858  18.730  0.00  0.00    +0.000 A 
ENDBRANCH  18  24
ENDBRANCH  16  18
ENDBRANCH   1  16
TORSDOF 4
ENDMDL
MODEL 7
REMARK VINA RESULT:      -8.5      1.059      1.100
REMARK  Name = 
REMARK  5 active torsions:
REMARK  status: ('A' for Active; 'I' for Inactive)
REMARK    1  A    between atoms: C_1  and  C_2
REMARK    2  A    between atoms: C_6  and  O_7
REMARK    3  A    between atoms: O_7  and  C_8
REMARK    4  A    between atoms: C_8  and  C_10
REMARK    5  A    between atoms: C_12  and  C_13
REMARK                            x       y       z     vdW  Elec       q    Type
REMARK                         _______ _______ _______ _____ _____    ______ ____
ROOT
ATOM      1  C   UNL     1       7.275   7.212  17.634  0.00  0.00    +0.000 A 
ATOM      2  C   UNL     1       7.493   8.604  17.443  0.00  0.00    +0.000 A 
ATOM      3  C   UNL     1       8.444   8.948  18.377  0.00  0.00    +0.000 A 
ATOM      4  O   UNL     1       8.768   7.829  19.087  0.00  0.00    +0.000 OA
ATOM      5  N   UNL     1       8.044   6.752  18.634  0.00  0.00    +0.000 NA
ENDROOT
BRANCH   3   6
ATOM      6  C   UNL     1       9.154  10.166  18.749  0.00  0.00    +0.000 A 
ATOM      7  C   UNL     1       9.490  10.422  20.090  0.00  0.00    +0.000 A 
ATOM      8  C   UNL     1      10.176  11.583  20.454  0.00  0.00    +0.000 A 
ATOM      9  C   UNL     1      10.533  12.508  19.480  0.00  0.00    +0.000 A 
ATOM     10  C   UNL     1      10.222  12.261  18.140  0.00  0.00    +0.000 A 
ATOM     11  C   UNL     1       9.525  11.106  17.776  0.00  0.00    +0.000 A 
ATOM     12  O   UNL     1      10.565  13.116  17.123  0.00  0.00    +0.000 OA
ATOM     13  C   UNL     1      11.569  14.047  17.544  0.00  0.00    +0.000 C 
ATOM     14  C   UNL     1      11.222  14.641  18.900  0.00  0.00    +0.000 C 
ATOM     15  O   UNL     1      11.197  13.626  19.909  0.00  0.00    +0.000 OA
ENDBRANCH   3   6
BRANCH   1  16
ATOM     16  C   UNL     1       6.398   6.333  16.869  0.00  0.00    +0.000 C 
ATOM     17  O   UNL     1       6.154   6.501  15.679  0.00  0.00    +0.000 OA
BRANCH  16  18
ATOM     18  O   UNL     1       5.918   5.280  17.652  0.00  0.00    +0.000 OA
BRANCH  18  24
ATOM     19  C   UNL     1       2.198   2.031  18.028  0.00  0.00    +0.000 C 
ATOM     20  C   UNL     1       2.702   3.443  17.973  0.00  0.00    +0.000 A 
ATOM     21  C   UNL     1       1.836   4.532  18.130  0.00  0.00    +0.000 A 
ATOM     22  C   UNL     1       2.325   5.840  18.087  0.00  0.00    +0.000 A 
ATOM     23  C   UNL     1       3.685   6.071  17.886  0.00  0.00    +0.000 A 
ATOM     24  C   UNL     1       4.544   4.987  17.718  0.00  0.00    +0.000 A 
ATOM     25  C   UNL     1       4.067   3.678  17.770  0.00  0.00    +0.000 A 
ENDBRANCH  18  24
ENDBRANCH  16  18
ENDBRANCH   1  16
TORSDOF 4
ENDMDL
MODEL 8
REMARK VINA RESULT:      -8.3      1.212      1.684
REMARK  Name = 
REMARK  5 active torsions:
REMARK  status: ('A' for Active; 'I' for Inactive)
REMARK    1  A    between atoms: C_1  and  C_2
REMARK    2  A    between atoms: C_6  and  O_7
REMARK    3  A    between atoms: O_7  and  C_8
REMARK    4  A    between atoms: C_8  and  C_10
REMARK    5  A    between atoms: C_12  and  C_13
REMARK                            x       y       z     vdW  Elec       q    Type
REMARK                         _______ _______ _______ _____ _____    ______ ____
ROOT
ATOM      1  C   UNL     1       7.524   7.123  17.559  0.00  0.00    +0.000 A 
ATOM      2  C   UNL     1       7.702   8.515  17.336  0.00  0.00    +0.000 A 
ATOM      3  C   UNL     1       8.475   8.949  18.390  0.00  0.00    +0.000 A 
ATOM      4  O   UNL     1       8.733   7.880  19.197  0.00  0.00    +0.000 OA
ATOM      5  N   UNL     1       8.143   6.747  18.689  0.00  0.00    +0.000 NA
ENDROOT
BRANCH   3   6
ATOM      6  C   UNL     1       9.056  10.218  18.808  0.00  0.00    +0.000 A 
ATOM      7  C   UNL     1       9.428  10.433  20.147  0.00  0.00    +0.000 A 
ATOM      8  C   UNL     1       9.993  11.644  20.554  0.00  0.00    +0.000 A 
ATOM      9  C   UNL     1      10.191  12.660  19.627  0.00  0.00    +0.000 A 
ATOM     10  C   UNL     1       9.844  12.458  18.289  0.00  0.00    +0.000 A 
ATOM     11  C   UNL     1       9.267  11.251  17.883  0.00  0.00    +0.000 A 
ATOM     12  O   UNL     1      10.034  13.405  17.315  0.00  0.00    +0.000 OA
ATOM     13  C   UNL     1      10.943  14.422  17.751  0.00  0.00    +0.000 C 
ATOM     14  C   UNL     1      10.599  14.890  19.156  0.00  0.00    +0.000 C 
ATOM     15  O   UNL     1      10.742  13.822  20.098  0.00  0.00    +0.000 OA
ENDBRANCH   3   6
BRANCH   1  16
ATOM     16  C   UNL     1       6.823   6.165  16.710  0.00  0.00    +0.000 C 
ATOM     17  O   UNL     1       7.386   5.231  16.150  0.00  0.00    +0.000 OA
BRANCH  16  18
ATOM     18  O   UNL     1       5.453   6.435  16.656  0.00  0.00    +0.000 OA
BRANCH  18  24
ATOM     19  C   UNL     1       2.053   5.752  20.192  0.00  0.00    +0.000 C 
ATOM     20  C   UNL     1       2.806   5.266  18.990  0.00  0.00    +0.000 A 
ATOM     21  C   UNL     1       2.510   4.033  18.394  0.00  0.00    +0.000 A 
ATOM     22  C   UNL     1       3.215   3.601  17.267  0.00  0.00    +0.000 A 
ATOM     23  C   UNL     1       4.221   4.399  16.726  0.00  0.00    +0.000 A 
ATOM     24  C   UNL     1       4.522   5.620  17.325  0.00  0.00    +0.000 A 
ATOM     25  C   UNL     1       3.818   6.063  18.443  0.00  0.00    +0.000 A 
ENDBRANCH  18  24
ENDBRANCH  16  18
ENDBRANCH   1  16
TORSDOF 4
ENDMDL
MODEL 9
REMARK VINA RESULT:      -8.3      5.261      7.482
REMARK  Name = 
REMARK  5 active torsions:
REMARK  status: ('A' for Active; 'I' for Inactive)
REMARK    1  A    between atoms: C_1  and  C_2
REMARK    2  A    between atoms: C_6  and  O_7
REMARK    3  A    between atoms: O_7  and  C_8
REMARK    4  A    between atoms: C_8  and  C_10
REMARK    5  A    between atoms: C_12  and  C_13
REMARK                            x       y       z     vdW  Elec       q    Type
REMARK                         _______ _______ _______ _____ _____    ______ ____
ROOT
ATOM      1  C   UNL     1       3.206   4.591  19.755  0.00  0.00    +0.000 A 
ATOM      2  C   UNL     1       3.173   5.904  19.212  0.00  0.00    +0.000 A 
ATOM      3  C   UNL     1       2.255   6.584  19.980  0.00  0.00    +0.000 A 
ATOM      4  O   UNL     1       1.763   5.725  20.917  0.00  0.00    +0.000 OA
ATOM      5  N   UNL     1       2.345   4.487  20.780  0.00  0.00    +0.000 NA
ENDROOT
BRANCH   3   6
ATOM      6  C   UNL     1       1.728   7.943  20.022  0.00  0.00    +0.000 A 
ATOM      7  C   UNL     1       1.654   8.722  18.854  0.00  0.00    +0.000 A 
ATOM      8  C   UNL     1       1.143  10.022  18.885  0.00  0.00    +0.000 A 
ATOM      9  C   UNL     1       0.703  10.563  20.086  0.00  0.00    +0.000 A 
ATOM     10  C   UNL     1       0.753   9.797  21.254  0.00  0.00    +0.000 A 
ATOM     11  C   UNL     1       1.275   8.501  21.227  0.00  0.00    +0.000 A 
ATOM     12  O   UNL     1       0.313  10.256  22.469  0.00  0.00    +0.000 OA
ATOM     13  C   UNL     1      -0.518  11.412  22.318  0.00  0.00    +0.000 C 
ATOM     14  C   UNL     1       0.109  12.407  21.354  0.00  0.00    +0.000 C 
ATOM     15  O   UNL     1       0.222  11.845  20.043  0.00  0.00    +0.000 OA
ENDBRANCH   3   6
BRANCH   1  16
ATOM     16  C   UNL     1       4.053   3.476  19.344  0.00  0.00    +0.000 C 
ATOM     17  O   UNL     1       3.606   2.424  18.901  0.00  0.00    +0.000 OA
BRANCH  16  18
ATOM     18  O   UNL     1       5.409   3.782  19.488  0.00  0.00    +0.000 OA
BRANCH  18  24
ATOM     19  C   UNL     1       6.236   5.074  14.779  0.00  0.00    +0.000 C 
ATOM     20  C   UNL     1       6.474   5.260  16.248  0.00  0.00    +0.000 A 
ATOM     21  C   UNL     1       7.276   6.303  16.729  0.00  0.00    +0.000 A 
ATOM     22  C   UNL     1       7.478   6.467  18.103  0.00  0.00    +0.000 A 
ATOM     23  C   UNL     1       6.878   5.591  19.006  0.00  0.00    +0.000 A 
ATOM     24  C   UNL     1       6.090   4.548  18.526  0.00  0.00    +0.000 A 
ATOM     25  C   UNL     1       5.875   4.382  17.158  0.00  0.00    +0.000 A 
ENDBRANCH  18  24
ENDBRANCH  16  18
ENDBRANCH   1  16
TORSDOF 4
ENDMDL
