MODEL 1
REMARK VINA RESULT:      -7.3      0.000      0.000
REMARK  Name = 
REMARK  3 active torsions:
REMARK  status: ('A' for Active; 'I' for Inactive)
REMARK    1  A    between atoms: C_1  and  S_2
REMARK    2  A    between atoms: S_2  and  C_3
REMARK    3  A    between atoms: C_9  and  C_10
REMARK                            x       y       z     vdW  Elec       q    Type
REMARK                         _______ _______ _______ _____ _____    ______ ____
ROOT
ATOM      1  C   UNL     1       3.088   4.031  19.933  0.00  0.00    +0.000 A 
ATOM      2  N   UNL     1       3.306   2.781  19.510  0.00  0.00    +0.000 NA
ATOM      3  C   UNL     1       3.906   2.650  18.318  0.00  0.00    +0.000 A 
ATOM      4  N   UNL     1       4.052   1.332  17.852  0.00  0.00    +0.000 N 
ATOM      5  C   UNL     1       4.304   3.721  17.523  0.00  0.00    +0.000 A 
ATOM      6  N   UNL     1       4.953   3.575  16.326  0.00  0.00    +0.000 NA
ATOM      7  C   UNL     1       5.312   4.707  15.678  0.00  0.00    +0.000 A 
ATOM      8  C   UNL     1       4.992   5.936  16.235  0.00  0.00    +0.000 A 
ATOM      9  N   UNL     1       4.354   6.078  17.424  0.00  0.00    +0.000 NA
ATOM     10  C   UNL     1       4.013   4.970  18.082  0.00  0.00    +0.000 A 
ATOM     11  N   UNL     1       3.419   5.130  19.255  0.00  0.00    +0.000 NA
ATOM     12  H   UNL     1       3.859   0.680  18.604  0.00  0.00    +0.000 HD
ATOM     13  H   UNL     1       4.942   1.196  17.382  0.00  0.00    +0.000 HD
ENDROOT
BRANCH   7  14
ATOM     14  C   UNL     1       6.039   4.546  14.407  0.00  0.00    +0.000 A 
ATOM     15  C   UNL     1       5.582   3.652  13.422  0.00  0.00    +0.000 A 
ATOM     16  C   UNL     1       6.255   3.500  12.206  0.00  0.00    +0.000 A 
ATOM     17  C   UNL     1       7.410   4.236  11.952  0.00  0.00    +0.000 A 
ATOM     18  C   UNL     1       7.893   5.115  12.914  0.00  0.00    +0.000 A 
ATOM     19  C   UNL     1       7.216   5.266  14.129  0.00  0.00    +0.000 A 
ENDBRANCH   7  14
BRANCH   1  21
ATOM     20  C   UNL     1       1.440   2.627  21.639  0.00  0.00    +0.000 C 
ATOM     21  S   UNL     1       2.318   4.208  21.526  0.00  0.00    +0.000 S 
ENDBRANCH   1  21
TORSDOF 2
ENDMDL
MODEL 2
REMARK VINA RESULT:      -7.3      0.045      1.104
REMARK  Name = 
REMARK  3 active torsions:
REMARK  status: ('A' for Active; 'I' for Inactive)
REMARK    1  A    between atoms: C_1  and  S_2
REMARK    2  A    between atoms: S_2  and  C_3
REMARK    3  A    between atoms: C_9  and  C_10
REMARK                            x       y       z     vdW  Elec       q    Type
REMARK                         _______ _______ _______ _____ _____    ______ ____
ROOT
ATOM      1  C   UNL     1       3.048   4.013  19.920  0.00  0.00    +0.000 A 
ATOM      2  N   UNL     1       3.252   2.764  19.487  0.00  0.00    +0.000 NA
ATOM      3  C   UNL     1       3.852   2.635  18.295  0.00  0.00    +0.000 A 
ATOM      4  N   UNL     1       3.982   1.319  17.820  0.00  0.00    +0.000 N 
ATOM      5  C   UNL     1       4.263   3.707  17.509  0.00  0.00    +0.000 A 
ATOM      6  N   UNL     1       4.912   3.562  16.312  0.00  0.00    +0.000 NA
ATOM      7  C   UNL     1       5.285   4.695  15.672  0.00  0.00    +0.000 A 
ATOM      8  C   UNL     1       4.979   5.923  16.239  0.00  0.00    +0.000 A 
ATOM      9  N   UNL     1       4.342   6.064  17.428  0.00  0.00    +0.000 NA
ATOM     10  C   UNL     1       3.987   4.955  18.077  0.00  0.00    +0.000 A 
ATOM     11  N   UNL     1       3.394   5.113  19.251  0.00  0.00    +0.000 NA
ATOM     12  H   UNL     1       3.780   0.663  18.566  0.00  0.00    +0.000 HD
ATOM     13  H   UNL     1       4.871   1.176  17.349  0.00  0.00    +0.000 HD
ENDROOT
BRANCH   7  14
ATOM     14  C   UNL     1       6.011   4.535  14.401  0.00  0.00    +0.000 A 
ATOM     15  C   UNL     1       7.191   5.258  14.148  0.00  0.00    +0.000 A 
ATOM     16  C   UNL     1       7.897   5.106  12.951  0.00  0.00    +0.000 A 
ATOM     17  C   UNL     1       7.431   4.231  11.974  0.00  0.00    +0.000 A 
ATOM     18  C   UNL     1       6.260   3.514  12.191  0.00  0.00    +0.000 A 
ATOM     19  C   UNL     1       5.556   3.668  13.390  0.00  0.00    +0.000 A 
ENDBRANCH   7  14
BRANCH   1  21
ATOM     20  C   UNL     1       1.478   2.569  21.665  0.00  0.00    +0.000 C 
ATOM     21  S   UNL     1       2.279   4.187  21.514  0.00  0.00    +0.000 S 
ENDBRANCH   1  21
TORSDOF 2
ENDMDL
MODEL 3
REMARK VINA RESULT:      -6.8      4.949      8.262
REMARK  Name = 
REMARK  3 active torsions:
REMARK  status: ('A' for Active; 'I' for Inactive)
REMARK    1  A    between atoms: C_1  and  S_2
REMARK    2  A    between atoms: S_2  and  C_3
REMARK    3  A    between atoms: C_9  and  C_10
REMARK                            x       y       z     vdW  Elec       q    Type
REMARK                         _______ _______ _______ _____ _____    ______ ____
ROOT
ATOM      1  C   UNL     1       3.789   5.235  17.865  0.00  0.00    +0.000 A 
ATOM      2  N   UNL     1       3.495   4.701  19.054  0.00  0.00    +0.000 NA
ATOM      3  C   UNL     1       2.802   5.474  19.902  0.00  0.00    +0.000 A 
ATOM      4  N   UNL     1       2.574   4.928  21.177  0.00  0.00    +0.000 N 
ATOM      5  C   UNL     1       2.384   6.769  19.612  0.00  0.00    +0.000 A 
ATOM      6  N   UNL     1       1.641   7.535  20.470  0.00  0.00    +0.000 NA
ATOM      7  C   UNL     1       1.275   8.765  20.040  0.00  0.00    +0.000 A 
ATOM      8  C   UNL     1       1.680   9.189  18.783  0.00  0.00    +0.000 A 
ATOM      9  N   UNL     1       2.411   8.427  17.932  0.00  0.00    +0.000 NA
ATOM     10  C   UNL     1       2.761   7.206  18.337  0.00  0.00    +0.000 A 
ATOM     11  N   UNL     1       3.447   6.464  17.480  0.00  0.00    +0.000 NA
ATOM     12  H   UNL     1       2.800   3.939  21.171  0.00  0.00    +0.000 HD
ATOM     13  H   UNL     1       1.646   5.155  21.523  0.00  0.00    +0.000 HD
ENDROOT
BRANCH   7  14
ATOM     14  C   UNL     1       0.449   9.573  20.952  0.00  0.00    +0.000 A 
ATOM     15  C   UNL     1       0.274   9.194  22.295  0.00  0.00    +0.000 A 
ATOM     16  C   UNL     1      -0.496   9.959  23.175  0.00  0.00    +0.000 A 
ATOM     17  C   UNL     1      -1.119  11.121  22.726  0.00  0.00    +0.000 A 
ATOM     18  C   UNL     1      -0.977  11.512  21.400  0.00  0.00    +0.000 A 
ATOM     19  C   UNL     1      -0.203  10.744  20.522  0.00  0.00    +0.000 A 
ENDBRANCH   7  14
BRANCH   1  21
ATOM     20  C   UNL     1       5.363   5.459  15.613  0.00  0.00    +0.000 C 
ATOM     21  S   UNL     1       4.683   4.201  16.727  0.00  0.00    +0.000 S 
ENDBRANCH   1  21
TORSDOF 2
ENDMDL
MODEL 4
REMARK VINA RESULT:      -6.8      4.963      8.267
REMARK  Name = 
REMARK  3 active torsions:
REMARK  status: ('A' for Active; 'I' for Inactive)
REMARK    1  A    between atoms: C_1  and  S_2
REMARK    2  A    between atoms: S_2  and  C_3
REMARK    3  A    between atoms: C_9  and  C_10
REMARK                            x       y       z     vdW  Elec       q    Type
REMARK                         _______ _______ _______ _____ _____    ______ ____
ROOT
ATOM      1  C   UNL     1       3.746   5.204  17.891  0.00  0.00    +0.000 A 
ATOM      2  N   UNL     1       3.435   4.674  19.079  0.00  0.00    +0.000 NA
ATOM      3  C   UNL     1       2.749   5.459  19.922  0.00  0.00    +0.000 A 
ATOM      4  N   UNL     1       2.503   4.915  21.195  0.00  0.00    +0.000 N 
ATOM      5  C   UNL     1       2.354   6.761  19.630  0.00  0.00    +0.000 A 
ATOM      6  N   UNL     1       1.618   7.538  20.483  0.00  0.00    +0.000 NA
ATOM      7  C   UNL     1       1.275   8.773  20.051  0.00  0.00    +0.000 A 
ATOM      8  C   UNL     1       1.695   9.192  18.797  0.00  0.00    +0.000 A 
ATOM      9  N   UNL     1       2.420   8.418  17.951  0.00  0.00    +0.000 NA
ATOM     10  C   UNL     1       2.746   7.191  18.357  0.00  0.00    +0.000 A 
ATOM     11  N   UNL     1       3.427   6.440  17.505  0.00  0.00    +0.000 NA
ATOM     12  H   UNL     1       2.713   3.923  21.190  0.00  0.00    +0.000 HD
ATOM     13  H   UNL     1       1.577   5.158  21.535  0.00  0.00    +0.000 HD
ENDROOT
BRANCH   7  14
ATOM     14  C   UNL     1       0.455   9.595  20.958  0.00  0.00    +0.000 A 
ATOM     15  C   UNL     1      -0.163  10.774  20.505  0.00  0.00    +0.000 A 
ATOM     16  C   UNL     1      -0.954  11.555  21.351  0.00  0.00    +0.000 A 
ATOM     17  C   UNL     1      -1.137  11.177  22.679  0.00  0.00    +0.000 A 
ATOM     18  C   UNL     1      -0.525  10.025  23.159  0.00  0.00    +0.000 A 
ATOM     19  C   UNL     1       0.264   9.244  22.308  0.00  0.00    +0.000 A 
ENDBRANCH   7  14
BRANCH   1  21
ATOM     20  C   UNL     1       5.338   5.404  15.650  0.00  0.00    +0.000 C 
ATOM     21  S   UNL     1       4.631   4.157  16.759  0.00  0.00    +0.000 S 
ENDBRANCH   1  21
TORSDOF 2
ENDMDL
MODEL 5
REMARK VINA RESULT:      -6.7      4.022      5.495
REMARK  Name = 
REMARK  3 active torsions:
REMARK  status: ('A' for Active; 'I' for Inactive)
REMARK    1  A    between atoms: C_1  and  S_2
REMARK    2  A    between atoms: S_2  and  C_3
REMARK    3  A    between atoms: C_9  and  C_10
REMARK                            x       y       z     vdW  Elec       q    Type
REMARK                         _______ _______ _______ _____ _____    ______ ____
ROOT
ATOM      1  C   UNL     1       0.533   9.728  20.707  0.00  0.00    +0.000 A 
ATOM      2  N   UNL     1       0.806  10.380  19.572  0.00  0.00    +0.000 NA
ATOM      3  C   UNL     1       1.583   9.739  18.687  0.00  0.00    +0.000 A 
ATOM      4  N   UNL     1       1.927  10.471  17.538  0.00  0.00    +0.000 N 
ATOM      5  C   UNL     1       2.101   8.463  18.885  0.00  0.00    +0.000 A 
ATOM      6  N   UNL     1       2.859   7.801  17.955  0.00  0.00    +0.000 NA
ATOM      7  C   UNL     1       3.266   6.550  18.270  0.00  0.00    +0.000 A 
ATOM      8  C   UNL     1       2.921   6.016  19.503  0.00  0.00    +0.000 A 
ATOM      9  N   UNL     1       2.165   6.671  20.420  0.00  0.00    +0.000 NA
ATOM     10  C   UNL     1       1.741   7.897  20.113  0.00  0.00    +0.000 A 
ATOM     11  N   UNL     1       0.978   8.508  21.007  0.00  0.00    +0.000 NA
ATOM     12  H   UNL     1       1.352  11.304  17.477  0.00  0.00    +0.000 HD
ATOM     13  H   UNL     1       1.930   9.887  16.706  0.00  0.00    +0.000 HD
ENDROOT
BRANCH   7  14
ATOM     14  C   UNL     1       4.053   5.829  17.255  0.00  0.00    +0.000 A 
ATOM     15  C   UNL     1       4.061   4.423  17.212  0.00  0.00    +0.000 A 
ATOM     16  C   UNL     1       4.793   3.727  16.246  0.00  0.00    +0.000 A 
ATOM     17  C   UNL     1       5.543   4.425  15.304  0.00  0.00    +0.000 A 
ATOM     18  C   UNL     1       5.567   5.815  15.332  0.00  0.00    +0.000 A 
ATOM     19  C   UNL     1       4.832   6.508  16.299  0.00  0.00    +0.000 A 
ENDBRANCH   7  14
BRANCH   1  21
ATOM     20  C   UNL     1      -0.201   9.580  23.359  0.00  0.00    +0.000 C 
ATOM     21  S   UNL     1      -0.520  10.564  21.871  0.00  0.00    +0.000 S 
ENDBRANCH   1  21
TORSDOF 2
ENDMDL
MODEL 6
REMARK VINA RESULT:      -6.6      4.606      6.289
REMARK  Name = 
REMARK  3 active torsions:
REMARK  status: ('A' for Active; 'I' for Inactive)
REMARK    1  A    between atoms: C_1  and  S_2
REMARK    2  A    between atoms: S_2  and  C_3
REMARK    3  A    between atoms: C_9  and  C_10
REMARK                            x       y       z     vdW  Elec       q    Type
REMARK                         _______ _______ _______ _____ _____    ______ ____
ROOT
ATOM      1  C   UNL     1       0.222  10.527  20.724  0.00  0.00    +0.000 A 
ATOM      2  N   UNL     1       0.670  11.089  19.596  0.00  0.00    +0.000 NA
ATOM      3  C   UNL     1       1.441  10.323  18.812  0.00  0.00    +0.000 A 
ATOM      4  N   UNL     1       1.970  10.955  17.674  0.00  0.00    +0.000 N 
ATOM      5  C   UNL     1       1.787   9.007  19.105  0.00  0.00    +0.000 A 
ATOM      6  N   UNL     1       2.542   8.220  18.277  0.00  0.00    +0.000 NA
ATOM      7  C   UNL     1       2.770   6.948  18.675  0.00  0.00    +0.000 A 
ATOM      8  C   UNL     1       2.257   6.516  19.889  0.00  0.00    +0.000 A 
ATOM      9  N   UNL     1       1.504   7.295  20.705  0.00  0.00    +0.000 NA
ATOM     10  C   UNL     1       1.255   8.545  20.315  0.00  0.00    +0.000 A 
ATOM     11  N   UNL     1       0.493   9.281  21.110  0.00  0.00    +0.000 NA
ATOM     12  H   UNL     1       1.504  11.844  17.528  0.00  0.00    +0.000 HD
ATOM     13  H   UNL     1       1.978  10.335  16.869  0.00  0.00    +0.000 HD
ENDROOT
BRANCH   7  14
ATOM     14  C   UNL     1       3.555   6.094  17.766  0.00  0.00    +0.000 A 
ATOM     15  C   UNL     1       4.511   6.652  16.898  0.00  0.00    +0.000 A 
ATOM     16  C   UNL     1       5.272   5.852  16.040  0.00  0.00    +0.000 A 
ATOM     17  C   UNL     1       5.085   4.473  16.025  0.00  0.00    +0.000 A 
ATOM     18  C   UNL     1       4.135   3.896  16.861  0.00  0.00    +0.000 A 
ATOM     19  C   UNL     1       3.377   4.699  17.720  0.00  0.00    +0.000 A 
ENDBRANCH   7  14
BRANCH   1  21
ATOM     20  C   UNL     1      -0.955  10.471  23.215  0.00  0.00    +0.000 C 
ATOM     21  S   UNL     1      -0.825  11.532  21.752  0.00  0.00    +0.000 S 
ENDBRANCH   1  21
TORSDOF 2
ENDMDL
MODEL 7
REMARK VINA RESULT:      -6.6      4.943      8.151
REMARK  Name = 
REMARK  3 active torsions:
REMARK  status: ('A' for Active; 'I' for Inactive)
REMARK    1  A    between atoms: C_1  and  S_2
REMARK    2  A    between atoms: S_2  and  C_3
REMARK    3  A    between atoms: C_9  and  C_10
REMARK                            x       y       z     vdW  Elec       q    Type
REMARK                         _______ _______ _______ _____ _____    ______ ____
ROOT
ATOM      1  C   UNL     1       3.487   4.826  18.237  0.00  0.00    +0.000 A 
ATOM      2  N   UNL     1       3.192   4.393  19.467  0.00  0.00    +0.000 NA
ATOM      3  C   UNL     1       2.574   5.265  20.276  0.00  0.00    +0.000 A 
ATOM      4  N   UNL     1       2.347   4.820  21.590  0.00  0.00    +0.000 N 
ATOM      5  C   UNL     1       2.232   6.562  19.908  0.00  0.00    +0.000 A 
ATOM      6  N   UNL     1       1.563   7.430  20.729  0.00  0.00    +0.000 NA
ATOM      7  C   UNL     1       1.265   8.650  20.225  0.00  0.00    +0.000 A 
ATOM      8  C   UNL     1       1.661   8.963  18.933  0.00  0.00    +0.000 A 
ATOM      9  N   UNL     1       2.318   8.099  18.119  0.00  0.00    +0.000 NA
ATOM     10  C   UNL     1       2.600   6.887  18.598  0.00  0.00    +0.000 A 
ATOM     11  N   UNL     1       3.213   6.048  17.777  0.00  0.00    +0.000 NA
ATOM     12  H   UNL     1       2.509   3.820  21.646  0.00  0.00    +0.000 HD
ATOM     13  H   UNL     1       1.445   5.130  21.941  0.00  0.00    +0.000 HD
ENDROOT
BRANCH   7  14
ATOM     14  C   UNL     1       0.517   9.570  21.099  0.00  0.00    +0.000 A 
ATOM     15  C   UNL     1       0.323  10.914  20.735  0.00  0.00    +0.000 A 
ATOM     16  C   UNL     1      -0.396  11.794  21.549  0.00  0.00    +0.000 A 
ATOM     17  C   UNL     1      -0.930  11.348  22.756  0.00  0.00    +0.000 A 
ATOM     18  C   UNL     1      -0.740  10.028  23.148  0.00  0.00    +0.000 A 
ATOM     19  C   UNL     1      -0.022   9.150  22.330  0.00  0.00    +0.000 A 
ENDBRANCH   7  14
BRANCH   1  21
ATOM     20  C   UNL     1       3.526   2.119  17.725  0.00  0.00    +0.000 C 
ATOM     21  S   UNL     1       4.281   3.663  17.151  0.00  0.00    +0.000 S 
ENDBRANCH   1  21
TORSDOF 2
ENDMDL
MODEL 8
REMARK VINA RESULT:      -6.6      2.831      6.881
REMARK  Name = 
REMARK  3 active torsions:
REMARK  status: ('A' for Active; 'I' for Inactive)
REMARK    1  A    between atoms: C_1  and  S_2
REMARK    2  A    between atoms: S_2  and  C_3
REMARK    3  A    between atoms: C_9  and  C_10
REMARK                            x       y       z     vdW  Elec       q    Type
REMARK                         _______ _______ _______ _____ _____    ______ ____
ROOT
ATOM      1  C   UNL     1       6.973   4.738  14.753  0.00  0.00    +0.000 A 
ATOM      2  N   UNL     1       7.699   4.750  15.876  0.00  0.00    +0.000 NA
ATOM      3  C   UNL     1       7.038   4.512  17.018  0.00  0.00    +0.000 A 
ATOM      4  N   UNL     1       7.800   4.611  18.194  0.00  0.00    +0.000 N 
ATOM      5  C   UNL     1       5.671   4.257  17.089  0.00  0.00    +0.000 A 
ATOM      6  N   UNL     1       5.014   3.974  18.257  0.00  0.00    +0.000 NA
ATOM      7  C   UNL     1       3.690   3.712  18.171  0.00  0.00    +0.000 A 
ATOM      8  C   UNL     1       3.070   3.763  16.931  0.00  0.00    +0.000 A 
ATOM      9  N   UNL     1       3.724   4.037  15.774  0.00  0.00    +0.000 NA
ATOM     10  C   UNL     1       5.033   4.277  15.844  0.00  0.00    +0.000 A 
ATOM     11  N   UNL     1       5.660   4.512  14.701  0.00  0.00    +0.000 NA
ATOM     12  H   UNL     1       8.787   4.646  17.961  0.00  0.00    +0.000 HD
ATOM     13  H   UNL     1       7.542   3.897  18.871  0.00  0.00    +0.000 HD
ENDROOT
BRANCH   7  14
ATOM     14  C   UNL     1       2.993   3.377  19.424  0.00  0.00    +0.000 A 
ATOM     15  C   UNL     1       1.684   3.831  19.666  0.00  0.00    +0.000 A 
ATOM     16  C   UNL     1       1.006   3.509  20.845  0.00  0.00    +0.000 A 
ATOM     17  C   UNL     1       1.629   2.729  21.816  0.00  0.00    +0.000 A 
ATOM     18  C   UNL     1       2.928   2.278  21.610  0.00  0.00    +0.000 A 
ATOM     19  C   UNL     1       3.603   2.602  20.428  0.00  0.00    +0.000 A 
ENDBRANCH   7  14
BRANCH   1  21
ATOM     20  C   UNL     1       6.954   3.908  12.125  0.00  0.00    +0.000 C 
ATOM     21  S   UNL     1       7.852   5.025  13.234  0.00  0.00    +0.000 S 
ENDBRANCH   1  21
TORSDOF 2
ENDMDL
MODEL 9
REMARK VINA RESULT:      -6.6      4.902      8.085
REMARK  Name = 
REMARK  3 active torsions:
REMARK  status: ('A' for Active; 'I' for Inactive)
REMARK    1  A    between atoms: C_1  and  S_2
REMARK    2  A    between atoms: S_2  and  C_3
REMARK    3  A    between atoms: C_9  and  C_10
REMARK                            x       y       z     vdW  Elec       q    Type
REMARK                         _______ _______ _______ _____ _____    ______ ____
ROOT
ATOM      1  C   UNL     1       3.585   4.859  18.131  0.00  0.00    +0.000 A 
ATOM      2  N   UNL     1       3.264   4.403  19.347  0.00  0.00    +0.000 NA
ATOM      3  C   UNL     1       2.620   5.257  20.155  0.00  0.00    +0.000 A 
ATOM      4  N   UNL     1       2.366   4.788  21.456  0.00  0.00    +0.000 N 
ATOM      5  C   UNL     1       2.277   6.558  19.801  0.00  0.00    +0.000 A 
ATOM      6  N   UNL     1       1.582   7.407  20.620  0.00  0.00    +0.000 NA
ATOM      7  C   UNL     1       1.287   8.633  20.129  0.00  0.00    +0.000 A 
ATOM      8  C   UNL     1       1.711   8.970  18.853  0.00  0.00    +0.000 A 
ATOM      9  N   UNL     1       2.394   8.125  18.040  0.00  0.00    +0.000 NA
ATOM     10  C   UNL     1       2.674   6.908  18.505  0.00  0.00    +0.000 A 
ATOM     11  N   UNL     1       3.313   6.086  17.686  0.00  0.00    +0.000 NA
ATOM     12  H   UNL     1       2.534   3.789  21.499  0.00  0.00    +0.000 HD
ATOM     13  H   UNL     1       1.454   5.087  21.791  0.00  0.00    +0.000 HD
ENDROOT
BRANCH   7  14
ATOM     14  C   UNL     1       0.512   9.532  21.001  0.00  0.00    +0.000 A 
ATOM     15  C   UNL     1       0.216   9.173  22.328  0.00  0.00    +0.000 A 
ATOM     16  C   UNL     1      -0.507  10.023  23.170  0.00  0.00    +0.000 A 
ATOM     17  C   UNL     1      -0.959  11.252  22.697  0.00  0.00    +0.000 A 
ATOM     18  C   UNL     1      -0.694  11.627  21.385  0.00  0.00    +0.000 A 
ATOM     19  C   UNL     1       0.031  10.775  20.546  0.00  0.00    +0.000 A 
ENDBRANCH   7  14
BRANCH   1  21
ATOM     20  C   UNL     1       3.685   2.157  17.602  0.00  0.00    +0.000 C 
ATOM     21  S   UNL     1       4.413   3.720  17.046  0.00  0.00    +0.000 S 
ENDBRANCH   1  21
TORSDOF 2
ENDMDL
