MODEL 1
REMARK VINA RESULT:      -7.8      0.000      0.000
REMARK  Name = 
REMARK  10 active torsions:
REMARK  status: ('A' for Active; 'I' for Inactive)
REMARK    1  A    between atoms: C_2  and  C_3
REMARK    2  A    between atoms: C_3  and  C_4
REMARK    3  A    between atoms: C_4  and  C_5
REMARK    4  A    between atoms: C_5  and  C_6
REMARK    5  A    between atoms: C_6  and  C_7
REMARK    6  A    between atoms: C_7  and  C_8
REMARK    7  A    between atoms: C_8  and  N_9
REMARK    8  A    between atoms: C_10  and  C_12
REMARK    9  A    between atoms: N_19  and  C_20
REMARK   10  A    between atoms: N_31  and  O_32
REMARK                            x       y       z     vdW  Elec       q    Type
REMARK                         _______ _______ _______ _____ _____    ______ ____
ROOT
ATOM      1  C   UNL     1       2.885   6.830  18.454  0.00  0.00    +0.000 A 
ATOM      2  C   UNL     1       2.424   6.543  19.713  0.00  0.00    +0.000 A 
ATOM      3  N   UNL     1       1.598   7.356  20.413  0.00  0.00    +0.000 NA
ATOM      4  C   UNL     1       1.224   8.514  19.842  0.00  0.00    +0.000 A 
ATOM      5  N   UNL     1       0.376   9.343  20.516  0.00  0.00    +0.000 N 
ATOM      6  C   UNL     1      -0.124   9.027  21.855  0.00  0.00    +0.000 C 
ATOM      7  C   UNL     1       0.096  10.224  22.812  0.00  0.00    +0.000 C 
ATOM      8  N   UNL     1      -0.434  11.467  22.213  0.00  0.00    +0.000 N 
ATOM      9  C   UNL     1       0.096  11.768  20.868  0.00  0.00    +0.000 C 
ATOM     10  C   UNL     1      -0.132  10.577  19.913  0.00  0.00    +0.000 C 
ATOM     11  N   UNL     1       1.664   8.887  18.628  0.00  0.00    +0.000 NA
ATOM     12  C   UNL     1       2.491   8.049  17.964  0.00  0.00    +0.000 A 
ENDROOT
BRANCH   8  13
ATOM     13  C   UNL     1      -1.319  12.292  22.870  0.00  0.00    +0.000 A 
ATOM     14  C   UNL     1      -2.622  11.873  23.187  0.00  0.00    +0.000 A 
ATOM     15  C   UNL     1      -3.531  12.715  23.836  0.00  0.00    +0.000 A 
ATOM     16  C   UNL     1      -3.144  14.001  24.179  0.00  0.00    +0.000 A 
ATOM     17  F   UNL     1      -4.013  14.813  24.797  0.00  0.00    +0.000 F 
ATOM     18  C   UNL     1      -1.868  14.453  23.890  0.00  0.00    +0.000 A 
ATOM     19  C   UNL     1      -0.968  13.601  23.241  0.00  0.00    +0.000 A 
ENDBRANCH   8  13
BRANCH   1  21
ATOM     20  N   UNL     1       4.967   6.450  17.270  0.00  0.00    +0.000 N 
ATOM     21  C   UNL     1       3.744   5.942  17.655  0.00  0.00    +0.000 C 
ATOM     22  O   UNL     1       3.369   4.804  17.405  0.00  0.00    +0.000 OA
ATOM     23  H   UNL     1       5.275   7.361  17.586  0.00  0.00    +0.000 HD
BRANCH  20  24
ATOM     24  C   UNL     1       5.908   5.670  16.488  0.00  0.00    +0.000 C 
BRANCH  24  25
ATOM     25  C   UNL     1       7.355   6.088  16.738  0.00  0.00    +0.000 C 
BRANCH  25  26
ATOM     26  C   UNL     1       7.519   6.981  17.975  0.00  0.00    +0.000 C 
BRANCH  26  27
ATOM     27  C   UNL     1       7.873   8.432  17.626  0.00  0.00    +0.000 C 
BRANCH  27  28
ATOM     28  C   UNL     1       8.612   9.147  18.760  0.00  0.00    +0.000 C 
BRANCH  28  29
ATOM     29  C   UNL     1       9.207  10.480  18.318  0.00  0.00    +0.000 C 
BRANCH  29  31
ATOM     30  O   UNL     1      11.127  11.584  19.333  0.00  0.00    +0.000 OA
ATOM     31  C   UNL     1       9.989  11.139  19.439  0.00  0.00    +0.000 C 
ATOM     32  N   UNL     1       9.290  11.201  20.620  0.00  0.00    +0.000 N 
ATOM     33  H   UNL     1       8.370  10.811  20.780  0.00  0.00    +0.000 HD
BRANCH  32  34
ATOM     34  O   UNL     1       9.955  11.779  21.722  0.00  0.00    +0.000 OA
ATOM     35  H   UNL     1      10.106  12.701  21.417  0.00  0.00    +0.000 HD
ENDBRANCH  32  34
ENDBRANCH  29  31
ENDBRANCH  28  29
ENDBRANCH  27  28
ENDBRANCH  26  27
ENDBRANCH  25  26
ENDBRANCH  24  25
ENDBRANCH  20  24
ENDBRANCH   1  21
TORSDOF 10
ENDMDL
MODEL 2
REMARK VINA RESULT:      -7.5      6.949     10.275
REMARK  Name = 
REMARK  10 active torsions:
REMARK  status: ('A' for Active; 'I' for Inactive)
REMARK    1  A    between atoms: C_2  and  C_3
REMARK    2  A    between atoms: C_3  and  C_4
REMARK    3  A    between atoms: C_4  and  C_5
REMARK    4  A    between atoms: C_5  and  C_6
REMARK    5  A    between atoms: C_6  and  C_7
REMARK    6  A    between atoms: C_7  and  C_8
REMARK    7  A    between atoms: C_8  and  N_9
REMARK    8  A    between atoms: C_10  and  C_12
REMARK    9  A    between atoms: N_19  and  C_20
REMARK   10  A    between atoms: N_31  and  O_32
REMARK                            x       y       z     vdW  Elec       q    Type
REMARK                         _______ _______ _______ _____ _____    ______ ____
ROOT
ATOM      1  C   UNL     1       7.628   6.749  17.870  0.00  0.00    +0.000 A 
ATOM      2  C   UNL     1       8.358   7.032  18.996  0.00  0.00    +0.000 A 
ATOM      3  N   UNL     1       8.821   8.267  19.299  0.00  0.00    +0.000 NA
ATOM      4  C   UNL     1       8.558   9.265  18.439  0.00  0.00    +0.000 A 
ATOM      5  N   UNL     1       8.995  10.525  18.729  0.00  0.00    +0.000 N 
ATOM      6  C   UNL     1       9.763  10.825  19.937  0.00  0.00    +0.000 C 
ATOM      7  C   UNL     1      11.047  11.614  19.582  0.00  0.00    +0.000 C 
ATOM      8  N   UNL     1      10.717  12.778  18.734  0.00  0.00    +0.000 N 
ATOM      9  C   UNL     1       9.952  12.446  17.515  0.00  0.00    +0.000 C 
ATOM     10  C   UNL     1       8.669  11.667  17.873  0.00  0.00    +0.000 C 
ATOM     11  N   UNL     1       7.883   9.063  17.294  0.00  0.00    +0.000 NA
ATOM     12  C   UNL     1       7.442   7.814  17.025  0.00  0.00    +0.000 A 
ENDROOT
BRANCH   8  13
ATOM     13  C   UNL     1      11.122  14.059  19.037  0.00  0.00    +0.000 A 
ATOM     14  C   UNL     1      10.991  14.587  20.333  0.00  0.00    +0.000 A 
ATOM     15  C   UNL     1      11.382  15.894  20.641  0.00  0.00    +0.000 A 
ATOM     16  C   UNL     1      11.912  16.700  19.646  0.00  0.00    +0.000 A 
ATOM     17  F   UNL     1      12.284  17.954  19.934  0.00  0.00    +0.000 F 
ATOM     18  C   UNL     1      12.063  16.218  18.356  0.00  0.00    +0.000 A 
ATOM     19  C   UNL     1      11.670  14.909  18.061  0.00  0.00    +0.000 A 
ENDBRANCH   8  13
BRANCH   1  21
ATOM     20  N   UNL     1       5.964   5.408  16.722  0.00  0.00    +0.000 N 
ATOM     21  C   UNL     1       7.073   5.426  17.542  0.00  0.00    +0.000 C 
ATOM     22  O   UNL     1       7.627   4.418  17.964  0.00  0.00    +0.000 OA
ATOM     23  H   UNL     1       5.603   6.262  16.318  0.00  0.00    +0.000 HD
BRANCH  20  24
ATOM     24  C   UNL     1       5.331   4.166  16.319  0.00  0.00    +0.000 C 
BRANCH  24  25
ATOM     25  C   UNL     1       4.040   3.899  17.091  0.00  0.00    +0.000 C 
BRANCH  25  26
ATOM     26  C   UNL     1       3.425   5.167  17.695  0.00  0.00    +0.000 C 
BRANCH  26  27
ATOM     27  C   UNL     1       1.997   4.954  18.213  0.00  0.00    +0.000 C 
BRANCH  27  28
ATOM     28  C   UNL     1       1.357   3.677  17.662  0.00  0.00    +0.000 C 
BRANCH  28  29
ATOM     29  C   UNL     1       0.714   2.830  18.757  0.00  0.00    +0.000 C 
BRANCH  29  31
ATOM     30  O   UNL     1       2.787   2.137  19.833  0.00  0.00    +0.000 OA
ATOM     31  C   UNL     1       1.661   2.616  19.922  0.00  0.00    +0.000 C 
ATOM     32  N   UNL     1       1.136   3.022  21.125  0.00  0.00    +0.000 N 
ATOM     33  H   UNL     1       0.201   3.380  21.267  0.00  0.00    +0.000 HD
BRANCH  32  34
ATOM     34  O   UNL     1       1.945   2.836  22.266  0.00  0.00    +0.000 OA
ATOM     35  H   UNL     1       1.387   3.207  22.984  0.00  0.00    +0.000 HD
ENDBRANCH  32  34
ENDBRANCH  29  31
ENDBRANCH  28  29
ENDBRANCH  27  28
ENDBRANCH  26  27
ENDBRANCH  25  26
ENDBRANCH  24  25
ENDBRANCH  20  24
ENDBRANCH   1  21
TORSDOF 10
ENDMDL
MODEL 3
REMARK VINA RESULT:      -7.4      3.556      5.257
REMARK  Name = 
REMARK  10 active torsions:
REMARK  status: ('A' for Active; 'I' for Inactive)
REMARK    1  A    between atoms: C_2  and  C_3
REMARK    2  A    between atoms: C_3  and  C_4
REMARK    3  A    between atoms: C_4  and  C_5
REMARK    4  A    between atoms: C_5  and  C_6
REMARK    5  A    between atoms: C_6  and  C_7
REMARK    6  A    between atoms: C_7  and  C_8
REMARK    7  A    between atoms: C_8  and  N_9
REMARK    8  A    between atoms: C_10  and  C_12
REMARK    9  A    between atoms: N_19  and  C_20
REMARK   10  A    between atoms: N_31  and  O_32
REMARK                            x       y       z     vdW  Elec       q    Type
REMARK                         _______ _______ _______ _____ _____    ______ ____
ROOT
ATOM      1  C   UNL     1       2.783   6.776  19.092  0.00  0.00    +0.000 A 
ATOM      2  C   UNL     1       2.169   6.649  20.312  0.00  0.00    +0.000 A 
ATOM      3  N   UNL     1       1.302   7.559  20.813  0.00  0.00    +0.000 NA
ATOM      4  C   UNL     1       1.042   8.652  20.075  0.00  0.00    +0.000 A 
ATOM      5  N   UNL     1       0.156   9.577  20.546  0.00  0.00    +0.000 N 
ATOM      6  C   UNL     1      -0.507   9.432  21.843  0.00  0.00    +0.000 C 
ATOM      7  C   UNL     1      -0.351  10.726  22.678  0.00  0.00    +0.000 C 
ATOM      8  N   UNL     1      -0.759  11.904  21.885  0.00  0.00    +0.000 N 
ATOM      9  C   UNL     1      -0.067  12.032  20.586  0.00  0.00    +0.000 C 
ATOM     10  C   UNL     1      -0.231  10.744  19.752  0.00  0.00    +0.000 C 
ATOM     11  N   UNL     1       1.632   8.870  18.887  0.00  0.00    +0.000 NA
ATOM     12  C   UNL     1       2.496   7.938  18.424  0.00  0.00    +0.000 A 
ENDROOT
BRANCH   8  13
ATOM     13  C   UNL     1      -1.680  12.823  22.335  0.00  0.00    +0.000 A 
ATOM     14  C   UNL     1      -1.476  13.553  23.518  0.00  0.00    +0.000 A 
ATOM     15  C   UNL     1      -2.418  14.473  23.990  0.00  0.00    +0.000 A 
ATOM     16  C   UNL     1      -3.590  14.674  23.279  0.00  0.00    +0.000 A 
ATOM     17  F   UNL     1      -4.498  15.551  23.729  0.00  0.00    +0.000 F 
ATOM     18  C   UNL     1      -3.830  13.979  22.106  0.00  0.00    +0.000 A 
ATOM     19  C   UNL     1      -2.879  13.063  21.643  0.00  0.00    +0.000 A 
ENDBRANCH   8  13
BRANCH   1  21
ATOM     20  N   UNL     1       4.778   5.408  19.271  0.00  0.00    +0.000 N 
ATOM     21  C   UNL     1       3.692   5.778  18.505  0.00  0.00    +0.000 C 
ATOM     22  O   UNL     1       3.435   5.298  17.409  0.00  0.00    +0.000 OA
ATOM     23  H   UNL     1       4.893   5.759  20.213  0.00  0.00    +0.000 HD
BRANCH  20  24
ATOM     24  C   UNL     1       5.741   4.427  18.808  0.00  0.00    +0.000 C 
BRANCH  24  25
ATOM     25  C   UNL     1       6.908   5.070  18.061  0.00  0.00    +0.000 C 
BRANCH  25  26
ATOM     26  C   UNL     1       7.144   4.461  16.673  0.00  0.00    +0.000 C 
BRANCH  26  27
ATOM     27  C   UNL     1       6.585   5.324  15.536  0.00  0.00    +0.000 C 
BRANCH  27  28
ATOM     28  C   UNL     1       5.774   4.510  14.523  0.00  0.00    +0.000 C 
BRANCH  28  29
ATOM     29  C   UNL     1       6.548   4.247  13.235  0.00  0.00    +0.000 C 
BRANCH  29  31
ATOM     30  O   UNL     1       4.650   3.377  11.980  0.00  0.00    +0.000 OA
ATOM     31  C   UNL     1       5.818   3.265  12.338  0.00  0.00    +0.000 C 
ATOM     32  N   UNL     1       6.601   2.207  11.946  0.00  0.00    +0.000 N 
ATOM     33  H   UNL     1       7.553   2.038  12.245  0.00  0.00    +0.000 HD
BRANCH  32  34
ATOM     34  O   UNL     1       5.990   1.234  11.127  0.00  0.00    +0.000 OA
ATOM     35  H   UNL     1       5.458   0.719  11.773  0.00  0.00    +0.000 HD
ENDBRANCH  32  34
ENDBRANCH  29  31
ENDBRANCH  28  29
ENDBRANCH  27  28
ENDBRANCH  26  27
ENDBRANCH  25  26
ENDBRANCH  24  25
ENDBRANCH  20  24
ENDBRANCH   1  21
TORSDOF 10
ENDMDL
MODEL 4
REMARK VINA RESULT:      -7.4      3.488      5.310
REMARK  Name = 
REMARK  10 active torsions:
REMARK  status: ('A' for Active; 'I' for Inactive)
REMARK    1  A    between atoms: C_2  and  C_3
REMARK    2  A    between atoms: C_3  and  C_4
REMARK    3  A    between atoms: C_4  and  C_5
REMARK    4  A    between atoms: C_5  and  C_6
REMARK    5  A    between atoms: C_6  and  C_7
REMARK    6  A    between atoms: C_7  and  C_8
REMARK    7  A    between atoms: C_8  and  N_9
REMARK    8  A    between atoms: C_10  and  C_12
REMARK    9  A    between atoms: N_19  and  C_20
REMARK   10  A    between atoms: N_31  and  O_32
REMARK                            x       y       z     vdW  Elec       q    Type
REMARK                         _______ _______ _______ _____ _____    ______ ____
ROOT
ATOM      1  C   UNL     1       3.119   7.473  18.240  0.00  0.00    +0.000 A 
ATOM      2  C   UNL     1       2.653   7.169  19.494  0.00  0.00    +0.000 A 
ATOM      3  N   UNL     1       1.665   7.856  20.114  0.00  0.00    +0.000 NA
ATOM      4  C   UNL     1       1.125   8.902  19.465  0.00  0.00    +0.000 A 
ATOM      5  N   UNL     1       0.114   9.601  20.058  0.00  0.00    +0.000 N 
ATOM      6  C   UNL     1      -0.389   9.266  21.390  0.00  0.00    +0.000 C 
ATOM      7  C   UNL     1      -0.428  10.527  22.289  0.00  0.00    +0.000 C 
ATOM      8  N   UNL     1      -1.134  11.627  21.601  0.00  0.00    +0.000 N 
ATOM      9  C   UNL     1      -0.599  11.953  20.264  0.00  0.00    +0.000 C 
ATOM     10  C   UNL     1      -0.570  10.696  19.368  0.00  0.00    +0.000 C 
ATOM     11  N   UNL     1       1.553   9.290  18.251  0.00  0.00    +0.000 NA
ATOM     12  C   UNL     1       2.545   8.579  17.668  0.00  0.00    +0.000 A 
ENDROOT
BRANCH   8  13
ATOM     13  C   UNL     1      -2.180  12.314  22.176  0.00  0.00    +0.000 A 
ATOM     14  C   UNL     1      -2.799  13.394  21.525  0.00  0.00    +0.000 A 
ATOM     15  C   UNL     1      -3.848  14.109  22.114  0.00  0.00    +0.000 A 
ATOM     16  C   UNL     1      -4.295  13.748  23.375  0.00  0.00    +0.000 A 
ATOM     17  F   UNL     1      -5.296  14.432  23.946  0.00  0.00    +0.000 F 
ATOM     18  C   UNL     1      -3.716  12.687  24.050  0.00  0.00    +0.000 A 
ATOM     19  C   UNL     1      -2.668  11.980  23.451  0.00  0.00    +0.000 A 
ENDBRANCH   8  13
BRANCH   1  21
ATOM     20  N   UNL     1       3.813   5.445  17.107  0.00  0.00    +0.000 N 
ATOM     21  C   UNL     1       4.157   6.713  17.526  0.00  0.00    +0.000 C 
ATOM     22  O   UNL     1       5.242   7.236  17.302  0.00  0.00    +0.000 OA
ATOM     23  H   UNL     1       2.872   5.094  17.228  0.00  0.00    +0.000 HD
BRANCH  20  24
ATOM     24  C   UNL     1       4.746   4.599  16.385  0.00  0.00    +0.000 C 
BRANCH  24  25
ATOM     25  C   UNL     1       4.626   3.131  16.788  0.00  0.00    +0.000 C 
BRANCH  25  26
ATOM     26  C   UNL     1       3.239   2.767  17.333  0.00  0.00    +0.000 C 
BRANCH  26  27
ATOM     27  C   UNL     1       3.295   1.769  18.497  0.00  0.00    +0.000 C 
BRANCH  27  28
ATOM     28  C   UNL     1       4.031   2.329  19.718  0.00  0.00    +0.000 C 
BRANCH  28  29
ATOM     29  C   UNL     1       3.433   3.645  20.205  0.00  0.00    +0.000 C 
BRANCH  29  31
ATOM     30  O   UNL     1       1.030   3.918  20.497  0.00  0.00    +0.000 OA
ATOM     31  C   UNL     1       2.090   3.431  20.877  0.00  0.00    +0.000 C 
ATOM     32  N   UNL     1       2.163   2.616  21.980  0.00  0.00    +0.000 N 
ATOM     33  H   UNL     1       3.011   2.224  22.366  0.00  0.00    +0.000 HD
BRANCH  32  34
ATOM     34  O   UNL     1       0.958   2.383  22.677  0.00  0.00    +0.000 OA
ATOM     35  H   UNL     1       0.294   2.830  22.107  0.00  0.00    +0.000 HD
ENDBRANCH  32  34
ENDBRANCH  29  31
ENDBRANCH  28  29
ENDBRANCH  27  28
ENDBRANCH  26  27
ENDBRANCH  25  26
ENDBRANCH  24  25
ENDBRANCH  20  24
ENDBRANCH   1  21
TORSDOF 10
ENDMDL
MODEL 5
REMARK VINA RESULT:      -7.4      3.676      4.793
REMARK  Name = 
REMARK  10 active torsions:
REMARK  status: ('A' for Active; 'I' for Inactive)
REMARK    1  A    between atoms: C_2  and  C_3
REMARK    2  A    between atoms: C_3  and  C_4
REMARK    3  A    between atoms: C_4  and  C_5
REMARK    4  A    between atoms: C_5  and  C_6
REMARK    5  A    between atoms: C_6  and  C_7
REMARK    6  A    between atoms: C_7  and  C_8
REMARK    7  A    between atoms: C_8  and  N_9
REMARK    8  A    between atoms: C_10  and  C_12
REMARK    9  A    between atoms: N_19  and  C_20
REMARK   10  A    between atoms: N_31  and  O_32
REMARK                            x       y       z     vdW  Elec       q    Type
REMARK                         _______ _______ _______ _____ _____    ______ ____
ROOT
ATOM      1  C   UNL     1       1.460   8.634  19.576  0.00  0.00    +0.000 A 
ATOM      2  C   UNL     1       1.015   9.751  18.916  0.00  0.00    +0.000 A 
ATOM      3  N   UNL     1       0.327  10.752  19.513  0.00  0.00    +0.000 NA
ATOM      4  C   UNL     1       0.056  10.632  20.824  0.00  0.00    +0.000 A 
ATOM      5  N   UNL     1      -0.619  11.634  21.458  0.00  0.00    +0.000 N 
ATOM      6  C   UNL     1      -1.081  12.830  20.752  0.00  0.00    +0.000 C 
ATOM      7  C   UNL     1      -2.580  13.086  21.043  0.00  0.00    +0.000 C 
ATOM      8  N   UNL     1      -2.832  13.070  22.499  0.00  0.00    +0.000 N 
ATOM      9  C   UNL     1      -2.366  11.847  23.184  0.00  0.00    +0.000 C 
ATOM     10  C   UNL     1      -0.870  11.600  22.900  0.00  0.00    +0.000 C 
ATOM     11  N   UNL     1       0.422   9.551  21.535  0.00  0.00    +0.000 NA
ATOM     12  C   UNL     1       1.104   8.571  20.899  0.00  0.00    +0.000 A 
ENDROOT
BRANCH   8  13
ATOM     13  C   UNL     1      -3.479  14.094  23.154  0.00  0.00    +0.000 A 
ATOM     14  C   UNL     1      -2.814  14.914  24.080  0.00  0.00    +0.000 A 
ATOM     15  C   UNL     1      -3.473  15.942  24.763  0.00  0.00    +0.000 A 
ATOM     16  C   UNL     1      -4.820  16.164  24.526  0.00  0.00    +0.000 A 
ATOM     17  F   UNL     1      -5.457  17.145  25.181  0.00  0.00    +0.000 F 
ATOM     18  C   UNL     1      -5.513  15.382  23.618  0.00  0.00    +0.000 A 
ATOM     19  C   UNL     1      -4.843  14.358  22.941  0.00  0.00    +0.000 A 
ENDBRANCH   8  13
BRANCH   1  21
ATOM     20  N   UNL     1       2.326   6.370  19.659  0.00  0.00    +0.000 N 
ATOM     21  C   UNL     1       2.250   7.557  18.960  0.00  0.00    +0.000 C 
ATOM     22  O   UNL     1       2.762   7.736  17.861  0.00  0.00    +0.000 OA
ATOM     23  H   UNL     1       1.803   6.237  20.515  0.00  0.00    +0.000 HD
BRANCH  20  24
ATOM     24  C   UNL     1       3.066   5.230  19.152  0.00  0.00    +0.000 C 
BRANCH  24  25
ATOM     25  C   UNL     1       4.575   5.399  19.322  0.00  0.00    +0.000 C 
BRANCH  25  26
ATOM     26  C   UNL     1       5.336   5.391  17.990  0.00  0.00    +0.000 C 
BRANCH  26  27
ATOM     27  C   UNL     1       4.597   4.632  16.881  0.00  0.00    +0.000 C 
BRANCH  27  28
ATOM     28  C   UNL     1       5.544   3.816  15.996  0.00  0.00    +0.000 C 
BRANCH  28  29
ATOM     29  C   UNL     1       5.769   4.464  14.633  0.00  0.00    +0.000 C 
BRANCH  29  31
ATOM     30  O   UNL     1       7.673   5.677  15.550  0.00  0.00    +0.000 OA
ATOM     31  C   UNL     1       7.096   5.197  14.579  0.00  0.00    +0.000 C 
ATOM     32  N   UNL     1       7.616   5.279  13.310  0.00  0.00    +0.000 N 
ATOM     33  H   UNL     1       7.166   4.944  12.468  0.00  0.00    +0.000 HD
BRANCH  32  34
ATOM     34  O   UNL     1       8.840   5.967  13.169  0.00  0.00    +0.000 OA
ATOM     35  H   UNL     1       8.918   6.062  12.194  0.00  0.00    +0.000 HD
ENDBRANCH  32  34
ENDBRANCH  29  31
ENDBRANCH  28  29
ENDBRANCH  27  28
ENDBRANCH  26  27
ENDBRANCH  25  26
ENDBRANCH  24  25
ENDBRANCH  20  24
ENDBRANCH   1  21
TORSDOF 10
ENDMDL
MODEL 6
REMARK VINA RESULT:      -7.3      1.202      1.884
REMARK  Name = 
REMARK  10 active torsions:
REMARK  status: ('A' for Active; 'I' for Inactive)
REMARK    1  A    between atoms: C_2  and  C_3
REMARK    2  A    between atoms: C_3  and  C_4
REMARK    3  A    between atoms: C_4  and  C_5
REMARK    4  A    between atoms: C_5  and  C_6
REMARK    5  A    between atoms: C_6  and  C_7
REMARK    6  A    between atoms: C_7  and  C_8
REMARK    7  A    between atoms: C_8  and  N_9
REMARK    8  A    between atoms: C_10  and  C_12
REMARK    9  A    between atoms: N_19  and  C_20
REMARK   10  A    between atoms: N_31  and  O_32
REMARK                            x       y       z     vdW  Elec       q    Type
REMARK                         _______ _______ _______ _____ _____    ______ ____
ROOT
ATOM      1  C   UNL     1       2.471   7.120  18.583  0.00  0.00    +0.000 A 
ATOM      2  C   UNL     1       2.015   8.304  18.062  0.00  0.00    +0.000 A 
ATOM      3  N   UNL     1       1.432   9.275  18.803  0.00  0.00    +0.000 NA
ATOM      4  C   UNL     1       1.283   9.055  20.121  0.00  0.00    +0.000 A 
ATOM      5  N   UNL     1       0.717  10.024  20.897  0.00  0.00    +0.000 N 
ATOM      6  C   UNL     1       0.243  11.291  20.339  0.00  0.00    +0.000 C 
ATOM      7  C   UNL     1      -1.209  11.575  20.797  0.00  0.00    +0.000 C 
ATOM      8  N   UNL     1      -1.320  11.446  22.264  0.00  0.00    +0.000 N 
ATOM      9  C   UNL     1      -0.846  10.153  22.799  0.00  0.00    +0.000 C 
ATOM     10  C   UNL     1       0.604   9.877  22.349  0.00  0.00    +0.000 C 
ATOM     11  N   UNL     1       1.668   7.905  20.702  0.00  0.00    +0.000 NA
ATOM     12  C   UNL     1       2.241   6.958  19.925  0.00  0.00    +0.000 A 
ENDROOT
BRANCH   8  13
ATOM     13  C   UNL     1      -1.856  12.433  23.061  0.00  0.00    +0.000 A 
ATOM     14  C   UNL     1      -3.153  12.331  23.591  0.00  0.00    +0.000 A 
ATOM     15  C   UNL     1      -3.709  13.341  24.383  0.00  0.00    +0.000 A 
ATOM     16  C   UNL     1      -2.967  14.479  24.656  0.00  0.00    +0.000 A 
ATOM     17  F   UNL     1      -3.496  15.452  25.411  0.00  0.00    +0.000 F 
ATOM     18  C   UNL     1      -1.683  14.619  24.157  0.00  0.00    +0.000 A 
ATOM     19  C   UNL     1      -1.138  13.602  23.367  0.00  0.00    +0.000 A 
ENDBRANCH   8  13
BRANCH   1  21
ATOM     20  N   UNL     1       4.349   6.417  17.218  0.00  0.00    +0.000 N 
ATOM     21  C   UNL     1       3.150   6.071  17.806  0.00  0.00    +0.000 C 
ATOM     22  O   UNL     1       2.660   4.950  17.747  0.00  0.00    +0.000 OA
ATOM     23  H   UNL     1       4.763   7.327  17.378  0.00  0.00    +0.000 HD
BRANCH  20  24
ATOM     24  C   UNL     1       5.119   5.469  16.435  0.00  0.00    +0.000 C 
BRANCH  24  25
ATOM     25  C   UNL     1       6.422   5.073  17.126  0.00  0.00    +0.000 C 
BRANCH  25  26
ATOM     26  C   UNL     1       6.575   5.686  18.523  0.00  0.00    +0.000 C 
BRANCH  26  27
ATOM     27  C   UNL     1       7.851   6.523  18.676  0.00  0.00    +0.000 C 
BRANCH  27  28
ATOM     28  C   UNL     1       8.066   7.485  17.504  0.00  0.00    +0.000 C 
BRANCH  28  29
ATOM     29  C   UNL     1       7.496   8.873  17.778  0.00  0.00    +0.000 C 
BRANCH  29  31
ATOM     30  O   UNL     1       9.339   9.514  19.236  0.00  0.00    +0.000 OA
ATOM     31  C   UNL     1       8.550   9.806  18.344  0.00  0.00    +0.000 C 
ATOM     32  N   UNL     1       8.549  11.045  17.749  0.00  0.00    +0.000 N 
ATOM     33  H   UNL     1       7.895  11.357  17.044  0.00  0.00    +0.000 HD
BRANCH  32  34
ATOM     34  O   UNL     1       9.486  11.982  18.234  0.00  0.00    +0.000 OA
ATOM     35  H   UNL     1       9.113  12.219  19.111  0.00  0.00    +0.000 HD
ENDBRANCH  32  34
ENDBRANCH  29  31
ENDBRANCH  28  29
ENDBRANCH  27  28
ENDBRANCH  26  27
ENDBRANCH  25  26
ENDBRANCH  24  25
ENDBRANCH  20  24
ENDBRANCH   1  21
TORSDOF 10
ENDMDL
MODEL 7
REMARK VINA RESULT:      -7.2      4.416      5.845
REMARK  Name = 
REMARK  10 active torsions:
REMARK  status: ('A' for Active; 'I' for Inactive)
REMARK    1  A    between atoms: C_2  and  C_3
REMARK    2  A    between atoms: C_3  and  C_4
REMARK    3  A    between atoms: C_4  and  C_5
REMARK    4  A    between atoms: C_5  and  C_6
REMARK    5  A    between atoms: C_6  and  C_7
REMARK    6  A    between atoms: C_7  and  C_8
REMARK    7  A    between atoms: C_8  and  N_9
REMARK    8  A    between atoms: C_10  and  C_12
REMARK    9  A    between atoms: N_19  and  C_20
REMARK   10  A    between atoms: N_31  and  O_32
REMARK                            x       y       z     vdW  Elec       q    Type
REMARK                         _______ _______ _______ _____ _____    ______ ____
ROOT
ATOM      1  C   UNL     1       1.689   6.640  20.379  0.00  0.00    +0.000 A 
ATOM      2  C   UNL     1       1.007   7.514  21.186  0.00  0.00    +0.000 A 
ATOM      3  N   UNL     1       0.822   8.821  20.889  0.00  0.00    +0.000 NA
ATOM      4  C   UNL     1       1.349   9.286  19.744  0.00  0.00    +0.000 A 
ATOM      5  N   UNL     1       1.162  10.595  19.409  0.00  0.00    +0.000 N 
ATOM      6  C   UNL     1       0.422  11.521  20.267  0.00  0.00    +0.000 C 
ATOM      7  C   UNL     1       1.245  12.811  20.509  0.00  0.00    +0.000 C 
ATOM      8  N   UNL     1       1.713  13.371  19.225  0.00  0.00    +0.000 N 
ATOM      9  C   UNL     1       2.466  12.419  18.383  0.00  0.00    +0.000 C 
ATOM     10  C   UNL     1       1.640  11.139  18.137  0.00  0.00    +0.000 C 
ATOM     11  N   UNL     1       2.065   8.504  18.917  0.00  0.00    +0.000 NA
ATOM     12  C   UNL     1       2.231   7.204  19.253  0.00  0.00    +0.000 A 
ENDROOT
BRANCH   8  13
ATOM     13  C   UNL     1       1.496  14.681  18.861  0.00  0.00    +0.000 A 
ATOM     14  C   UNL     1       0.217  15.261  18.918  0.00  0.00    +0.000 A 
ATOM     15  C   UNL     1      -0.011  16.585  18.529  0.00  0.00    +0.000 A 
ATOM     16  C   UNL     1       1.047  17.354  18.073  0.00  0.00    +0.000 A 
ATOM     17  F   UNL     1       0.833  18.622  17.695  0.00  0.00    +0.000 F 
ATOM     18  C   UNL     1       2.324  16.824  18.005  0.00  0.00    +0.000 A 
ATOM     19  C   UNL     1       2.541  15.499  18.397  0.00  0.00    +0.000 A 
ENDBRANCH   8  13
BRANCH   1  21
ATOM     20  N   UNL     1       1.150   4.333  19.860  0.00  0.00    +0.000 N 
ATOM     21  C   UNL     1       1.862   5.205  20.656  0.00  0.00    +0.000 C 
ATOM     22  O   UNL     1       2.642   4.849  21.531  0.00  0.00    +0.000 OA
ATOM     23  H   UNL     1       0.595   4.671  19.085  0.00  0.00    +0.000 HD
BRANCH  20  24
ATOM     24  C   UNL     1       1.243   2.894  20.029  0.00  0.00    +0.000 C 
BRANCH  24  25
ATOM     25  C   UNL     1       0.971   2.142  18.728  0.00  0.00    +0.000 C 
BRANCH  25  26
ATOM     26  C   UNL     1       2.151   2.185  17.749  0.00  0.00    +0.000 C 
BRANCH  26  27
ATOM     27  C   UNL     1       2.506   3.608  17.299  0.00  0.00    +0.000 C 
BRANCH  27  28
ATOM     28  C   UNL     1       3.966   3.970  17.588  0.00  0.00    +0.000 C 
BRANCH  28  29
ATOM     29  C   UNL     1       4.665   4.581  16.378  0.00  0.00    +0.000 C 
BRANCH  29  31
ATOM     30  O   UNL     1       6.531   6.128  16.622  0.00  0.00    +0.000 OA
ATOM     31  C   UNL     1       6.090   4.987  16.704  0.00  0.00    +0.000 C 
ATOM     32  N   UNL     1       6.869   3.933  17.117  0.00  0.00    +0.000 N 
ATOM     33  H   UNL     1       6.575   2.966  17.160  0.00  0.00    +0.000 HD
BRANCH  32  34
ATOM     34  O   UNL     1       8.217   4.221  17.419  0.00  0.00    +0.000 OA
ATOM     35  H   UNL     1       8.349   5.092  16.985  0.00  0.00    +0.000 HD
ENDBRANCH  32  34
ENDBRANCH  29  31
ENDBRANCH  28  29
ENDBRANCH  27  28
ENDBRANCH  26  27
ENDBRANCH  25  26
ENDBRANCH  24  25
ENDBRANCH  20  24
ENDBRANCH   1  21
TORSDOF 10
ENDMDL
MODEL 8
REMARK VINA RESULT:      -7.2      3.975      5.482
REMARK  Name = 
REMARK  10 active torsions:
REMARK  status: ('A' for Active; 'I' for Inactive)
REMARK    1  A    between atoms: C_2  and  C_3
REMARK    2  A    between atoms: C_3  and  C_4
REMARK    3  A    between atoms: C_4  and  C_5
REMARK    4  A    between atoms: C_5  and  C_6
REMARK    5  A    between atoms: C_6  and  C_7
REMARK    6  A    between atoms: C_7  and  C_8
REMARK    7  A    between atoms: C_8  and  N_9
REMARK    8  A    between atoms: C_10  and  C_12
REMARK    9  A    between atoms: N_19  and  C_20
REMARK   10  A    between atoms: N_31  and  O_32
REMARK                            x       y       z     vdW  Elec       q    Type
REMARK                         _______ _______ _______ _____ _____    ______ ____
ROOT
ATOM      1  C   UNL     1       2.146   8.370  18.526  0.00  0.00    +0.000 A 
ATOM      2  C   UNL     1       1.690   9.564  18.028  0.00  0.00    +0.000 A 
ATOM      3  N   UNL     1       1.044  10.490  18.773  0.00  0.00    +0.000 NA
ATOM      4  C   UNL     1       0.828  10.213  20.071  0.00  0.00    +0.000 A 
ATOM      5  N   UNL     1       0.197  11.137  20.851  0.00  0.00    +0.000 N 
ATOM      6  C   UNL     1      -0.277  12.414  20.318  0.00  0.00    +0.000 C 
ATOM      7  C   UNL     1      -1.759  12.647  20.706  0.00  0.00    +0.000 C 
ATOM      8  N   UNL     1      -1.947  12.456  22.158  0.00  0.00    +0.000 N 
ATOM      9  C   UNL     1      -1.470  11.154  22.668  0.00  0.00    +0.000 C 
ATOM     10  C   UNL     1       0.008  10.929  22.288  0.00  0.00    +0.000 C 
ATOM     11  N   UNL     1       1.209   9.050  20.627  0.00  0.00    +0.000 NA
ATOM     12  C   UNL     1       1.847   8.149  19.846  0.00  0.00    +0.000 A 
ENDROOT
BRANCH   8  13
ATOM     13  C   UNL     1      -2.550  13.398  22.962  0.00  0.00    +0.000 A 
ATOM     14  C   UNL     1      -3.932  13.642  22.904  0.00  0.00    +0.000 A 
ATOM     15  C   UNL     1      -4.545  14.612  23.703  0.00  0.00    +0.000 A 
ATOM     16  C   UNL     1      -3.775  15.360  24.579  0.00  0.00    +0.000 A 
ATOM     17  F   UNL     1      -4.357  16.294  25.343  0.00  0.00    +0.000 F 
ATOM     18  C   UNL     1      -2.410  15.150  24.671  0.00  0.00    +0.000 A 
ATOM     19  C   UNL     1      -1.808  14.176  23.868  0.00  0.00    +0.000 A 
ENDBRANCH   8  13
BRANCH   1  21
ATOM     20  N   UNL     1       2.924   6.088  18.260  0.00  0.00    +0.000 N 
ATOM     21  C   UNL     1       2.893   7.369  17.748  0.00  0.00    +0.000 C 
ATOM     22  O   UNL     1       3.408   7.692  16.685  0.00  0.00    +0.000 OA
ATOM     23  H   UNL     1       2.399   5.847  19.090  0.00  0.00    +0.000 HD
BRANCH  20  24
ATOM     24  C   UNL     1       3.618   5.010  17.581  0.00  0.00    +0.000 C 
BRANCH  24  25
ATOM     25  C   UNL     1       2.664   3.915  17.109  0.00  0.00    +0.000 C 
BRANCH  25  26
ATOM     26  C   UNL     1       1.294   3.971  17.796  0.00  0.00    +0.000 C 
BRANCH  26  27
ATOM     27  C   UNL     1       0.977   2.708  18.607  0.00  0.00    +0.000 C 
BRANCH  27  28
ATOM     28  C   UNL     1       0.625   3.018  20.065  0.00  0.00    +0.000 C 
BRANCH  28  29
ATOM     29  C   UNL     1       1.702   2.546  21.037  0.00  0.00    +0.000 C 
BRANCH  29  31
ATOM     30  O   UNL     1       3.338   4.334  20.793  0.00  0.00    +0.000 OA
ATOM     31  C   UNL     1       3.055   3.145  20.700  0.00  0.00    +0.000 C 
ATOM     32  N   UNL     1       3.966   2.210  20.273  0.00  0.00    +0.000 N 
ATOM     33  H   UNL     1       3.778   1.226  20.133  0.00  0.00    +0.000 HD
BRANCH  32  34
ATOM     34  O   UNL     1       5.245   2.688  19.917  0.00  0.00    +0.000 OA
ATOM     35  H   UNL     1       5.039   3.554  19.500  0.00  0.00    +0.000 HD
ENDBRANCH  32  34
ENDBRANCH  29  31
ENDBRANCH  28  29
ENDBRANCH  27  28
ENDBRANCH  26  27
ENDBRANCH  25  26
ENDBRANCH  24  25
ENDBRANCH  20  24
ENDBRANCH   1  21
TORSDOF 10
ENDMDL
MODEL 9
REMARK VINA RESULT:      -7.2      3.670      5.228
REMARK  Name = 
REMARK  10 active torsions:
REMARK  status: ('A' for Active; 'I' for Inactive)
REMARK    1  A    between atoms: C_2  and  C_3
REMARK    2  A    between atoms: C_3  and  C_4
REMARK    3  A    between atoms: C_4  and  C_5
REMARK    4  A    between atoms: C_5  and  C_6
REMARK    5  A    between atoms: C_6  and  C_7
REMARK    6  A    between atoms: C_7  and  C_8
REMARK    7  A    between atoms: C_8  and  N_9
REMARK    8  A    between atoms: C_10  and  C_12
REMARK    9  A    between atoms: N_19  and  C_20
REMARK   10  A    between atoms: N_31  and  O_32
REMARK                            x       y       z     vdW  Elec       q    Type
REMARK                         _______ _______ _______ _____ _____    ______ ____
ROOT
ATOM      1  C   UNL     1       1.101   8.706  20.524  0.00  0.00    +0.000 A 
ATOM      2  C   UNL     1       1.179   9.989  20.046  0.00  0.00    +0.000 A 
ATOM      3  N   UNL     1       0.530  11.038  20.603  0.00  0.00    +0.000 NA
ATOM      4  C   UNL     1      -0.242  10.800  21.677  0.00  0.00    +0.000 A 
ATOM      5  N   UNL     1      -0.892  11.843  22.272  0.00  0.00    +0.000 N 
ATOM      6  C   UNL     1      -0.796  13.212  21.766  0.00  0.00    +0.000 C 
ATOM      7  C   UNL     1      -2.207  13.826  21.592  0.00  0.00    +0.000 C 
ATOM      8  N   UNL     1      -2.997  13.659  22.829  0.00  0.00    +0.000 N 
ATOM      9  C   UNL     1      -3.087  12.266  23.312  0.00  0.00    +0.000 C 
ATOM     10  C   UNL     1      -1.679  11.661  23.493  0.00  0.00    +0.000 C 
ATOM     11  N   UNL     1      -0.402   9.566  22.184  0.00  0.00    +0.000 NA
ATOM     12  C   UNL     1       0.259   8.544  21.594  0.00  0.00    +0.000 A 
ENDROOT
BRANCH   8  13
ATOM     13  C   UNL     1      -3.626  14.711  23.458  0.00  0.00    +0.000 A 
ATOM     14  C   UNL     1      -2.922  15.605  24.283  0.00  0.00    +0.000 A 
ATOM     15  C   UNL     1      -3.560  16.662  24.940  0.00  0.00    +0.000 A 
ATOM     16  C   UNL     1      -4.925  16.839  24.780  0.00  0.00    +0.000 A 
ATOM     17  F   UNL     1      -5.543  17.848  25.411  0.00  0.00    +0.000 F 
ATOM     18  C   UNL     1      -5.656  15.984  23.973  0.00  0.00    +0.000 A 
ATOM     19  C   UNL     1      -5.007  14.932  23.320  0.00  0.00    +0.000 A 
ENDBRANCH   8  13
BRANCH   1  21
ATOM     20  N   UNL     1       1.745   6.372  20.663  0.00  0.00    +0.000 N 
ATOM     21  C   UNL     1       1.833   7.558  19.965  0.00  0.00    +0.000 C 
ATOM     22  O   UNL     1       2.441   7.686  18.910  0.00  0.00    +0.000 OA
ATOM     23  H   UNL     1       1.149   6.290  21.477  0.00  0.00    +0.000 HD
BRANCH  20  24
ATOM     24  C   UNL     1       2.414   5.167  20.210  0.00  0.00    +0.000 C 
BRANCH  24  25
ATOM     25  C   UNL     1       1.429   4.111  19.712  0.00  0.00    +0.000 C 
BRANCH  25  26
ATOM     26  C   UNL     1       2.039   3.156  18.679  0.00  0.00    +0.000 C 
BRANCH  26  27
ATOM     27  C   UNL     1       3.572   3.194  18.659  0.00  0.00    +0.000 C 
BRANCH  27  28
ATOM     28  C   UNL     1       4.136   3.463  17.260  0.00  0.00    +0.000 C 
BRANCH  28  29
ATOM     29  C   UNL     1       4.348   4.950  16.994  0.00  0.00    +0.000 C 
BRANCH  29  31
ATOM     30  O   UNL     1       6.208   6.305  16.197  0.00  0.00    +0.000 OA
ATOM     31  C   UNL     1       5.802   5.259  16.692  0.00  0.00    +0.000 C 
ATOM     32  N   UNL     1       6.653   4.237  17.035  0.00  0.00    +0.000 N 
ATOM     33  H   UNL     1       6.373   3.337  17.403  0.00  0.00    +0.000 HD
BRANCH  32  34
ATOM     34  O   UNL     1       8.024   4.435  16.765  0.00  0.00    +0.000 OA
ATOM     35  H   UNL     1       8.456   3.959  17.508  0.00  0.00    +0.000 HD
ENDBRANCH  32  34
ENDBRANCH  29  31
ENDBRANCH  28  29
ENDBRANCH  27  28
ENDBRANCH  26  27
ENDBRANCH  25  26
ENDBRANCH  24  25
ENDBRANCH  20  24
ENDBRANCH   1  21
TORSDOF 10
ENDMDL
