MODEL 1
REMARK VINA RESULT:      -6.7      0.000      0.000
REMARK  Name = 
REMARK  5 active torsions:
REMARK  status: ('A' for Active; 'I' for Inactive)
REMARK    1  A    between atoms: C_1  and  O_2
REMARK    2  A    between atoms: O_2  and  C_3
REMARK    3  A    between atoms: C_6  and  C_7
REMARK    4  A    between atoms: N_8  and  C_9
REMARK    5  A    between atoms: C_16  and  O_17
REMARK                            x       y       z     vdW  Elec       q    Type
REMARK                         _______ _______ _______ _____ _____    ______ ____
ROOT
ATOM      1  C   UNL     1       2.112   3.306  19.610  0.00  0.00    +0.000 A 
ATOM      2  C   UNL     1       2.351   4.494  20.315  0.00  0.00    +0.000 A 
ATOM      3  C   UNL     1       2.794   5.648  19.662  0.00  0.00    +0.000 A 
ATOM      4  C   UNL     1       3.006   5.624  18.285  0.00  0.00    +0.000 A 
ATOM      5  C   UNL     1       2.732   4.464  17.558  0.00  0.00    +0.000 A 
ATOM      6  C   UNL     1       2.313   3.302  18.224  0.00  0.00    +0.000 A 
ENDROOT
BRANCH   1   8
ATOM      7  C   UNL     1       1.637   2.518  21.818  0.00  0.00    +0.000 C 
ATOM      8  O   UNL     1       1.709   2.281  20.418  0.00  0.00    +0.000 OA
ENDBRANCH   1   8
BRANCH   4   9
ATOM      9  C   UNL     1       3.532   6.854  17.658  0.00  0.00    +0.000 C 
ATOM     10  N   UNL     1       4.697   7.109  17.137  0.00  0.00    +0.000 NA
BRANCH  10  11
ATOM     11  C   UNL     1       5.762   6.199  17.097  0.00  0.00    +0.000 A 
ATOM     12  C   UNL     1       5.981   5.496  15.915  0.00  0.00    +0.000 A 
ATOM     13  C   UNL     1       6.999   4.559  15.879  0.00  0.00    +0.000 A 
ATOM     14  N   UNL     1       7.793   4.275  16.931  0.00  0.00    +0.000 NA
ATOM     15  C   UNL     1       7.602   5.010  18.047  0.00  0.00    +0.000 A 
ATOM     16  C   UNL     1       6.639   5.997  18.161  0.00  0.00    +0.000 A 
ENDBRANCH  10  11
ENDBRANCH   4   9
BRANCH   6  17
ATOM     17  O   UNL     1       2.124   2.168  17.482  0.00  0.00    +0.000 OA
ATOM     18  H   UNL     1       2.770   2.138  16.756  0.00  0.00    +0.000 HD
ENDBRANCH   6  17
TORSDOF 4
ENDMDL
MODEL 2
REMARK VINA RESULT:      -6.6      2.884      5.572
REMARK  Name = 
REMARK  5 active torsions:
REMARK  status: ('A' for Active; 'I' for Inactive)
REMARK    1  A    between atoms: C_1  and  O_2
REMARK    2  A    between atoms: O_2  and  C_3
REMARK    3  A    between atoms: C_6  and  C_7
REMARK    4  A    between atoms: N_8  and  C_9
REMARK    5  A    between atoms: C_16  and  O_17
REMARK                            x       y       z     vdW  Elec       q    Type
REMARK                         _______ _______ _______ _____ _____    ______ ____
ROOT
ATOM      1  C   UNL     1       6.397   5.290  16.484  0.00  0.00    +0.000 A 
ATOM      2  C   UNL     1       5.385   6.109  15.964  0.00  0.00    +0.000 A 
ATOM      3  C   UNL     1       4.359   6.599  16.779  0.00  0.00    +0.000 A 
ATOM      4  C   UNL     1       4.334   6.268  18.132  0.00  0.00    +0.000 A 
ATOM      5  C   UNL     1       5.357   5.489  18.678  0.00  0.00    +0.000 A 
ATOM      6  C   UNL     1       6.369   4.981  17.850  0.00  0.00    +0.000 A 
ENDROOT
BRANCH   1   8
ATOM      7  C   UNL     1       6.795   4.439  14.284  0.00  0.00    +0.000 C 
ATOM      8  O   UNL     1       7.296   4.891  15.535  0.00  0.00    +0.000 OA
ENDBRANCH   1   8
BRANCH   4   9
ATOM      9  C   UNL     1       3.194   6.762  18.931  0.00  0.00    +0.000 C 
ATOM     10  N   UNL     1       2.213   6.121  19.496  0.00  0.00    +0.000 NA
BRANCH  10  11
ATOM     11  C   UNL     1       2.028   4.733  19.421  0.00  0.00    +0.000 A 
ATOM     12  C   UNL     1       2.225   3.981  20.577  0.00  0.00    +0.000 A 
ATOM     13  C   UNL     1       2.093   2.606  20.504  0.00  0.00    +0.000 A 
ATOM     14  N   UNL     1       1.791   1.941  19.370  0.00  0.00    +0.000 NA
ATOM     15  C   UNL     1       1.546   2.694  18.277  0.00  0.00    +0.000 A 
ATOM     16  C   UNL     1       1.612   4.076  18.265  0.00  0.00    +0.000 A 
ENDBRANCH  10  11
ENDBRANCH   4   9
BRANCH   6  17
ATOM     17  O   UNL     1       7.312   4.164  18.412  0.00  0.00    +0.000 OA
ATOM     18  H   UNL     1       7.080   3.985  19.339  0.00  0.00    +0.000 HD
ENDBRANCH   6  17
TORSDOF 4
ENDMDL
MODEL 3
REMARK VINA RESULT:      -6.6      0.508      1.245
REMARK  Name = 
REMARK  5 active torsions:
REMARK  status: ('A' for Active; 'I' for Inactive)
REMARK    1  A    between atoms: C_1  and  O_2
REMARK    2  A    between atoms: O_2  and  C_3
REMARK    3  A    between atoms: C_6  and  C_7
REMARK    4  A    between atoms: N_8  and  C_9
REMARK    5  A    between atoms: C_16  and  O_17
REMARK                            x       y       z     vdW  Elec       q    Type
REMARK                         _______ _______ _______ _____ _____    ______ ____
ROOT
ATOM      1  C   UNL     1       1.641   3.824  19.769  0.00  0.00    +0.000 A 
ATOM      2  C   UNL     1       1.907   5.031  20.429  0.00  0.00    +0.000 A 
ATOM      3  C   UNL     1       2.442   6.128  19.745  0.00  0.00    +0.000 A 
ATOM      4  C   UNL     1       2.719   6.024  18.384  0.00  0.00    +0.000 A 
ATOM      5  C   UNL     1       2.420   4.845  17.699  0.00  0.00    +0.000 A 
ATOM      6  C   UNL     1       1.908   3.740  18.397  0.00  0.00    +0.000 A 
ENDROOT
BRANCH   1   8
ATOM      7  C   UNL     1       1.831   2.613  21.823  0.00  0.00    +0.000 C 
ATOM      8  O   UNL     1       1.145   2.861  20.603  0.00  0.00    +0.000 OA
ENDBRANCH   1   8
BRANCH   4   9
ATOM      9  C   UNL     1       3.339   7.193  17.727  0.00  0.00    +0.000 C 
ATOM     10  N   UNL     1       4.501   7.329  17.157  0.00  0.00    +0.000 NA
BRANCH  10  11
ATOM     11  C   UNL     1       5.468   6.316  17.081  0.00  0.00    +0.000 A 
ATOM     12  C   UNL     1       6.299   6.119  18.181  0.00  0.00    +0.000 A 
ATOM     13  C   UNL     1       7.289   5.156  18.099  0.00  0.00    +0.000 A 
ATOM     14  N   UNL     1       7.508   4.397  17.005  0.00  0.00    +0.000 NA
ATOM     15  C   UNL     1       6.653   4.564  15.975  0.00  0.00    +0.000 A 
ATOM     16  C   UNL     1       5.608   5.471  15.982  0.00  0.00    +0.000 A 
ENDBRANCH  10  11
ENDBRANCH   4   9
BRANCH   6  17
ATOM     17  O   UNL     1       1.696   2.581  17.701  0.00  0.00    +0.000 OA
ATOM     18  H   UNL     1       0.749   2.486  17.500  0.00  0.00    +0.000 HD
ENDBRANCH   6  17
TORSDOF 4
ENDMDL
MODEL 4
REMARK VINA RESULT:      -6.5      2.886      5.493
REMARK  Name = 
REMARK  5 active torsions:
REMARK  status: ('A' for Active; 'I' for Inactive)
REMARK    1  A    between atoms: C_1  and  O_2
REMARK    2  A    between atoms: O_2  and  C_3
REMARK    3  A    between atoms: C_6  and  C_7
REMARK    4  A    between atoms: N_8  and  C_9
REMARK    5  A    between atoms: C_16  and  O_17
REMARK                            x       y       z     vdW  Elec       q    Type
REMARK                         _______ _______ _______ _____ _____    ______ ____
ROOT
ATOM      1  C   UNL     1       6.511   5.218  16.407  0.00  0.00    +0.000 A 
ATOM      2  C   UNL     1       5.488   5.997  15.849  0.00  0.00    +0.000 A 
ATOM      3  C   UNL     1       4.456   6.512  16.639  0.00  0.00    +0.000 A 
ATOM      4  C   UNL     1       4.436   6.248  18.007  0.00  0.00    +0.000 A 
ATOM      5  C   UNL     1       5.469   5.510  18.590  0.00  0.00    +0.000 A 
ATOM      6  C   UNL     1       6.487   4.975  17.786  0.00  0.00    +0.000 A 
ENDROOT
BRANCH   1   8
ATOM      7  C   UNL     1       6.993   4.690  14.124  0.00  0.00    +0.000 C 
ATOM      8  O   UNL     1       7.415   4.784  15.478  0.00  0.00    +0.000 OA
ENDBRANCH   1   8
BRANCH   4   9
ATOM      9  C   UNL     1       3.290   6.765  18.782  0.00  0.00    +0.000 C 
ATOM     10  N   UNL     1       2.331   6.139  19.399  0.00  0.00    +0.000 NA
BRANCH  10  11
ATOM     11  C   UNL     1       2.181   4.745  19.420  0.00  0.00    +0.000 A 
ATOM     12  C   UNL     1       1.654   4.125  18.290  0.00  0.00    +0.000 A 
ATOM     13  C   UNL     1       1.455   2.756  18.317  0.00  0.00    +0.000 A 
ATOM     14  N   UNL     1       1.733   1.979  19.384  0.00  0.00    +0.000 NA
ATOM     15  C   UNL     1       2.299   2.592  20.445  0.00  0.00    +0.000 A 
ATOM     16  C   UNL     1       2.574   3.948  20.492  0.00  0.00    +0.000 A 
ENDBRANCH  10  11
ENDBRANCH   4   9
BRANCH   6  17
ATOM     17  O   UNL     1       7.441   4.199  18.388  0.00  0.00    +0.000 OA
ATOM     18  H   UNL     1       8.046   3.842  17.716  0.00  0.00    +0.000 HD
ENDBRANCH   6  17
TORSDOF 4
ENDMDL
MODEL 5
REMARK VINA RESULT:      -6.5      3.117      5.580
REMARK  Name = 
REMARK  5 active torsions:
REMARK  status: ('A' for Active; 'I' for Inactive)
REMARK    1  A    between atoms: C_1  and  O_2
REMARK    2  A    between atoms: O_2  and  C_3
REMARK    3  A    between atoms: C_6  and  C_7
REMARK    4  A    between atoms: N_8  and  C_9
REMARK    5  A    between atoms: C_16  and  O_17
REMARK                            x       y       z     vdW  Elec       q    Type
REMARK                         _______ _______ _______ _____ _____    ______ ____
ROOT
ATOM      1  C   UNL     1       6.491   5.263  15.725  0.00  0.00    +0.000 A 
ATOM      2  C   UNL     1       5.300   6.002  15.686  0.00  0.00    +0.000 A 
ATOM      3  C   UNL     1       4.599   6.307  16.857  0.00  0.00    +0.000 A 
ATOM      4  C   UNL     1       5.085   5.869  18.087  0.00  0.00    +0.000 A 
ATOM      5  C   UNL     1       6.291   5.169  18.151  0.00  0.00    +0.000 A 
ATOM      6  C   UNL     1       6.976   4.845  16.970  0.00  0.00    +0.000 A 
ENDROOT
BRANCH   1   8
ATOM      7  C   UNL     1       6.437   4.030  13.675  0.00  0.00    +0.000 C 
ATOM      8  O   UNL     1       7.019   5.044  14.483  0.00  0.00    +0.000 OA
ENDBRANCH   1   8
BRANCH   4   9
ATOM      9  C   UNL     1       4.271   6.167  19.283  0.00  0.00    +0.000 C 
ATOM     10  N   UNL     1       3.340   5.473  19.870  0.00  0.00    +0.000 NA
BRANCH  10  11
ATOM     11  C   UNL     1       2.881   4.226  19.423  0.00  0.00    +0.000 A 
ATOM     12  C   UNL     1       1.662   4.177  18.753  0.00  0.00    +0.000 A 
ATOM     13  C   UNL     1       1.175   2.946  18.351  0.00  0.00    +0.000 A 
ATOM     14  N   UNL     1       1.810   1.779  18.578  0.00  0.00    +0.000 NA
ATOM     15  C   UNL     1       3.018   1.855  19.175  0.00  0.00    +0.000 A 
ATOM     16  C   UNL     1       3.604   3.044  19.574  0.00  0.00    +0.000 A 
ENDBRANCH  10  11
ENDBRANCH   4   9
BRANCH   6  17
ATOM     17  O   UNL     1       8.118   4.096  17.072  0.00  0.00    +0.000 OA
ATOM     18  H   UNL     1       8.848   4.546  16.614  0.00  0.00    +0.000 HD
ENDBRANCH   6  17
TORSDOF 4
ENDMDL
MODEL 6
REMARK VINA RESULT:      -6.5      3.268      5.722
REMARK  Name = 
REMARK  5 active torsions:
REMARK  status: ('A' for Active; 'I' for Inactive)
REMARK    1  A    between atoms: C_1  and  O_2
REMARK    2  A    between atoms: O_2  and  C_3
REMARK    3  A    between atoms: C_6  and  C_7
REMARK    4  A    between atoms: N_8  and  C_9
REMARK    5  A    between atoms: C_16  and  O_17
REMARK                            x       y       z     vdW  Elec       q    Type
REMARK                         _______ _______ _______ _____ _____    ______ ____
ROOT
ATOM      1  C   UNL     1       6.904   6.167  17.704  0.00  0.00    +0.000 A 
ATOM      2  C   UNL     1       5.654   6.784  17.552  0.00  0.00    +0.000 A 
ATOM      3  C   UNL     1       4.504   6.035  17.285  0.00  0.00    +0.000 A 
ATOM      4  C   UNL     1       4.595   4.649  17.165  0.00  0.00    +0.000 A 
ATOM      5  C   UNL     1       5.822   4.012  17.355  0.00  0.00    +0.000 A 
ATOM      6  C   UNL     1       6.977   4.773  17.597  0.00  0.00    +0.000 A 
ENDROOT
BRANCH   1   8
ATOM      7  C   UNL     1       7.699   8.420  17.576  0.00  0.00    +0.000 C 
ATOM      8  O   UNL     1       7.912   7.061  17.935  0.00  0.00    +0.000 OA
ENDBRANCH   1   8
BRANCH   4   9
ATOM      9  C   UNL     1       3.359   3.916  16.822  0.00  0.00    +0.000 C 
ATOM     10  N   UNL     1       2.411   3.451  17.581  0.00  0.00    +0.000 NA
BRANCH  10  11
ATOM     11  C   UNL     1       2.399   3.544  18.980  0.00  0.00    +0.000 A 
ATOM     12  C   UNL     1       3.002   2.523  19.710  0.00  0.00    +0.000 A 
ATOM     13  C   UNL     1       2.954   2.578  21.092  0.00  0.00    +0.000 A 
ATOM     14  N   UNL     1       2.345   3.564  21.781  0.00  0.00    +0.000 NA
ATOM     15  C   UNL     1       1.820   4.573  21.055  0.00  0.00    +0.000 A 
ATOM     16  C   UNL     1       1.858   4.625  19.673  0.00  0.00    +0.000 A 
ENDBRANCH  10  11
ENDBRANCH   4   9
BRANCH   6  17
ATOM     17  O   UNL     1       8.171   4.113  17.707  0.00  0.00    +0.000 OA
ATOM     18  H   UNL     1       8.342   3.895  18.639  0.00  0.00    +0.000 HD
ENDBRANCH   6  17
TORSDOF 4
ENDMDL
MODEL 7
REMARK VINA RESULT:      -6.4      3.112      5.611
REMARK  Name = 
REMARK  5 active torsions:
REMARK  status: ('A' for Active; 'I' for Inactive)
REMARK    1  A    between atoms: C_1  and  O_2
REMARK    2  A    between atoms: O_2  and  C_3
REMARK    3  A    between atoms: C_6  and  C_7
REMARK    4  A    between atoms: N_8  and  C_9
REMARK    5  A    between atoms: C_16  and  O_17
REMARK                            x       y       z     vdW  Elec       q    Type
REMARK                         _______ _______ _______ _____ _____    ______ ____
ROOT
ATOM      1  C   UNL     1       6.690   5.293  15.914  0.00  0.00    +0.000 A 
ATOM      2  C   UNL     1       5.507   6.031  15.775  0.00  0.00    +0.000 A 
ATOM      3  C   UNL     1       4.709   6.336  16.883  0.00  0.00    +0.000 A 
ATOM      4  C   UNL     1       5.090   5.897  18.149  0.00  0.00    +0.000 A 
ATOM      5  C   UNL     1       6.287   5.198  18.314  0.00  0.00    +0.000 A 
ATOM      6  C   UNL     1       7.069   4.874  17.195  0.00  0.00    +0.000 A 
ENDROOT
BRANCH   1   8
ATOM      7  C   UNL     1       6.655   4.287  13.743  0.00  0.00    +0.000 C 
ATOM      8  O   UNL     1       7.321   5.074  14.721  0.00  0.00    +0.000 OA
ENDBRANCH   1   8
BRANCH   4   9
ATOM      9  C   UNL     1       4.178   6.195  19.273  0.00  0.00    +0.000 C 
ATOM     10  N   UNL     1       3.242   5.475  19.819  0.00  0.00    +0.000 NA
BRANCH  10  11
ATOM     11  C   UNL     1       2.879   4.191  19.389  0.00  0.00    +0.000 A 
ATOM     12  C   UNL     1       3.726   3.130  19.698  0.00  0.00    +0.000 A 
ATOM     13  C   UNL     1       3.403   1.866  19.237  0.00  0.00    +0.000 A 
ATOM     14  N   UNL     1       2.313   1.598  18.490  0.00  0.00    +0.000 NA
ATOM     15  C   UNL     1       1.474   2.629  18.253  0.00  0.00    +0.000 A 
ATOM     16  C   UNL     1       1.693   3.917  18.710  0.00  0.00    +0.000 A 
ENDBRANCH  10  11
ENDBRANCH   4   9
BRANCH   6  17
ATOM     17  O   UNL     1       8.198   4.126  17.393  0.00  0.00    +0.000 OA
ATOM     18  H   UNL     1       8.085   3.248  16.993  0.00  0.00    +0.000 HD
ENDBRANCH   6  17
TORSDOF 4
ENDMDL
MODEL 8
REMARK VINA RESULT:      -6.4      3.454      5.977
REMARK  Name = 
REMARK  5 active torsions:
REMARK  status: ('A' for Active; 'I' for Inactive)
REMARK    1  A    between atoms: C_1  and  O_2
REMARK    2  A    between atoms: O_2  and  C_3
REMARK    3  A    between atoms: C_6  and  C_7
REMARK    4  A    between atoms: N_8  and  C_9
REMARK    5  A    between atoms: C_16  and  O_17
REMARK                            x       y       z     vdW  Elec       q    Type
REMARK                         _______ _______ _______ _____ _____    ______ ____
ROOT
ATOM      1  C   UNL     1       7.649   6.933  18.288  0.00  0.00    +0.000 A 
ATOM      2  C   UNL     1       6.778   7.257  17.238  0.00  0.00    +0.000 A 
ATOM      3  C   UNL     1       5.839   6.335  16.765  0.00  0.00    +0.000 A 
ATOM      4  C   UNL     1       5.764   5.069  17.342  0.00  0.00    +0.000 A 
ATOM      5  C   UNL     1       6.592   4.742  18.417  0.00  0.00    +0.000 A 
ATOM      6  C   UNL     1       7.549   5.663  18.869  0.00  0.00    +0.000 A 
ENDROOT
BRANCH   1   8
ATOM      7  C   UNL     1       8.271   9.228  18.022  0.00  0.00    +0.000 C 
ATOM      8  O   UNL     1       8.510   7.949  18.595  0.00  0.00    +0.000 OA
ENDBRANCH   1   8
BRANCH   4   9
ATOM      9  C   UNL     1       4.795   4.116  16.762  0.00  0.00    +0.000 C 
ATOM     10  N   UNL     1       3.682   3.642  17.239  0.00  0.00    +0.000 NA
BRANCH  10  11
ATOM     11  C   UNL     1       3.168   3.952  18.506  0.00  0.00    +0.000 A 
ATOM     12  C   UNL     1       3.310   3.009  19.520  0.00  0.00    +0.000 A 
ATOM     13  C   UNL     1       2.764   3.283  20.762  0.00  0.00    +0.000 A 
ATOM     14  N   UNL     1       2.087   4.414  21.049  0.00  0.00    +0.000 NA
ATOM     15  C   UNL     1       2.013   5.339  20.070  0.00  0.00    +0.000 A 
ATOM     16  C   UNL     1       2.566   5.171  18.812  0.00  0.00    +0.000 A 
ENDBRANCH  10  11
ENDBRANCH   4   9
BRANCH   6  17
ATOM     17  O   UNL     1       8.389   5.276  19.878  0.00  0.00    +0.000 OA
ATOM     18  H   UNL     1       8.784   4.413  19.665  0.00  0.00    +0.000 HD
ENDBRANCH   6  17
TORSDOF 4
ENDMDL
MODEL 9
REMARK VINA RESULT:      -6.4      3.418      5.941
REMARK  Name = 
REMARK  5 active torsions:
REMARK  status: ('A' for Active; 'I' for Inactive)
REMARK    1  A    between atoms: C_1  and  O_2
REMARK    2  A    between atoms: O_2  and  C_3
REMARK    3  A    between atoms: C_6  and  C_7
REMARK    4  A    between atoms: N_8  and  C_9
REMARK    5  A    between atoms: C_16  and  O_17
REMARK                            x       y       z     vdW  Elec       q    Type
REMARK                         _______ _______ _______ _____ _____    ______ ____
ROOT
ATOM      1  C   UNL     1       7.678   6.940  18.293  0.00  0.00    +0.000 A 
ATOM      2  C   UNL     1       6.844   7.251  17.210  0.00  0.00    +0.000 A 
ATOM      3  C   UNL     1       5.916   6.327  16.720  0.00  0.00    +0.000 A 
ATOM      4  C   UNL     1       5.814   5.071  17.314  0.00  0.00    +0.000 A 
ATOM      5  C   UNL     1       6.604   4.757  18.422  0.00  0.00    +0.000 A 
ATOM      6  C   UNL     1       7.551   5.680  18.891  0.00  0.00    +0.000 A 
ENDROOT
BRANCH   1   8
ATOM      7  C   UNL     1       8.290   9.240  18.055  0.00  0.00    +0.000 C 
ATOM      8  O   UNL     1       8.534   7.956  18.612  0.00  0.00    +0.000 OA
ENDBRANCH   1   8
BRANCH   4   9
ATOM      9  C   UNL     1       4.860   4.114  16.718  0.00  0.00    +0.000 C 
ATOM     10  N   UNL     1       3.737   3.640  17.173  0.00  0.00    +0.000 NA
BRANCH  10  11
ATOM     11  C   UNL     1       3.196   3.953  18.428  0.00  0.00    +0.000 A 
ATOM     12  C   UNL     1       2.592   5.197  18.590  0.00  0.00    +0.000 A 
ATOM     13  C   UNL     1       2.099   5.538  19.837  0.00  0.00    +0.000 A 
ATOM     14  N   UNL     1       2.177   4.735  20.918  0.00  0.00    +0.000 NA
ATOM     15  C   UNL     1       2.713   3.511  20.724  0.00  0.00    +0.000 A 
ATOM     16  C   UNL     1       3.193   3.068  19.504  0.00  0.00    +0.000 A 
ENDBRANCH  10  11
ENDBRANCH   4   9
BRANCH   6  17
ATOM     17  O   UNL     1       8.355   5.304  19.933  0.00  0.00    +0.000 OA
ATOM     18  H   UNL     1       8.013   5.678  20.763  0.00  0.00    +0.000 HD
ENDBRANCH   6  17
TORSDOF 4
ENDMDL
