MODEL 1
REMARK VINA RESULT:      -8.5      0.000      0.000
REMARK  Name = 
REMARK  7 active torsions:
REMARK  status: ('A' for Active; 'I' for Inactive)
REMARK    1  A    between atoms: C_1  and  C_2
REMARK    2  A    between atoms: C_2  and  O_3
REMARK    3  A    between atoms: C_6  and  O_7
REMARK    4  A    between atoms: C_10  and  O_11
REMARK    5  A    between atoms: C_14  and  O_15
REMARK    6  A    between atoms: C_19  and  N_20
REMARK    7  A    between atoms: C_23  and  C_24
REMARK                            x       y       z     vdW  Elec       q    Type
REMARK                         _______ _______ _______ _____ _____    ______ ____
ROOT
ATOM      1  C   UNL     1      -2.407  11.469  19.365  0.00  0.00    +0.000 C 
ATOM      2  C   UNL     1      -1.168  12.202  19.902  0.00  0.00    +0.000 C 
ATOM      3  C   UNL     1       0.066  11.849  19.064  0.00  0.00    +0.000 C 
ATOM      4  C   UNL     1       0.643  10.483  19.360  0.00  0.00    +0.000 A 
ATOM      5  C   UNL     1       1.541   9.883  18.459  0.00  0.00    +0.000 A 
ATOM      6  C   UNL     1       2.079   8.609  18.713  0.00  0.00    +0.000 A 
ATOM      7  C   UNL     1       1.706   7.931  19.876  0.00  0.00    +0.000 A 
ATOM      8  C   UNL     1       0.825   8.523  20.786  0.00  0.00    +0.000 A 
ATOM      9  C   UNL     1       0.309   9.802  20.554  0.00  0.00    +0.000 A 
ATOM     10  C   UNL     1      -0.647  10.383  21.579  0.00  0.00    +0.000 C 
ATOM     11  C   UNL     1      -0.892  11.877  21.387  0.00  0.00    +0.000 C 
ATOM     12  C   UNL     1       2.216   6.581  20.168  0.00  0.00    +0.000 C 
ATOM     13  O   UNL     1       1.893   5.985  21.176  0.00  0.00    +0.000 OA
ATOM     14  C   UNL     1       3.122   5.965  19.205  0.00  0.00    +0.000 C 
ATOM     15  C   UNL     1       3.520   6.590  18.095  0.00  0.00    +0.000 C 
ATOM     16  C   UNL     1       3.027   7.974  17.763  0.00  0.00    +0.000 C 
ATOM     17  O   UNL     1       3.393   8.523  16.729  0.00  0.00    +0.000 OA
ENDROOT
BRANCH  15  18
ATOM     18  N   UNL     1       4.359   5.972  17.182  0.00  0.00    +0.000 N 
ATOM     19  C   UNL     1       4.070   4.617  16.703  0.00  0.00    +0.000 C 
ATOM     20  C   UNL     1       5.281   3.703  16.838  0.00  0.00    +0.000 C 
ATOM     21  C   UNL     1       6.579   4.335  16.299  0.00  0.00    +0.000 C 
ATOM     22  C   UNL     1       6.789   5.712  16.936  0.00  0.00    +0.000 C 
ATOM     23  C   UNL     1       5.591   6.631  16.749  0.00  0.00    +0.000 C 
BRANCH  21  24
ATOM     24  C   UNL     1       6.678   4.364  14.777  0.00  0.00    +0.000 A 
ATOM     25  C   UNL     1       5.833   3.560  14.000  0.00  0.00    +0.000 A 
ATOM     26  C   UNL     1       5.933   3.525  12.614  0.00  0.00    +0.000 A 
ATOM     27  C   UNL     1       6.894   4.290  11.966  0.00  0.00    +0.000 A 
ATOM     28  C   UNL     1       7.742   5.102  12.706  0.00  0.00    +0.000 A 
ATOM     29  C   UNL     1       7.635   5.142  14.099  0.00  0.00    +0.000 A 
ENDBRANCH  21  24
ENDBRANCH  15  18
BRANCH   2  30
ATOM     30  O   UNL     1      -1.418  13.609  19.772  0.00  0.00    +0.000 OA
ATOM     31  H   UNL     1      -2.377  13.752  19.726  0.00  0.00    +0.000 HD
ENDBRANCH   2  30
BRANCH   5  32
ATOM     32  O   UNL     1       1.889  10.528  17.304  0.00  0.00    +0.000 OA
ATOM     33  H   UNL     1       2.134  11.454  17.436  0.00  0.00    +0.000 HD
ENDBRANCH   5  32
BRANCH   8  34
ATOM     34  O   UNL     1       0.416   7.889  21.933  0.00  0.00    +0.000 OA
ATOM     35  H   UNL     1       0.893   7.032  22.017  0.00  0.00    +0.000 HD
ENDBRANCH   8  34
BRANCH  11  36
ATOM     36  O   UNL     1       0.241  12.606  21.894  0.00  0.00    +0.000 OA
ATOM     37  H   UNL     1       0.651  12.091  22.608  0.00  0.00    +0.000 HD
ENDBRANCH  11  36
TORSDOF 6
ENDMDL
MODEL 2
REMARK VINA RESULT:      -8.1      3.009     10.242
REMARK  Name = 
REMARK  7 active torsions:
REMARK  status: ('A' for Active; 'I' for Inactive)
REMARK    1  A    between atoms: C_1  and  C_2
REMARK    2  A    between atoms: C_2  and  O_3
REMARK    3  A    between atoms: C_6  and  O_7
REMARK    4  A    between atoms: C_10  and  O_11
REMARK    5  A    between atoms: C_14  and  O_15
REMARK    6  A    between atoms: C_19  and  N_20
REMARK    7  A    between atoms: C_23  and  C_24
REMARK                            x       y       z     vdW  Elec       q    Type
REMARK                         _______ _______ _______ _____ _____    ______ ____
ROOT
ATOM      1  C   UNL     1       2.689   3.099  17.783  0.00  0.00    +0.000 C 
ATOM      2  C   UNL     1       3.703   3.540  18.849  0.00  0.00    +0.000 C 
ATOM      3  C   UNL     1       3.020   4.415  19.906  0.00  0.00    +0.000 C 
ATOM      4  C   UNL     1       2.751   5.833  19.455  0.00  0.00    +0.000 A 
ATOM      5  C   UNL     1       1.841   6.641  20.162  0.00  0.00    +0.000 A 
ATOM      6  C   UNL     1       1.571   7.958  19.749  0.00  0.00    +0.000 A 
ATOM      7  C   UNL     1       2.212   8.462  18.616  0.00  0.00    +0.000 A 
ATOM      8  C   UNL     1       3.128   7.674  17.913  0.00  0.00    +0.000 A 
ATOM      9  C   UNL     1       3.424   6.373  18.334  0.00  0.00    +0.000 A 
ATOM     10  C   UNL     1       4.422   5.569  17.522  0.00  0.00    +0.000 C 
ATOM     11  C   UNL     1       4.897   4.309  18.239  0.00  0.00    +0.000 C 
ATOM     12  C   UNL     1       1.936   9.824  18.126  0.00  0.00    +0.000 C 
ATOM     13  O   UNL     1       2.488  10.267  17.140  0.00  0.00    +0.000 OA
ATOM     14  C   UNL     1       0.967  10.633  18.857  0.00  0.00    +0.000 C 
ATOM     15  C   UNL     1       0.352  10.194  19.958  0.00  0.00    +0.000 C 
ATOM     16  C   UNL     1       0.612   8.812  20.495  0.00  0.00    +0.000 C 
ATOM     17  O   UNL     1       0.024   8.423  21.498  0.00  0.00    +0.000 OA
ENDROOT
BRANCH  15  18
ATOM     18  N   UNL     1      -0.585  10.973  20.617  0.00  0.00    +0.000 N 
ATOM     19  C   UNL     1      -1.700  11.580  19.883  0.00  0.00    +0.000 C 
ATOM     20  C   UNL     1      -1.815  13.072  20.168  0.00  0.00    +0.000 C 
ATOM     21  C   UNL     1      -1.750  13.407  21.671  0.00  0.00    +0.000 C 
ATOM     22  C   UNL     1      -0.502  12.768  22.291  0.00  0.00    +0.000 C 
ATOM     23  C   UNL     1      -0.427  11.270  22.040  0.00  0.00    +0.000 C 
BRANCH  21  24
ATOM     24  C   UNL     1      -3.027  13.085  22.442  0.00  0.00    +0.000 A 
ATOM     25  C   UNL     1      -4.264  13.081  21.785  0.00  0.00    +0.000 A 
ATOM     26  C   UNL     1      -5.451  12.842  22.469  0.00  0.00    +0.000 A 
ATOM     27  C   UNL     1      -5.431  12.611  23.838  0.00  0.00    +0.000 A 
ATOM     28  C   UNL     1      -4.219  12.602  24.517  0.00  0.00    +0.000 A 
ATOM     29  C   UNL     1      -3.027  12.834  23.827  0.00  0.00    +0.000 A 
ENDBRANCH  21  24
ENDBRANCH  15  18
BRANCH   2  30
ATOM     30  O   UNL     1       4.191   2.352  19.489  0.00  0.00    +0.000 OA
ATOM     31  H   UNL     1       4.136   2.471  20.451  0.00  0.00    +0.000 HD
ENDBRANCH   2  30
BRANCH   5  32
ATOM     32  O   UNL     1       1.188   6.144  21.255  0.00  0.00    +0.000 OA
ATOM     33  H   UNL     1       1.505   5.274  21.534  0.00  0.00    +0.000 HD
ENDBRANCH   5  32
BRANCH   8  34
ATOM     34  O   UNL     1       3.769   8.119  16.784  0.00  0.00    +0.000 OA
ATOM     35  H   UNL     1       4.385   8.849  17.027  0.00  0.00    +0.000 HD
ENDBRANCH   8  34
BRANCH  11  36
ATOM     36  O   UNL     1       5.866   4.675  19.239  0.00  0.00    +0.000 OA
ATOM     37  H   UNL     1       5.998   5.637  19.209  0.00  0.00    +0.000 HD
ENDBRANCH  11  36
TORSDOF 6
ENDMDL
MODEL 3
REMARK VINA RESULT:      -7.8      2.848      5.116
REMARK  Name = 
REMARK  7 active torsions:
REMARK  status: ('A' for Active; 'I' for Inactive)
REMARK    1  A    between atoms: C_1  and  C_2
REMARK    2  A    between atoms: C_2  and  O_3
REMARK    3  A    between atoms: C_6  and  O_7
REMARK    4  A    between atoms: C_10  and  O_11
REMARK    5  A    between atoms: C_14  and  O_15
REMARK    6  A    between atoms: C_19  and  N_20
REMARK    7  A    between atoms: C_23  and  C_24
REMARK                            x       y       z     vdW  Elec       q    Type
REMARK                         _______ _______ _______ _____ _____    ______ ____
ROOT
ATOM      1  C   UNL     1      -2.107  15.007  23.565  0.00  0.00    +0.000 C 
ATOM      2  C   UNL     1      -2.977  13.776  23.864  0.00  0.00    +0.000 C 
ATOM      3  C   UNL     1      -2.136  12.497  23.785  0.00  0.00    +0.000 C 
ATOM      4  C   UNL     1      -1.831  12.044  22.374  0.00  0.00    +0.000 A 
ATOM      5  C   UNL     1      -0.807  11.110  22.137  0.00  0.00    +0.000 A 
ATOM      6  C   UNL     1      -0.503  10.686  20.831  0.00  0.00    +0.000 A 
ATOM      7  C   UNL     1      -1.227  11.210  19.758  0.00  0.00    +0.000 A 
ATOM      8  C   UNL     1      -2.256  12.128  19.983  0.00  0.00    +0.000 A 
ATOM      9  C   UNL     1      -2.584  12.533  21.282  0.00  0.00    +0.000 A 
ATOM     10  C   UNL     1      -3.708  13.538  21.455  0.00  0.00    +0.000 C 
ATOM     11  C   UNL     1      -4.180  13.661  22.900  0.00  0.00    +0.000 C 
ATOM     12  C   UNL     1      -0.922  10.822  18.370  0.00  0.00    +0.000 C 
ATOM     13  O   UNL     1      -1.547  11.276  17.433  0.00  0.00    +0.000 OA
ATOM     14  C   UNL     1       0.164   9.875  18.145  0.00  0.00    +0.000 C 
ATOM     15  C   UNL     1       0.863   9.335  19.145  0.00  0.00    +0.000 C 
ATOM     16  C   UNL     1       0.579   9.699  20.578  0.00  0.00    +0.000 C 
ATOM     17  O   UNL     1       1.244   9.204  21.481  0.00  0.00    +0.000 OA
ENDROOT
BRANCH  15  18
ATOM     18  N   UNL     1       1.909   8.459  18.902  0.00  0.00    +0.000 N 
ATOM     19  C   UNL     1       2.534   8.394  17.577  0.00  0.00    +0.000 C 
ATOM     20  C   UNL     1       2.609   6.962  17.061  0.00  0.00    +0.000 C 
ATOM     21  C   UNL     1       3.161   5.972  18.105  0.00  0.00    +0.000 C 
ATOM     22  C   UNL     1       2.371   6.102  19.411  0.00  0.00    +0.000 C 
ATOM     23  C   UNL     1       2.347   7.528  19.940  0.00  0.00    +0.000 C 
BRANCH  21  24
ATOM     24  C   UNL     1       4.671   6.056  18.313  0.00  0.00    +0.000 A 
ATOM     25  C   UNL     1       5.463   6.800  17.430  0.00  0.00    +0.000 A 
ATOM     26  C   UNL     1       6.847   6.854  17.562  0.00  0.00    +0.000 A 
ATOM     27  C   UNL     1       7.476   6.151  18.580  0.00  0.00    +0.000 A 
ATOM     28  C   UNL     1       6.718   5.409  19.476  0.00  0.00    +0.000 A 
ATOM     29  C   UNL     1       5.328   5.362  19.347  0.00  0.00    +0.000 A 
ENDBRANCH  21  24
ENDBRANCH  15  18
BRANCH   2  30
ATOM     30  O   UNL     1      -3.466  13.916  25.205  0.00  0.00    +0.000 OA
ATOM     31  H   UNL     1      -2.708  13.984  25.808  0.00  0.00    +0.000 HD
ENDBRANCH   2  30
BRANCH   5  32
ATOM     32  O   UNL     1      -0.074  10.614  23.179  0.00  0.00    +0.000 OA
ATOM     33  H   UNL     1       0.725  10.145  22.902  0.00  0.00    +0.000 HD
ENDBRANCH   5  32
BRANCH   8  34
ATOM     34  O   UNL     1      -2.984  12.684  18.960  0.00  0.00    +0.000 OA
ATOM     35  H   UNL     1      -2.986  13.664  19.059  0.00  0.00    +0.000 HD
ENDBRANCH   8  34
BRANCH  11  36
ATOM     36  O   UNL     1      -5.015  12.533  23.219  0.00  0.00    +0.000 OA
ATOM     37  H   UNL     1      -4.565  11.988  23.885  0.00  0.00    +0.000 HD
ENDBRANCH  11  36
TORSDOF 6
ENDMDL
MODEL 4
REMARK VINA RESULT:      -7.8      3.037      9.158
REMARK  Name = 
REMARK  7 active torsions:
REMARK  status: ('A' for Active; 'I' for Inactive)
REMARK    1  A    between atoms: C_1  and  C_2
REMARK    2  A    between atoms: C_2  and  O_3
REMARK    3  A    between atoms: C_6  and  O_7
REMARK    4  A    between atoms: C_10  and  O_11
REMARK    5  A    between atoms: C_14  and  O_15
REMARK    6  A    between atoms: C_19  and  N_20
REMARK    7  A    between atoms: C_23  and  C_24
REMARK                            x       y       z     vdW  Elec       q    Type
REMARK                         _______ _______ _______ _____ _____    ______ ____
ROOT
ATOM      1  C   UNL     1       5.704   4.475  18.570  0.00  0.00    +0.000 C 
ATOM      2  C   UNL     1       4.513   4.272  17.619  0.00  0.00    +0.000 C 
ATOM      3  C   UNL     1       4.015   5.622  17.091  0.00  0.00    +0.000 C 
ATOM      4  C   UNL     1       3.193   6.409  18.087  0.00  0.00    +0.000 A 
ATOM      5  C   UNL     1       2.961   7.782  17.885  0.00  0.00    +0.000 A 
ATOM      6  C   UNL     1       2.208   8.531  18.807  0.00  0.00    +0.000 A 
ATOM      7  C   UNL     1       1.692   7.899  19.940  0.00  0.00    +0.000 A 
ATOM      8  C   UNL     1       1.904   6.532  20.144  0.00  0.00    +0.000 A 
ATOM      9  C   UNL     1       2.628   5.774  19.217  0.00  0.00    +0.000 A 
ATOM     10  C   UNL     1       2.827   4.297  19.503  0.00  0.00    +0.000 C 
ATOM     11  C   UNL     1       3.345   3.521  18.296  0.00  0.00    +0.000 C 
ATOM     12  C   UNL     1       0.926   8.649  20.950  0.00  0.00    +0.000 C 
ATOM     13  O   UNL     1       0.478   8.105  21.939  0.00  0.00    +0.000 OA
ATOM     14  C   UNL     1       0.723  10.078  20.736  0.00  0.00    +0.000 C 
ATOM     15  C   UNL     1       1.180  10.712  19.655  0.00  0.00    +0.000 C 
ATOM     16  C   UNL     1       1.961   9.980  18.596  0.00  0.00    +0.000 C 
ATOM     17  O   UNL     1       2.386  10.586  17.618  0.00  0.00    +0.000 OA
ENDROOT
BRANCH  15  18
ATOM     18  N   UNL     1       0.998  12.076  19.490  0.00  0.00    +0.000 N 
ATOM     19  C   UNL     1       1.839  13.033  20.214  0.00  0.00    +0.000 C 
ATOM     20  C   UNL     1       1.003  14.079  20.941  0.00  0.00    +0.000 C 
ATOM     21  C   UNL     1      -0.095  14.698  20.054  0.00  0.00    +0.000 C 
ATOM     22  C   UNL     1      -0.937  13.586  19.420  0.00  0.00    +0.000 C 
ATOM     23  C   UNL     1      -0.093  12.578  18.655  0.00  0.00    +0.000 C 
BRANCH  21  24
ATOM     24  C   UNL     1       0.418  15.710  19.034  0.00  0.00    +0.000 A 
ATOM     25  C   UNL     1       1.791  15.813  18.773  0.00  0.00    +0.000 A 
ATOM     26  C   UNL     1       2.295  16.760  17.888  0.00  0.00    +0.000 A 
ATOM     27  C   UNL     1       1.434  17.640  17.246  0.00  0.00    +0.000 A 
ATOM     28  C   UNL     1       0.067  17.559  17.478  0.00  0.00    +0.000 A 
ATOM     29  C   UNL     1      -0.439  16.602  18.362  0.00  0.00    +0.000 A 
ENDBRANCH  21  24
ENDBRANCH  15  18
BRANCH   2  30
ATOM     30  O   UNL     1       4.985   3.496  16.508  0.00  0.00    +0.000 OA
ATOM     31  H   UNL     1       5.943   3.627  16.421  0.00  0.00    +0.000 HD
ENDBRANCH   2  30
BRANCH   5  32
ATOM     32  O   UNL     1       3.487   8.414  16.793  0.00  0.00    +0.000 OA
ATOM     33  H   UNL     1       4.390   8.732  16.927  0.00  0.00    +0.000 HD
ENDBRANCH   5  32
BRANCH   8  34
ATOM     34  O   UNL     1       1.433   5.871  21.250  0.00  0.00    +0.000 OA
ATOM     35  H   UNL     1       0.639   6.341  21.596  0.00  0.00    +0.000 HD
ENDBRANCH   8  34
BRANCH  11  36
ATOM     36  O   UNL     1       2.255   3.292  17.383  0.00  0.00    +0.000 OA
ATOM     37  H   UNL     1       1.558   3.946  17.558  0.00  0.00    +0.000 HD
ENDBRANCH  11  36
TORSDOF 6
ENDMDL
MODEL 5
REMARK VINA RESULT:      -7.8      3.449      9.258
REMARK  Name = 
REMARK  7 active torsions:
REMARK  status: ('A' for Active; 'I' for Inactive)
REMARK    1  A    between atoms: C_1  and  C_2
REMARK    2  A    between atoms: C_2  and  O_3
REMARK    3  A    between atoms: C_6  and  O_7
REMARK    4  A    between atoms: C_10  and  O_11
REMARK    5  A    between atoms: C_14  and  O_15
REMARK    6  A    between atoms: C_19  and  N_20
REMARK    7  A    between atoms: C_23  and  C_24
REMARK                            x       y       z     vdW  Elec       q    Type
REMARK                         _______ _______ _______ _____ _____    ______ ____
ROOT
ATOM      1  C   UNL     1       5.057   5.036  18.972  0.00  0.00    +0.000 C 
ATOM      2  C   UNL     1       3.787   4.826  18.133  0.00  0.00    +0.000 C 
ATOM      3  C   UNL     1       3.340   6.149  17.502  0.00  0.00    +0.000 C 
ATOM      4  C   UNL     1       2.650   7.091  18.464  0.00  0.00    +0.000 A 
ATOM      5  C   UNL     1       2.495   8.450  18.135  0.00  0.00    +0.000 A 
ATOM      6  C   UNL     1       1.866   9.341  19.022  0.00  0.00    +0.000 A 
ATOM      7  C   UNL     1       1.398   8.866  20.249  0.00  0.00    +0.000 A 
ATOM      8  C   UNL     1       1.535   7.515  20.580  0.00  0.00    +0.000 A 
ATOM      9  C   UNL     1       2.133   6.616  19.691  0.00  0.00    +0.000 A 
ATOM     10  C   UNL     1       2.256   5.165  20.117  0.00  0.00    +0.000 C 
ATOM     11  C   UNL     1       2.627   4.235  18.966  0.00  0.00    +0.000 C 
ATOM     12  C   UNL     1       0.764   9.769  21.224  0.00  0.00    +0.000 C 
ATOM     13  O   UNL     1       0.357   9.362  22.294  0.00  0.00    +0.000 OA
ATOM     14  C   UNL     1       0.640  11.180  20.875  0.00  0.00    +0.000 C 
ATOM     15  C   UNL     1       1.053  11.667  19.703  0.00  0.00    +0.000 C 
ATOM     16  C   UNL     1       1.700  10.776  18.676  0.00  0.00    +0.000 C 
ATOM     17  O   UNL     1       2.087  11.248  17.612  0.00  0.00    +0.000 OA
ENDROOT
BRANCH  15  18
ATOM     18  N   UNL     1       0.949  13.016  19.408  0.00  0.00    +0.000 N 
ATOM     19  C   UNL     1       2.068  13.926  19.674  0.00  0.00    +0.000 C 
ATOM     20  C   UNL     1       1.623  15.146  20.470  0.00  0.00    +0.000 C 
ATOM     21  C   UNL     1       0.351  15.807  19.904  0.00  0.00    +0.000 C 
ATOM     22  C   UNL     1      -0.752  14.755  19.745  0.00  0.00    +0.000 C 
ATOM     23  C   UNL     1      -0.309  13.566  18.905  0.00  0.00    +0.000 C 
BRANCH  21  24
ATOM     24  C   UNL     1       0.579  16.625  18.637  0.00  0.00    +0.000 A 
ATOM     25  C   UNL     1       1.873  16.782  18.123  0.00  0.00    +0.000 A 
ATOM     26  C   UNL     1       2.121  17.563  17.000  0.00  0.00    +0.000 A 
ATOM     27  C   UNL     1       1.075  18.220  16.365  0.00  0.00    +0.000 A 
ATOM     28  C   UNL     1      -0.220  18.079  16.845  0.00  0.00    +0.000 A 
ATOM     29  C   UNL     1      -0.469  17.287  17.969  0.00  0.00    +0.000 A 
ENDBRANCH  21  24
ENDBRANCH  15  18
BRANCH   2  30
ATOM     30  O   UNL     1       4.119   3.909  17.081  0.00  0.00    +0.000 OA
ATOM     31  H   UNL     1       5.007   4.124  16.750  0.00  0.00    +0.000 HD
ENDBRANCH   2  30
BRANCH   5  32
ATOM     32  O   UNL     1       2.976   8.929  16.948  0.00  0.00    +0.000 OA
ATOM     33  H   UNL     1       3.179   8.236  16.304  0.00  0.00    +0.000 HD
ENDBRANCH   5  32
BRANCH   8  34
ATOM     34  O   UNL     1       1.107   7.005  21.781  0.00  0.00    +0.000 OA
ATOM     35  H   UNL     1       1.395   6.066  21.855  0.00  0.00    +0.000 HD
ENDBRANCH   8  34
BRANCH  11  36
ATOM     36  O   UNL     1       1.457   3.996  18.161  0.00  0.00    +0.000 OA
ATOM     37  H   UNL     1       1.133   4.847  17.819  0.00  0.00    +0.000 HD
ENDBRANCH  11  36
TORSDOF 6
ENDMDL
MODEL 6
REMARK VINA RESULT:      -7.7      2.421      9.625
REMARK  Name = 
REMARK  7 active torsions:
REMARK  status: ('A' for Active; 'I' for Inactive)
REMARK    1  A    between atoms: C_1  and  C_2
REMARK    2  A    between atoms: C_2  and  O_3
REMARK    3  A    between atoms: C_6  and  O_7
REMARK    4  A    between atoms: C_10  and  O_11
REMARK    5  A    between atoms: C_14  and  O_15
REMARK    6  A    between atoms: C_19  and  N_20
REMARK    7  A    between atoms: C_23  and  C_24
REMARK                            x       y       z     vdW  Elec       q    Type
REMARK                         _______ _______ _______ _____ _____    ______ ____
ROOT
ATOM      1  C   UNL     1       7.523   5.985  17.258  0.00  0.00    +0.000 C 
ATOM      2  C   UNL     1       6.458   5.570  16.229  0.00  0.00    +0.000 C 
ATOM      3  C   UNL     1       5.327   6.604  16.187  0.00  0.00    +0.000 C 
ATOM      4  C   UNL     1       4.362   6.511  17.347  0.00  0.00    +0.000 A 
ATOM      5  C   UNL     1       3.493   7.580  17.632  0.00  0.00    +0.000 A 
ATOM      6  C   UNL     1       2.597   7.516  18.714  0.00  0.00    +0.000 A 
ATOM      7  C   UNL     1       2.580   6.375  19.518  0.00  0.00    +0.000 A 
ATOM      8  C   UNL     1       3.429   5.300  19.236  0.00  0.00    +0.000 A 
ATOM      9  C   UNL     1       4.303   5.345  18.145  0.00  0.00    +0.000 A 
ATOM     10  C   UNL     1       5.202   4.147  17.900  0.00  0.00    +0.000 C 
ATOM     11  C   UNL     1       5.869   4.173  16.528  0.00  0.00    +0.000 C 
ATOM     12  C   UNL     1       1.683   6.275  20.682  0.00  0.00    +0.000 C 
ATOM     13  O   UNL     1       1.666   5.286  21.387  0.00  0.00    +0.000 OA
ATOM     14  C   UNL     1       0.813   7.407  20.977  0.00  0.00    +0.000 C 
ATOM     15  C   UNL     1       0.783   8.505  20.219  0.00  0.00    +0.000 C 
ATOM     16  C   UNL     1       1.679   8.643  19.016  0.00  0.00    +0.000 C 
ATOM     17  O   UNL     1       1.647   9.667  18.343  0.00  0.00    +0.000 OA
ENDROOT
BRANCH  15  18
ATOM     18  N   UNL     1      -0.033   9.578  20.537  0.00  0.00    +0.000 N 
ATOM     19  C   UNL     1      -1.110   9.991  19.632  0.00  0.00    +0.000 C 
ATOM     20  C   UNL     1      -1.052  11.483  19.332  0.00  0.00    +0.000 C 
ATOM     21  C   UNL     1      -0.879  12.348  20.596  0.00  0.00    +0.000 C 
ATOM     22  C   UNL     1       0.321  11.848  21.407  0.00  0.00    +0.000 C 
ATOM     23  C   UNL     1       0.223  10.367  21.742  0.00  0.00    +0.000 C 
BRANCH  21  24
ATOM     24  C   UNL     1      -2.145  12.491  21.435  0.00  0.00    +0.000 A 
ATOM     25  C   UNL     1      -3.380  12.723  20.816  0.00  0.00    +0.000 A 
ATOM     26  C   UNL     1      -4.543  12.909  21.555  0.00  0.00    +0.000 A 
ATOM     27  C   UNL     1      -4.497  12.878  22.942  0.00  0.00    +0.000 A 
ATOM     28  C   UNL     1      -3.290  12.643  23.587  0.00  0.00    +0.000 A 
ATOM     29  C   UNL     1      -2.124  12.449  22.843  0.00  0.00    +0.000 A 
ENDBRANCH  21  24
ENDBRANCH  15  18
BRANCH   2  30
ATOM     30  O   UNL     1       7.098   5.542  14.945  0.00  0.00    +0.000 OA
ATOM     31  H   UNL     1       8.055   5.641  15.071  0.00  0.00    +0.000 HD
ENDBRANCH   2  30
BRANCH   5  32
ATOM     32  O   UNL     1       3.524   8.713  16.867  0.00  0.00    +0.000 OA
ATOM     33  H   UNL     1       3.966   9.459  17.297  0.00  0.00    +0.000 HD
ENDBRANCH   5  32
BRANCH   8  34
ATOM     34  O   UNL     1       3.461   4.165  20.008  0.00  0.00    +0.000 OA
ATOM     35  H   UNL     1       4.397   3.940  20.216  0.00  0.00    +0.000 HD
ENDBRANCH   8  34
BRANCH  11  36
ATOM     36  O   UNL     1       4.910   3.773  15.532  0.00  0.00    +0.000 OA
ATOM     37  H   UNL     1       5.272   3.968  14.651  0.00  0.00    +0.000 HD
ENDBRANCH  11  36
TORSDOF 6
ENDMDL
MODEL 7
REMARK VINA RESULT:      -7.7      2.788      9.397
REMARK  Name = 
REMARK  7 active torsions:
REMARK  status: ('A' for Active; 'I' for Inactive)
REMARK    1  A    between atoms: C_1  and  C_2
REMARK    2  A    between atoms: C_2  and  O_3
REMARK    3  A    between atoms: C_6  and  O_7
REMARK    4  A    between atoms: C_10  and  O_11
REMARK    5  A    between atoms: C_14  and  O_15
REMARK    6  A    between atoms: C_19  and  N_20
REMARK    7  A    between atoms: C_23  and  C_24
REMARK                            x       y       z     vdW  Elec       q    Type
REMARK                         _______ _______ _______ _____ _____    ______ ____
ROOT
ATOM      1  C   UNL     1       6.416   4.687  18.206  0.00  0.00    +0.000 C 
ATOM      2  C   UNL     1       5.199   4.255  17.371  0.00  0.00    +0.000 C 
ATOM      3  C   UNL     1       4.423   5.484  16.884  0.00  0.00    +0.000 C 
ATOM      4  C   UNL     1       3.567   6.135  17.948  0.00  0.00    +0.000 A 
ATOM      5  C   UNL     1       3.077   7.440  17.760  0.00  0.00    +0.000 A 
ATOM      6  C   UNL     1       2.289   8.065  18.743  0.00  0.00    +0.000 A 
ATOM      7  C   UNL     1       2.000   7.378  19.924  0.00  0.00    +0.000 A 
ATOM      8  C   UNL     1       2.470   6.075  20.115  0.00  0.00    +0.000 A 
ATOM      9  C   UNL     1       3.230   5.436  19.130  0.00  0.00    +0.000 A 
ATOM     10  C   UNL     1       3.714   4.024  19.405  0.00  0.00    +0.000 C 
ATOM     11  C   UNL     1       4.250   3.325  18.159  0.00  0.00    +0.000 C 
ATOM     12  C   UNL     1       1.207   8.004  20.996  0.00  0.00    +0.000 C 
ATOM     13  O   UNL     1       0.955   7.412  22.026  0.00  0.00    +0.000 OA
ATOM     14  C   UNL     1       0.735   9.369  20.793  0.00  0.00    +0.000 C 
ATOM     15  C   UNL     1       0.971  10.049  19.670  0.00  0.00    +0.000 C 
ATOM     16  C   UNL     1       1.770   9.443  18.547  0.00  0.00    +0.000 C 
ATOM     17  O   UNL     1       1.990  10.092  17.530  0.00  0.00    +0.000 OA
ENDROOT
BRANCH  15  18
ATOM     18  N   UNL     1       0.535  11.355  19.514  0.00  0.00    +0.000 N 
ATOM     19  C   UNL     1      -0.840  11.636  19.090  0.00  0.00    +0.000 C 
ATOM     20  C   UNL     1      -0.879  12.600  17.911  0.00  0.00    +0.000 C 
ATOM     21  C   UNL     1       0.020  13.835  18.109  0.00  0.00    +0.000 C 
ATOM     22  C   UNL     1       1.439  13.390  18.479  0.00  0.00    +0.000 C 
ATOM     23  C   UNL     1       1.466  12.469  19.689  0.00  0.00    +0.000 C 
BRANCH  21  24
ATOM     24  C   UNL     1      -0.546  14.875  19.072  0.00  0.00    +0.000 A 
ATOM     25  C   UNL     1      -0.272  16.235  18.882  0.00  0.00    +0.000 A 
ATOM     26  C   UNL     1      -0.729  17.202  19.771  0.00  0.00    +0.000 A 
ATOM     27  C   UNL     1      -1.469  16.828  20.885  0.00  0.00    +0.000 A 
ATOM     28  C   UNL     1      -1.763  15.488  21.099  0.00  0.00    +0.000 A 
ATOM     29  C   UNL     1      -1.309  14.519  20.201  0.00  0.00    +0.000 A 
ENDBRANCH  21  24
ENDBRANCH  15  18
BRANCH   2  30
ATOM     30  O   UNL     1       5.699   3.550  16.226  0.00  0.00    +0.000 OA
ATOM     31  H   UNL     1       6.347   2.891  16.524  0.00  0.00    +0.000 HD
ENDBRANCH   2  30
BRANCH   5  32
ATOM     32  O   UNL     1       3.380   8.131  16.620  0.00  0.00    +0.000 OA
ATOM     33  H   UNL     1       4.282   7.982  16.305  0.00  0.00    +0.000 HD
ENDBRANCH   5  32
BRANCH   8  34
ATOM     34  O   UNL     1       2.226   5.366  21.265  0.00  0.00    +0.000 OA
ATOM     35  H   UNL     1       2.732   5.770  22.008  0.00  0.00    +0.000 HD
ENDBRANCH   8  34
BRANCH  11  36
ATOM     36  O   UNL     1       3.140   2.886  17.354  0.00  0.00    +0.000 OA
ATOM     37  H   UNL     1       2.724   2.120  17.784  0.00  0.00    +0.000 HD
ENDBRANCH  11  36
TORSDOF 6
ENDMDL
MODEL 8
REMARK VINA RESULT:      -7.5      3.262     10.331
REMARK  Name = 
REMARK  7 active torsions:
REMARK  status: ('A' for Active; 'I' for Inactive)
REMARK    1  A    between atoms: C_1  and  C_2
REMARK    2  A    between atoms: C_2  and  O_3
REMARK    3  A    between atoms: C_6  and  O_7
REMARK    4  A    between atoms: C_10  and  O_11
REMARK    5  A    between atoms: C_14  and  O_15
REMARK    6  A    between atoms: C_19  and  N_20
REMARK    7  A    between atoms: C_23  and  C_24
REMARK                            x       y       z     vdW  Elec       q    Type
REMARK                         _______ _______ _______ _____ _____    ______ ____
ROOT
ATOM      1  C   UNL     1       1.568   3.435  18.382  0.00  0.00    +0.000 C 
ATOM      2  C   UNL     1       2.782   3.790  19.255  0.00  0.00    +0.000 C 
ATOM      3  C   UNL     1       2.396   4.836  20.306  0.00  0.00    +0.000 C 
ATOM      4  C   UNL     1       2.271   6.241  19.762  0.00  0.00    +0.000 A 
ATOM      5  C   UNL     1       1.602   7.231  20.506  0.00  0.00    +0.000 A 
ATOM      6  C   UNL     1       1.467   8.540  20.010  0.00  0.00    +0.000 A 
ATOM      7  C   UNL     1       1.999   8.854  18.758  0.00  0.00    +0.000 A 
ATOM      8  C   UNL     1       2.677   7.882  18.016  0.00  0.00    +0.000 A 
ATOM      9  C   UNL     1       2.841   6.585  18.515  0.00  0.00    +0.000 A 
ATOM     10  C   UNL     1       3.582   5.578  17.656  0.00  0.00    +0.000 C 
ATOM     11  C   UNL     1       3.971   4.314  18.419  0.00  0.00    +0.000 C 
ATOM     12  C   UNL     1       1.853  10.202  18.183  0.00  0.00    +0.000 C 
ATOM     13  O   UNL     1       2.311  10.479  17.093  0.00  0.00    +0.000 OA
ATOM     14  C   UNL     1       1.130  11.204  18.958  0.00  0.00    +0.000 C 
ATOM     15  C   UNL     1       0.628  10.949  20.168  0.00  0.00    +0.000 C 
ATOM     16  C   UNL     1       0.762   9.587  20.794  0.00  0.00    +0.000 C 
ATOM     17  O   UNL     1       0.279   9.370  21.900  0.00  0.00    +0.000 OA
ENDROOT
BRANCH  15  18
ATOM     18  N   UNL     1      -0.079  11.911  20.870  0.00  0.00    +0.000 N 
ATOM     19  C   UNL     1      -1.545  11.897  20.885  0.00  0.00    +0.000 C 
ATOM     20  C   UNL     1      -2.125  13.257  20.516  0.00  0.00    +0.000 C 
ATOM     21  C   UNL     1      -1.464  14.423  21.278  0.00  0.00    +0.000 C 
ATOM     22  C   UNL     1       0.058  14.351  21.117  0.00  0.00    +0.000 C 
ATOM     23  C   UNL     1       0.627  13.005  21.538  0.00  0.00    +0.000 C 
BRANCH  21  24
ATOM     24  C   UNL     1      -1.903  14.548  22.734  0.00  0.00    +0.000 A 
ATOM     25  C   UNL     1      -3.186  14.143  23.121  0.00  0.00    +0.000 A 
ATOM     26  C   UNL     1      -3.634  14.293  24.429  0.00  0.00    +0.000 A 
ATOM     27  C   UNL     1      -2.807  14.865  25.386  0.00  0.00    +0.000 A 
ATOM     28  C   UNL     1      -1.526  15.271  25.036  0.00  0.00    +0.000 A 
ATOM     29  C   UNL     1      -1.075  15.113  23.723  0.00  0.00    +0.000 A 
ENDBRANCH  21  24
ENDBRANCH  15  18
BRANCH   2  30
ATOM     30  O   UNL     1       3.183   2.590  19.933  0.00  0.00    +0.000 OA
ATOM     31  H   UNL     1       4.091   2.704  20.256  0.00  0.00    +0.000 HD
ENDBRANCH   2  30
BRANCH   5  32
ATOM     32  O   UNL     1       1.053   6.925  21.720  0.00  0.00    +0.000 OA
ATOM     33  H   UNL     1       0.093   6.810  21.693  0.00  0.00    +0.000 HD
ENDBRANCH   5  32
BRANCH   8  34
ATOM     34  O   UNL     1       3.202   8.137  16.774  0.00  0.00    +0.000 OA
ATOM     35  H   UNL     1       4.132   7.814  16.741  0.00  0.00    +0.000 HD
ENDBRANCH   8  34
BRANCH  11  36
ATOM     36  O   UNL     1       5.119   4.598  19.239  0.00  0.00    +0.000 OA
ATOM     37  H   UNL     1       4.976   5.443  19.697  0.00  0.00    +0.000 HD
ENDBRANCH  11  36
TORSDOF 6
ENDMDL
MODEL 9
REMARK VINA RESULT:      -7.5      2.340      4.210
REMARK  Name = 
REMARK  7 active torsions:
REMARK  status: ('A' for Active; 'I' for Inactive)
REMARK    1  A    between atoms: C_1  and  C_2
REMARK    2  A    between atoms: C_2  and  O_3
REMARK    3  A    between atoms: C_6  and  O_7
REMARK    4  A    between atoms: C_10  and  O_11
REMARK    5  A    between atoms: C_14  and  O_15
REMARK    6  A    between atoms: C_19  and  N_20
REMARK    7  A    between atoms: C_23  and  C_24
REMARK                            x       y       z     vdW  Elec       q    Type
REMARK                         _______ _______ _______ _____ _____    ______ ____
ROOT
ATOM      1  C   UNL     1      -5.430  12.582  20.796  0.00  0.00    +0.000 C 
ATOM      2  C   UNL     1      -4.371  13.654  20.495  0.00  0.00    +0.000 C 
ATOM      3  C   UNL     1      -3.258  13.072  19.617  0.00  0.00    +0.000 C 
ATOM      4  C   UNL     1      -2.278  12.194  20.363  0.00  0.00    +0.000 A 
ATOM      5  C   UNL     1      -1.424  11.328  19.656  0.00  0.00    +0.000 A 
ATOM      6  C   UNL     1      -0.515  10.496  20.334  0.00  0.00    +0.000 A 
ATOM      7  C   UNL     1      -0.469  10.530  21.729  0.00  0.00    +0.000 A 
ATOM      8  C   UNL     1      -1.303  11.397  22.441  0.00  0.00    +0.000 A 
ATOM      9  C   UNL     1      -2.190  12.248  21.773  0.00  0.00    +0.000 A 
ATOM     10  C   UNL     1      -3.072  13.159  22.607  0.00  0.00    +0.000 C 
ATOM     11  C   UNL     1      -3.755  14.246  21.782  0.00  0.00    +0.000 C 
ATOM     12  C   UNL     1       0.442   9.654  22.484  0.00  0.00    +0.000 C 
ATOM     13  O   UNL     1       0.484   9.677  23.698  0.00  0.00    +0.000 OA
ATOM     14  C   UNL     1       1.297   8.742  21.732  0.00  0.00    +0.000 C 
ATOM     15  C   UNL     1       1.300   8.697  20.399  0.00  0.00    +0.000 C 
ATOM     16  C   UNL     1       0.388   9.581  19.590  0.00  0.00    +0.000 C 
ATOM     17  O   UNL     1       0.394   9.512  18.366  0.00  0.00    +0.000 OA
ENDROOT
BRANCH  15  18
ATOM     18  N   UNL     1       2.101   7.801  19.710  0.00  0.00    +0.000 N 
ATOM     19  C   UNL     1       2.591   8.120  18.365  0.00  0.00    +0.000 C 
ATOM     20  C   UNL     1       2.305   6.992  17.381  0.00  0.00    +0.000 C 
ATOM     21  C   UNL     1       2.701   5.604  17.921  0.00  0.00    +0.000 C 
ATOM     22  C   UNL     1       2.064   5.381  19.296  0.00  0.00    +0.000 C 
ATOM     23  C   UNL     1       2.400   6.489  20.283  0.00  0.00    +0.000 C 
BRANCH  21  24
ATOM     24  C   UNL     1       4.202   5.332  17.910  0.00  0.00    +0.000 A 
ATOM     25  C   UNL     1       4.843   4.956  16.722  0.00  0.00    +0.000 A 
ATOM     26  C   UNL     1       6.199   4.652  16.690  0.00  0.00    +0.000 A 
ATOM     27  C   UNL     1       6.952   4.706  17.856  0.00  0.00    +0.000 A 
ATOM     28  C   UNL     1       6.348   5.082  19.049  0.00  0.00    +0.000 A 
ATOM     29  C   UNL     1       4.987   5.395  19.078  0.00  0.00    +0.000 A 
ENDBRANCH  21  24
ENDBRANCH  15  18
BRANCH   2  30
ATOM     30  O   UNL     1      -5.024  14.703  19.765  0.00  0.00    +0.000 OA
ATOM     31  H   UNL     1      -4.633  14.755  18.879  0.00  0.00    +0.000 HD
ENDBRANCH   2  30
BRANCH   5  32
ATOM     32  O   UNL     1      -1.483  11.267  18.291  0.00  0.00    +0.000 OA
ATOM     33  H   UNL     1      -0.726  11.679  17.852  0.00  0.00    +0.000 HD
ENDBRANCH   5  32
BRANCH   8  34
ATOM     34  O   UNL     1      -1.307  11.454  23.813  0.00  0.00    +0.000 OA
ATOM     35  H   UNL     1      -0.401  11.264  24.148  0.00  0.00    +0.000 HD
ENDBRANCH   8  34
BRANCH  11  36
ATOM     36  O   UNL     1      -2.800  15.283  21.491  0.00  0.00    +0.000 OA
ATOM     37  H   UNL     1      -2.976  16.042  22.073  0.00  0.00    +0.000 HD
ENDBRANCH  11  36
TORSDOF 6
ENDMDL
