MODEL 1
REMARK VINA RESULT:      -8.2      0.000      0.000
REMARK  Name = 
REMARK  6 active torsions:
REMARK  status: ('A' for Active; 'I' for Inactive)
REMARK    1  A    between atoms: C_1  and  C_2
REMARK    2  A    between atoms: C_7  and  N_8
REMARK    3  A    between atoms: C_9  and  C_10
REMARK    4  A    between atoms: N_12  and  C_13
REMARK    5  A    between atoms: C_20  and  C_21
REMARK    6  A    between atoms: C_20  and  C_22
REMARK                            x       y       z     vdW  Elec       q    Type
REMARK                         _______ _______ _______ _____ _____    ______ ____
ROOT
ATOM      1  C   UNL     1       2.279   6.296  20.247  0.00  0.00    +0.000 C 
ATOM      2  C   UNL     1       2.974   5.953  19.127  0.00  0.00    +0.000 C 
ATOM      3  N   UNL     1       3.651   6.814  18.226  0.00  0.00    +0.000 N 
ATOM      4  C   UNL     1       3.098   8.046  17.671  0.00  0.00    +0.000 C 
ATOM      5  C   UNL     1       4.308   6.039  17.233  0.00  0.00    +0.000 A 
ATOM      6  C   UNL     1       5.207   6.474  16.281  0.00  0.00    +0.000 A 
ATOM      7  C   UNL     1       5.739   5.560  15.368  0.00  0.00    +0.000 A 
ATOM      8  C   UNL     1       5.354   4.215  15.423  0.00  0.00    +0.000 A 
ATOM      9  C   UNL     1       4.468   3.766  16.416  0.00  0.00    +0.000 A 
ATOM     10  C   UNL     1       3.957   4.685  17.322  0.00  0.00    +0.000 A 
ATOM     11  C   UNL     1       2.998   4.490  18.501  0.00  0.00    +0.000 C 
ATOM     12  C   UNL     1       1.571   4.230  17.961  0.00  0.00    +0.000 C 
ATOM     13  C   UNL     1       3.443   3.274  19.319  0.00  0.00    +0.000 C 
ENDROOT
BRANCH   1  15
ATOM     14  N   UNL     1       1.114   8.344  21.248  0.00  0.00    +0.000 NA
ATOM     15  C   UNL     1       1.632   7.649  20.274  0.00  0.00    +0.000 C 
BRANCH  14  22
ATOM     16  C   UNL     1      -0.540  10.003  23.195  0.00  0.00    +0.000 C 
ATOM     17  C   UNL     1      -0.393  10.310  21.737  0.00  0.00    +0.000 A 
ATOM     18  C   UNL     1      -1.099  11.439  21.249  0.00  0.00    +0.000 A 
ATOM     19  C   UNL     1      -1.068  11.800  19.904  0.00  0.00    +0.000 A 
ATOM     20  C   UNL     1      -0.348  11.015  19.018  0.00  0.00    +0.000 A 
ATOM     21  C   UNL     1       0.336   9.890  19.483  0.00  0.00    +0.000 A 
ATOM     22  C   UNL     1       0.370   9.517  20.846  0.00  0.00    +0.000 A 
ENDBRANCH  14  22
ENDBRANCH   1  15
TORSDOF 2
ENDMDL
MODEL 2
REMARK VINA RESULT:      -8.0      1.105      7.939
REMARK  Name = 
REMARK  6 active torsions:
REMARK  status: ('A' for Active; 'I' for Inactive)
REMARK    1  A    between atoms: C_1  and  C_2
REMARK    2  A    between atoms: C_7  and  N_8
REMARK    3  A    between atoms: C_9  and  C_10
REMARK    4  A    between atoms: N_12  and  C_13
REMARK    5  A    between atoms: C_20  and  C_21
REMARK    6  A    between atoms: C_20  and  C_22
REMARK                            x       y       z     vdW  Elec       q    Type
REMARK                         _______ _______ _______ _____ _____    ______ ____
ROOT
ATOM      1  C   UNL     1       1.875   9.501  18.132  0.00  0.00    +0.000 C 
ATOM      2  C   UNL     1       1.088   9.891  19.173  0.00  0.00    +0.000 C 
ATOM      3  N   UNL     1       1.041   9.345  20.480  0.00  0.00    +0.000 N 
ATOM      4  C   UNL     1       0.975   7.919  20.789  0.00  0.00    +0.000 C 
ATOM      5  C   UNL     1       0.135  10.097  21.275  0.00  0.00    +0.000 A 
ATOM      6  C   UNL     1      -0.071  10.003  22.638  0.00  0.00    +0.000 A 
ATOM      7  C   UNL     1      -1.027  10.820  23.246  0.00  0.00    +0.000 A 
ATOM      8  C   UNL     1      -1.769  11.722  22.473  0.00  0.00    +0.000 A 
ATOM      9  C   UNL     1      -1.531  11.843  21.095  0.00  0.00    +0.000 A 
ATOM     10  C   UNL     1      -0.572  11.032  20.506  0.00  0.00    +0.000 A 
ATOM     11  C   UNL     1      -0.094  10.951  19.053  0.00  0.00    +0.000 C 
ATOM     12  C   UNL     1      -1.189  10.277  18.192  0.00  0.00    +0.000 C 
ATOM     13  C   UNL     1       0.147  12.366  18.520  0.00  0.00    +0.000 C 
ENDROOT
BRANCH   1  15
ATOM     14  N   UNL     1       3.434   7.497  17.802  0.00  0.00    +0.000 NA
ATOM     15  C   UNL     1       2.293   8.061  18.082  0.00  0.00    +0.000 C 
BRANCH  14  22
ATOM     16  C   UNL     1       5.649   5.932  16.415  0.00  0.00    +0.000 C 
ATOM     17  C   UNL     1       4.418   5.314  17.001  0.00  0.00    +0.000 A 
ATOM     18  C   UNL     1       4.284   3.908  16.868  0.00  0.00    +0.000 A 
ATOM     19  C   UNL     1       3.165   3.228  17.341  0.00  0.00    +0.000 A 
ATOM     20  C   UNL     1       2.143   3.953  17.932  0.00  0.00    +0.000 A 
ATOM     21  C   UNL     1       2.254   5.340  18.052  0.00  0.00    +0.000 A 
ATOM     22  C   UNL     1       3.393   6.062  17.629  0.00  0.00    +0.000 A 
ENDBRANCH  14  22
ENDBRANCH   1  15
TORSDOF 2
ENDMDL
MODEL 3
REMARK VINA RESULT:      -7.7      0.662      1.619
REMARK  Name = 
REMARK  6 active torsions:
REMARK  status: ('A' for Active; 'I' for Inactive)
REMARK    1  A    between atoms: C_1  and  C_2
REMARK    2  A    between atoms: C_7  and  N_8
REMARK    3  A    between atoms: C_9  and  C_10
REMARK    4  A    between atoms: N_12  and  C_13
REMARK    5  A    between atoms: C_20  and  C_21
REMARK    6  A    between atoms: C_20  and  C_22
REMARK                            x       y       z     vdW  Elec       q    Type
REMARK                         _______ _______ _______ _____ _____    ______ ____
ROOT
ATOM      1  C   UNL     1       2.040   5.841  20.543  0.00  0.00    +0.000 C 
ATOM      2  C   UNL     1       2.741   5.653  19.390  0.00  0.00    +0.000 C 
ATOM      3  N   UNL     1       3.378   6.635  18.589  0.00  0.00    +0.000 N 
ATOM      4  C   UNL     1       2.772   7.897  18.174  0.00  0.00    +0.000 C 
ATOM      5  C   UNL     1       4.059   6.001  17.516  0.00  0.00    +0.000 A 
ATOM      6  C   UNL     1       4.935   6.575  16.616  0.00  0.00    +0.000 A 
ATOM      7  C   UNL     1       5.498   5.789  15.607  0.00  0.00    +0.000 A 
ATOM      8  C   UNL     1       5.168   4.432  15.515  0.00  0.00    +0.000 A 
ATOM      9  C   UNL     1       4.307   3.841  16.453  0.00  0.00    +0.000 A 
ATOM     10  C   UNL     1       3.764   4.632  17.455  0.00  0.00    +0.000 A 
ATOM     11  C   UNL     1       2.821   4.270  18.607  0.00  0.00    +0.000 C 
ATOM     12  C   UNL     1       1.403   4.012  18.044  0.00  0.00    +0.000 C 
ATOM     13  C   UNL     1       3.319   2.990  19.286  0.00  0.00    +0.000 C 
ENDROOT
BRANCH   1  15
ATOM     14  N   UNL     1       1.765   8.320  21.125  0.00  0.00    +0.000 NA
ATOM     15  C   UNL     1       1.339   7.156  20.720  0.00  0.00    +0.000 C 
BRANCH  14  22
ATOM     16  C   UNL     1       0.811  10.318  19.035  0.00  0.00    +0.000 C 
ATOM     17  C   UNL     1       0.269  10.229  20.426  0.00  0.00    +0.000 A 
ATOM     18  C   UNL     1      -0.740  11.163  20.780  0.00  0.00    +0.000 A 
ATOM     19  C   UNL     1      -1.292  11.199  22.057  0.00  0.00    +0.000 A 
ATOM     20  C   UNL     1      -0.823  10.314  23.014  0.00  0.00    +0.000 A 
ATOM     21  C   UNL     1       0.183   9.403  22.684  0.00  0.00    +0.000 A 
ATOM     22  C   UNL     1       0.736   9.301  21.388  0.00  0.00    +0.000 A 
ENDBRANCH  14  22
ENDBRANCH   1  15
TORSDOF 2
ENDMDL
MODEL 4
REMARK VINA RESULT:      -7.5      1.494      7.986
REMARK  Name = 
REMARK  6 active torsions:
REMARK  status: ('A' for Active; 'I' for Inactive)
REMARK    1  A    between atoms: C_1  and  C_2
REMARK    2  A    between atoms: C_7  and  N_8
REMARK    3  A    between atoms: C_9  and  C_10
REMARK    4  A    between atoms: N_12  and  C_13
REMARK    5  A    between atoms: C_20  and  C_21
REMARK    6  A    between atoms: C_20  and  C_22
REMARK                            x       y       z     vdW  Elec       q    Type
REMARK                         _______ _______ _______ _____ _____    ______ ____
ROOT
ATOM      1  C   UNL     1       1.739   8.939  19.140  0.00  0.00    +0.000 C 
ATOM      2  C   UNL     1       0.870   9.689  19.874  0.00  0.00    +0.000 C 
ATOM      3  N   UNL     1       0.408   9.443  21.192  0.00  0.00    +0.000 N 
ATOM      4  C   UNL     1      -0.077   8.155  21.681  0.00  0.00    +0.000 C 
ATOM      5  C   UNL     1      -0.430  10.512  21.607  0.00  0.00    +0.000 A 
ATOM      6  C   UNL     1      -0.941  10.743  22.869  0.00  0.00    +0.000 A 
ATOM      7  C   UNL     1      -1.770  11.847  23.084  0.00  0.00    +0.000 A 
ATOM      8  C   UNL     1      -2.078  12.705  22.022  0.00  0.00    +0.000 A 
ATOM      9  C   UNL     1      -1.528  12.491  20.748  0.00  0.00    +0.000 A 
ATOM     10  C   UNL     1      -0.698  11.396  20.553  0.00  0.00    +0.000 A 
ATOM     11  C   UNL     1       0.044  10.922  19.300  0.00  0.00    +0.000 C 
ATOM     12  C   UNL     1      -0.973  10.328  18.297  0.00  0.00    +0.000 C 
ATOM     13  C   UNL     1       0.740  12.118  18.642  0.00  0.00    +0.000 C 
ENDROOT
BRANCH   1  15
ATOM     14  N   UNL     1       2.769   6.612  19.415  0.00  0.00    +0.000 NA
ATOM     15  C   UNL     1       1.783   7.465  19.413  0.00  0.00    +0.000 C 
BRANCH  14  22
ATOM     16  C   UNL     1       3.601   4.538  17.345  0.00  0.00    +0.000 C 
ATOM     17  C   UNL     1       2.774   4.238  18.556  0.00  0.00    +0.000 A 
ATOM     18  C   UNL     1       2.341   2.896  18.715  0.00  0.00    +0.000 A 
ATOM     19  C   UNL     1       1.536   2.507  19.783  0.00  0.00    +0.000 A 
ATOM     20  C   UNL     1       1.127   3.465  20.696  0.00  0.00    +0.000 A 
ATOM     21  C   UNL     1       1.531   4.793  20.539  0.00  0.00    +0.000 A 
ATOM     22  C   UNL     1       2.386   5.220  19.498  0.00  0.00    +0.000 A 
ENDBRANCH  14  22
ENDBRANCH   1  15
TORSDOF 2
ENDMDL
MODEL 5
REMARK VINA RESULT:      -7.5      3.272      8.244
REMARK  Name = 
REMARK  6 active torsions:
REMARK  status: ('A' for Active; 'I' for Inactive)
REMARK    1  A    between atoms: C_1  and  C_2
REMARK    2  A    between atoms: C_7  and  N_8
REMARK    3  A    between atoms: C_9  and  C_10
REMARK    4  A    between atoms: N_12  and  C_13
REMARK    5  A    between atoms: C_20  and  C_21
REMARK    6  A    between atoms: C_20  and  C_22
REMARK                            x       y       z     vdW  Elec       q    Type
REMARK                         _______ _______ _______ _____ _____    ______ ____
ROOT
ATOM      1  C   UNL     1       4.581   6.151  16.988  0.00  0.00    +0.000 C 
ATOM      2  C   UNL     1       4.006   5.421  17.984  0.00  0.00    +0.000 C 
ATOM      3  N   UNL     1       4.335   4.105  18.399  0.00  0.00    +0.000 N 
ATOM      4  C   UNL     1       4.540   2.972  17.501  0.00  0.00    +0.000 C 
ATOM      5  C   UNL     1       3.539   3.750  19.520  0.00  0.00    +0.000 A 
ATOM      6  C   UNL     1       3.664   2.634  20.325  0.00  0.00    +0.000 A 
ATOM      7  C   UNL     1       2.768   2.443  21.379  0.00  0.00    +0.000 A 
ATOM      8  C   UNL     1       1.752   3.378  21.610  0.00  0.00    +0.000 A 
ATOM      9  C   UNL     1       1.649   4.530  20.815  0.00  0.00    +0.000 A 
ATOM     10  C   UNL     1       2.552   4.711  19.778  0.00  0.00    +0.000 A 
ATOM     11  C   UNL     1       2.692   5.857  18.770  0.00  0.00    +0.000 C 
ATOM     12  C   UNL     1       1.534   5.780  17.746  0.00  0.00    +0.000 C 
ATOM     13  C   UNL     1       2.605   7.195  19.509  0.00  0.00    +0.000 C 
ENDROOT
BRANCH   1  15
ATOM     14  N   UNL     1       6.275   5.573  15.158  0.00  0.00    +0.000 NA
ATOM     15  C   UNL     1       5.172   5.401  15.832  0.00  0.00    +0.000 C 
BRANCH  14  22
ATOM     16  C   UNL     1       8.548   5.935  13.163  0.00  0.00    +0.000 C 
ATOM     17  C   UNL     1       7.451   4.927  13.020  0.00  0.00    +0.000 A 
ATOM     18  C   UNL     1       7.480   4.114  11.857  0.00  0.00    +0.000 A 
ATOM     19  C   UNL     1       6.492   3.167  11.598  0.00  0.00    +0.000 A 
ATOM     20  C   UNL     1       5.439   3.038  12.489  0.00  0.00    +0.000 A 
ATOM     21  C   UNL     1       5.389   3.846  13.628  0.00  0.00    +0.000 A 
ATOM     22  C   UNL     1       6.395   4.785  13.952  0.00  0.00    +0.000 A 
ENDBRANCH  14  22
ENDBRANCH   1  15
TORSDOF 2
ENDMDL
MODEL 6
REMARK VINA RESULT:      -7.4      1.384      8.147
REMARK  Name = 
REMARK  6 active torsions:
REMARK  status: ('A' for Active; 'I' for Inactive)
REMARK    1  A    between atoms: C_1  and  C_2
REMARK    2  A    between atoms: C_7  and  N_8
REMARK    3  A    between atoms: C_9  and  C_10
REMARK    4  A    between atoms: N_12  and  C_13
REMARK    5  A    between atoms: C_20  and  C_21
REMARK    6  A    between atoms: C_20  and  C_22
REMARK                            x       y       z     vdW  Elec       q    Type
REMARK                         _______ _______ _______ _____ _____    ______ ____
ROOT
ATOM      1  C   UNL     1       1.319   9.848  18.770  0.00  0.00    +0.000 C 
ATOM      2  C   UNL     1       0.402  10.409  19.605  0.00  0.00    +0.000 C 
ATOM      3  N   UNL     1       0.248  10.196  20.998  0.00  0.00    +0.000 N 
ATOM      4  C   UNL     1       0.239   8.888  21.648  0.00  0.00    +0.000 C 
ATOM      5  C   UNL     1      -0.784  11.036  21.495  0.00  0.00    +0.000 A 
ATOM      6  C   UNL     1      -1.130  11.259  22.814  0.00  0.00    +0.000 A 
ATOM      7  C   UNL     1      -2.195  12.112  23.110  0.00  0.00    +0.000 A 
ATOM      8  C   UNL     1      -2.904  12.730  22.072  0.00  0.00    +0.000 A 
ATOM      9  C   UNL     1      -2.528  12.533  20.735  0.00  0.00    +0.000 A 
ATOM     10  C   UNL     1      -1.461  11.690  20.457  0.00  0.00    +0.000 A 
ATOM     11  C   UNL     1      -0.825  11.300  19.119  0.00  0.00    +0.000 C 
ATOM     12  C   UNL     1      -1.776  10.343  18.361  0.00  0.00    +0.000 C 
ATOM     13  C   UNL     1      -0.617  12.558  18.271  0.00  0.00    +0.000 C 
ENDROOT
BRANCH   1  15
ATOM     14  N   UNL     1       2.682   7.694  18.526  0.00  0.00    +0.000 NA
ATOM     15  C   UNL     1       1.830   8.481  19.121  0.00  0.00    +0.000 C 
BRANCH  14  22
ATOM     16  C   UNL     1       4.206   5.457  17.130  0.00  0.00    +0.000 C 
ATOM     17  C   UNL     1       3.462   5.296  18.419  0.00  0.00    +0.000 A 
ATOM     18  C   UNL     1       3.461   4.000  18.997  0.00  0.00    +0.000 A 
ATOM     19  C   UNL     1       2.772   3.721  20.175  0.00  0.00    +0.000 A 
ATOM     20  C   UNL     1       2.047   4.734  20.781  0.00  0.00    +0.000 A 
ATOM     21  C   UNL     1       2.024   6.009  20.211  0.00  0.00    +0.000 A 
ATOM     22  C   UNL     1       2.748   6.346  19.044  0.00  0.00    +0.000 A 
ENDBRANCH  14  22
ENDBRANCH   1  15
TORSDOF 2
ENDMDL
MODEL 7
REMARK VINA RESULT:      -7.4      1.977      3.710
REMARK  Name = 
REMARK  6 active torsions:
REMARK  status: ('A' for Active; 'I' for Inactive)
REMARK    1  A    between atoms: C_1  and  C_2
REMARK    2  A    between atoms: C_7  and  N_8
REMARK    3  A    between atoms: C_9  and  C_10
REMARK    4  A    between atoms: N_12  and  C_13
REMARK    5  A    between atoms: C_20  and  C_21
REMARK    6  A    between atoms: C_20  and  C_22
REMARK                            x       y       z     vdW  Elec       q    Type
REMARK                         _______ _______ _______ _____ _____    ______ ____
ROOT
ATOM      1  C   UNL     1       2.925   7.219  17.587  0.00  0.00    +0.000 C 
ATOM      2  C   UNL     1       2.940   6.151  18.432  0.00  0.00    +0.000 C 
ATOM      3  N   UNL     1       2.125   5.931  19.571  0.00  0.00    +0.000 N 
ATOM      4  C   UNL     1       1.854   6.921  20.609  0.00  0.00    +0.000 C 
ATOM      5  C   UNL     1       2.419   4.656  20.124  0.00  0.00    +0.000 A 
ATOM      6  C   UNL     1       1.736   3.993  21.126  0.00  0.00    +0.000 A 
ATOM      7  C   UNL     1       2.190   2.744  21.556  0.00  0.00    +0.000 A 
ATOM      8  C   UNL     1       3.330   2.177  20.973  0.00  0.00    +0.000 A 
ATOM      9  C   UNL     1       4.000   2.834  19.929  0.00  0.00    +0.000 A 
ATOM     10  C   UNL     1       3.532   4.070  19.507  0.00  0.00    +0.000 A 
ATOM     11  C   UNL     1       4.040   5.001  18.401  0.00  0.00    +0.000 C 
ATOM     12  C   UNL     1       5.364   5.660  18.857  0.00  0.00    +0.000 C 
ATOM     13  C   UNL     1       4.311   4.182  17.135  0.00  0.00    +0.000 C 
ENDROOT
BRANCH   1  15
ATOM     14  N   UNL     1       1.501   9.331  17.847  0.00  0.00    +0.000 NA
ATOM     15  C   UNL     1       2.493   8.541  18.149  0.00  0.00    +0.000 C 
BRANCH  14  22
ATOM     16  C   UNL     1      -0.290  10.129  20.177  0.00  0.00    +0.000 C 
ATOM     17  C   UNL     1       0.729  11.027  19.549  0.00  0.00    +0.000 A 
ATOM     18  C   UNL     1       0.832  12.341  20.076  0.00  0.00    +0.000 A 
ATOM     19  C   UNL     1       1.718  13.276  19.548  0.00  0.00    +0.000 A 
ATOM     20  C   UNL     1       2.499  12.919  18.460  0.00  0.00    +0.000 A 
ATOM     21  C   UNL     1       2.392  11.635  17.921  0.00  0.00    +0.000 A 
ATOM     22  C   UNL     1       1.542  10.641  18.457  0.00  0.00    +0.000 A 
ENDBRANCH  14  22
ENDBRANCH   1  15
TORSDOF 2
ENDMDL
MODEL 8
REMARK VINA RESULT:      -7.4      1.693      7.686
REMARK  Name = 
REMARK  6 active torsions:
REMARK  status: ('A' for Active; 'I' for Inactive)
REMARK    1  A    between atoms: C_1  and  C_2
REMARK    2  A    between atoms: C_7  and  N_8
REMARK    3  A    between atoms: C_9  and  C_10
REMARK    4  A    between atoms: N_12  and  C_13
REMARK    5  A    between atoms: C_20  and  C_21
REMARK    6  A    between atoms: C_20  and  C_22
REMARK                            x       y       z     vdW  Elec       q    Type
REMARK                         _______ _______ _______ _____ _____    ______ ____
ROOT
ATOM      1  C   UNL     1       2.077   8.693  18.719  0.00  0.00    +0.000 C 
ATOM      2  C   UNL     1       1.249   9.341  19.585  0.00  0.00    +0.000 C 
ATOM      3  N   UNL     1       0.831   8.915  20.872  0.00  0.00    +0.000 N 
ATOM      4  C   UNL     1       0.341   7.577  21.192  0.00  0.00    +0.000 C 
ATOM      5  C   UNL     1       0.027   9.925  21.466  0.00  0.00    +0.000 A 
ATOM      6  C   UNL     1      -0.433   9.980  22.767  0.00  0.00    +0.000 A 
ATOM      7  C   UNL     1      -1.234  11.052  23.168  0.00  0.00    +0.000 A 
ATOM      8  C   UNL     1      -1.566  12.056  22.251  0.00  0.00    +0.000 A 
ATOM      9  C   UNL     1      -1.066  12.019  20.940  0.00  0.00    +0.000 A 
ATOM     10  C   UNL     1      -0.264  10.953  20.559  0.00  0.00    +0.000 A 
ATOM     11  C   UNL     1       0.425  10.654  19.224  0.00  0.00    +0.000 C 
ATOM     12  C   UNL     1      -0.639  10.221  18.186  0.00  0.00    +0.000 C 
ATOM     13  C   UNL     1       1.117  11.922  18.716  0.00  0.00    +0.000 C 
ENDROOT
BRANCH   1  15
ATOM     14  N   UNL     1       3.015   6.360  19.200  0.00  0.00    +0.000 NA
ATOM     15  C   UNL     1       2.106   7.195  18.779  0.00  0.00    +0.000 C 
BRANCH  14  22
ATOM     16  C   UNL     1       2.180   4.304  21.286  0.00  0.00    +0.000 C 
ATOM     17  C   UNL     1       2.374   4.002  19.833  0.00  0.00    +0.000 A 
ATOM     18  C   UNL     1       2.173   2.656  19.429  0.00  0.00    +0.000 A 
ATOM     19  C   UNL     1       2.361   2.250  18.111  0.00  0.00    +0.000 A 
ATOM     20  C   UNL     1       2.782   3.182  17.177  0.00  0.00    +0.000 A 
ATOM     21  C   UNL     1       3.002   4.505  17.566  0.00  0.00    +0.000 A 
ATOM     22  C   UNL     1       2.777   4.970  18.882  0.00  0.00    +0.000 A 
ENDBRANCH  14  22
ENDBRANCH   1  15
TORSDOF 2
ENDMDL
MODEL 9
REMARK VINA RESULT:      -7.1      1.427      3.218
REMARK  Name = 
REMARK  6 active torsions:
REMARK  status: ('A' for Active; 'I' for Inactive)
REMARK    1  A    between atoms: C_1  and  C_2
REMARK    2  A    between atoms: C_7  and  N_8
REMARK    3  A    between atoms: C_9  and  C_10
REMARK    4  A    between atoms: N_12  and  C_13
REMARK    5  A    between atoms: C_20  and  C_21
REMARK    6  A    between atoms: C_20  and  C_22
REMARK                            x       y       z     vdW  Elec       q    Type
REMARK                         _______ _______ _______ _____ _____    ______ ____
ROOT
ATOM      1  C   UNL     1       2.621   7.551  18.226  0.00  0.00    +0.000 C 
ATOM      2  C   UNL     1       2.742   6.196  18.285  0.00  0.00    +0.000 C 
ATOM      3  N   UNL     1       1.794   5.257  18.764  0.00  0.00    +0.000 N 
ATOM      4  C   UNL     1       1.055   5.381  20.017  0.00  0.00    +0.000 C 
ATOM      5  C   UNL     1       2.293   3.940  18.576  0.00  0.00    +0.000 A 
ATOM      6  C   UNL     1       1.617   2.749  18.748  0.00  0.00    +0.000 A 
ATOM      7  C   UNL     1       2.286   1.541  18.533  0.00  0.00    +0.000 A 
ATOM      8  C   UNL     1       3.633   1.549  18.149  0.00  0.00    +0.000 A 
ATOM      9  C   UNL     1       4.308   2.761  17.937  0.00  0.00    +0.000 A 
ATOM     10  C   UNL     1       3.627   3.952  18.146  0.00  0.00    +0.000 A 
ATOM     11  C   UNL     1       4.091   5.403  17.985  0.00  0.00    +0.000 C 
ATOM     12  C   UNL     1       5.063   5.759  19.135  0.00  0.00    +0.000 C 
ATOM     13  C   UNL     1       4.831   5.554  16.653  0.00  0.00    +0.000 C 
ENDROOT
BRANCH   1  15
ATOM     14  N   UNL     1       1.166   9.381  19.270  0.00  0.00    +0.000 NA
ATOM     15  C   UNL     1       1.743   8.212  19.247  0.00  0.00    +0.000 C 
BRANCH  14  22
ATOM     16  C   UNL     1      -0.439  11.941  19.650  0.00  0.00    +0.000 C 
ATOM     17  C   UNL     1      -0.180  10.938  20.731  0.00  0.00    +0.000 A 
ATOM     18  C   UNL     1      -0.706  11.234  22.015  0.00  0.00    +0.000 A 
ATOM     19  C   UNL     1      -0.496  10.394  23.106  0.00  0.00    +0.000 A 
ATOM     20  C   UNL     1       0.271   9.253  22.934  0.00  0.00    +0.000 A 
ATOM     21  C   UNL     1       0.811   8.961  21.679  0.00  0.00    +0.000 A 
ATOM     22  C   UNL     1       0.582   9.761  20.536  0.00  0.00    +0.000 A 
ENDBRANCH  14  22
ENDBRANCH   1  15
TORSDOF 2
ENDMDL
