MODEL 1
REMARK VINA RESULT:      -5.4      0.000      0.000
REMARK  Name = 
REMARK  3 active torsions:
REMARK  status: ('A' for Active; 'I' for Inactive)
REMARK    1  A    between atoms: C_1  and  C_2
REMARK    2  A    between atoms: C_2  and  C_3
REMARK    3  A    between atoms: N_4  and  N_5
REMARK                            x       y       z     vdW  Elec       q    Type
REMARK                         _______ _______ _______ _____ _____    ______ ____
ROOT
ATOM      1  N   UNL     1       3.643   3.359  18.190  0.00  0.00    +0.000 NA
ATOM      2  C   UNL     1       4.791   3.789  17.786  0.00  0.00    +0.000 C 
ATOM      3  N   UNL     1       5.874   3.956  18.576  0.00  0.00    +0.000 N 
ATOM      4  C   UNL     1       6.965   4.565  18.038  0.00  0.00    +0.000 C 
ATOM      5  O   UNL     1       7.935   4.927  18.690  0.00  0.00    +0.000 OA
ATOM      6  C   UNL     1       6.817   4.764  16.550  0.00  0.00    +0.000 C 
ATOM      7  S   UNL     1       5.122   4.251  16.149  0.00  0.00    +0.000 S 
ATOM      8  H   UNL     1       5.784   3.766  19.562  0.00  0.00    +0.000 HD
ENDROOT
BRANCH   1  12
ATOM      9  C   UNL     1       2.355   2.788  21.567  0.00  0.00    +0.000 C 
ATOM     10  C   UNL     1       2.479   3.182  20.116  0.00  0.00    +0.000 C 
ATOM     11  C   UNL     1       1.256   3.728  19.419  0.00  0.00    +0.000 C 
ATOM     12  N   UNL     1       3.639   3.029  19.550  0.00  0.00    +0.000 NA
ENDBRANCH   1  12
TORSDOF 1
ENDMDL
MODEL 2
REMARK VINA RESULT:      -5.4      3.907      5.755
REMARK  Name = 
REMARK  3 active torsions:
REMARK  status: ('A' for Active; 'I' for Inactive)
REMARK    1  A    between atoms: C_1  and  C_2
REMARK    2  A    between atoms: C_2  and  C_3
REMARK    3  A    between atoms: N_4  and  N_5
REMARK                            x       y       z     vdW  Elec       q    Type
REMARK                         _______ _______ _______ _____ _____    ______ ____
ROOT
ATOM      1  N   UNL     1       5.590   4.487  14.039  0.00  0.00    +0.000 NA
ATOM      2  C   UNL     1       6.009   4.788  15.221  0.00  0.00    +0.000 C 
ATOM      3  N   UNL     1       7.166   4.352  15.764  0.00  0.00    +0.000 N 
ATOM      4  C   UNL     1       7.396   4.627  17.077  0.00  0.00    +0.000 C 
ATOM      5  O   UNL     1       8.314   4.144  17.725  0.00  0.00    +0.000 OA
ATOM      6  C   UNL     1       6.363   5.573  17.639  0.00  0.00    +0.000 C 
ATOM      7  S   UNL     1       5.128   5.793  16.325  0.00  0.00    +0.000 S 
ATOM      8  H   UNL     1       7.739   3.717  15.230  0.00  0.00    +0.000 HD
ENDROOT
BRANCH   1  12
ATOM      9  C   UNL     1       6.919   2.358  11.376  0.00  0.00    +0.000 C 
ATOM     10  C   UNL     1       6.000   3.185  12.240  0.00  0.00    +0.000 C 
ATOM     11  C   UNL     1       4.575   3.381  11.782  0.00  0.00    +0.000 C 
ATOM     12  N   UNL     1       6.494   3.683  13.335  0.00  0.00    +0.000 NA
ENDBRANCH   1  12
TORSDOF 1
ENDMDL
MODEL 3
REMARK VINA RESULT:      -5.3      2.744      5.011
REMARK  Name = 
REMARK  3 active torsions:
REMARK  status: ('A' for Active; 'I' for Inactive)
REMARK    1  A    between atoms: C_1  and  C_2
REMARK    2  A    between atoms: C_2  and  C_3
REMARK    3  A    between atoms: N_4  and  N_5
REMARK                            x       y       z     vdW  Elec       q    Type
REMARK                         _______ _______ _______ _____ _____    ______ ____
ROOT
ATOM      1  N   UNL     1       5.556   4.037  19.266  0.00  0.00    +0.000 NA
ATOM      2  C   UNL     1       4.291   4.229  19.423  0.00  0.00    +0.000 C 
ATOM      3  N   UNL     1       3.730   5.394  19.814  0.00  0.00    +0.000 N 
ATOM      4  C   UNL     1       2.396   5.398  20.087  0.00  0.00    +0.000 C 
ATOM      5  O   UNL     1       1.810   6.336  20.611  0.00  0.00    +0.000 OA
ATOM      6  C   UNL     1       1.741   4.097  19.693  0.00  0.00    +0.000 C 
ATOM      7  S   UNL     1       3.094   2.999  19.179  0.00  0.00    +0.000 S 
ATOM      8  H   UNL     1       4.335   6.170  20.035  0.00  0.00    +0.000 HD
ENDROOT
BRANCH   1  12
ATOM      9  C   UNL     1       7.992   6.706  18.690  0.00  0.00    +0.000 C 
ATOM     10  C   UNL     1       7.176   5.444  18.562  0.00  0.00    +0.000 C 
ATOM     11  C   UNL     1       7.414   4.559  17.363  0.00  0.00    +0.000 C 
ATOM     12  N   UNL     1       6.311   5.192  19.500  0.00  0.00    +0.000 NA
ENDBRANCH   1  12
TORSDOF 1
ENDMDL
MODEL 4
REMARK VINA RESULT:      -5.3      1.589      1.720
REMARK  Name = 
REMARK  3 active torsions:
REMARK  status: ('A' for Active; 'I' for Inactive)
REMARK    1  A    between atoms: C_1  and  C_2
REMARK    2  A    between atoms: C_2  and  C_3
REMARK    3  A    between atoms: N_4  and  N_5
REMARK                            x       y       z     vdW  Elec       q    Type
REMARK                         _______ _______ _______ _____ _____    ______ ____
ROOT
ATOM      1  N   UNL     1       4.399   4.010  17.102  0.00  0.00    +0.000 NA
ATOM      2  C   UNL     1       5.432   4.657  17.523  0.00  0.00    +0.000 C 
ATOM      3  N   UNL     1       6.021   4.473  18.724  0.00  0.00    +0.000 N 
ATOM      4  C   UNL     1       7.006   5.340  19.089  0.00  0.00    +0.000 C 
ATOM      5  O   UNL     1       7.492   5.386  20.211  0.00  0.00    +0.000 OA
ATOM      6  C   UNL     1       7.398   6.251  17.952  0.00  0.00    +0.000 C 
ATOM      7  S   UNL     1       6.224   5.901  16.611  0.00  0.00    +0.000 S 
ATOM      8  H   UNL     1       5.614   3.808  19.363  0.00  0.00    +0.000 HD
ENDROOT
BRANCH   1  12
ATOM      9  C   UNL     1       2.106   2.051  19.175  0.00  0.00    +0.000 C 
ATOM     10  C   UNL     1       2.686   3.098  18.257  0.00  0.00    +0.000 C 
ATOM     11  C   UNL     1       1.756   4.141  17.685  0.00  0.00    +0.000 C 
ATOM     12  N   UNL     1       3.962   3.041  18.011  0.00  0.00    +0.000 NA
ENDBRANCH   1  12
TORSDOF 1
ENDMDL
MODEL 5
REMARK VINA RESULT:      -5.2      2.842      5.068
REMARK  Name = 
REMARK  3 active torsions:
REMARK  status: ('A' for Active; 'I' for Inactive)
REMARK    1  A    between atoms: C_1  and  C_2
REMARK    2  A    between atoms: C_2  and  C_3
REMARK    3  A    between atoms: N_4  and  N_5
REMARK                            x       y       z     vdW  Elec       q    Type
REMARK                         _______ _______ _______ _____ _____    ______ ____
ROOT
ATOM      1  N   UNL     1       5.740   4.364  19.107  0.00  0.00    +0.000 NA
ATOM      2  C   UNL     1       4.641   3.722  18.896  0.00  0.00    +0.000 C 
ATOM      3  N   UNL     1       3.730   4.041  17.951  0.00  0.00    +0.000 N 
ATOM      4  C   UNL     1       2.548   3.365  17.954  0.00  0.00    +0.000 C 
ATOM      5  O   UNL     1       1.583   3.676  17.268  0.00  0.00    +0.000 OA
ATOM      6  C   UNL     1       2.566   2.211  18.926  0.00  0.00    +0.000 C 
ATOM      7  S   UNL     1       4.140   2.344  19.822  0.00  0.00    +0.000 S 
ATOM      8  H   UNL     1       3.891   4.858  17.383  0.00  0.00    +0.000 HD
ENDROOT
BRANCH   1  12
ATOM      9  C   UNL     1       7.382   7.158  17.408  0.00  0.00    +0.000 C 
ATOM     10  C   UNL     1       7.057   6.044  18.371  0.00  0.00    +0.000 C 
ATOM     11  C   UNL     1       8.058   5.724  19.455  0.00  0.00    +0.000 C 
ATOM     12  N   UNL     1       5.927   5.422  18.210  0.00  0.00    +0.000 NA
ENDBRANCH   1  12
TORSDOF 1
ENDMDL
MODEL 6
REMARK VINA RESULT:      -5.2      2.499      4.866
REMARK  Name = 
REMARK  3 active torsions:
REMARK  status: ('A' for Active; 'I' for Inactive)
REMARK    1  A    between atoms: C_1  and  C_2
REMARK    2  A    between atoms: C_2  and  C_3
REMARK    3  A    between atoms: N_4  and  N_5
REMARK                            x       y       z     vdW  Elec       q    Type
REMARK                         _______ _______ _______ _____ _____    ______ ____
ROOT
ATOM      1  N   UNL     1       4.925   3.769  18.204  0.00  0.00    +0.000 NA
ATOM      2  C   UNL     1       3.920   3.325  18.880  0.00  0.00    +0.000 C 
ATOM      3  N   UNL     1       3.756   3.480  20.211  0.00  0.00    +0.000 N 
ATOM      4  C   UNL     1       2.725   2.820  20.806  0.00  0.00    +0.000 C 
ATOM      5  O   UNL     1       2.576   2.740  22.018  0.00  0.00    +0.000 OA
ATOM      6  C   UNL     1       1.813   2.178  19.791  0.00  0.00    +0.000 C 
ATOM      7  S   UNL     1       2.616   2.422  18.180  0.00  0.00    +0.000 S 
ATOM      8  H   UNL     1       4.481   3.947  20.734  0.00  0.00    +0.000 HD
ENDROOT
BRANCH   1  12
ATOM      9  C   UNL     1       7.872   5.753  19.084  0.00  0.00    +0.000 C 
ATOM     10  C   UNL     1       6.869   4.910  18.335  0.00  0.00    +0.000 C 
ATOM     11  C   UNL     1       7.134   4.612  16.879  0.00  0.00    +0.000 C 
ATOM     12  N   UNL     1       5.831   4.488  18.993  0.00  0.00    +0.000 NA
ENDBRANCH   1  12
TORSDOF 1
ENDMDL
MODEL 7
REMARK VINA RESULT:      -5.2      2.417      4.637
REMARK  Name = 
REMARK  3 active torsions:
REMARK  status: ('A' for Active; 'I' for Inactive)
REMARK    1  A    between atoms: C_1  and  C_2
REMARK    2  A    between atoms: C_2  and  C_3
REMARK    3  A    between atoms: N_4  and  N_5
REMARK                            x       y       z     vdW  Elec       q    Type
REMARK                         _______ _______ _______ _____ _____    ______ ____
ROOT
ATOM      1  N   UNL     1       3.866   4.177  17.000  0.00  0.00    +0.000 NA
ATOM      2  C   UNL     1       3.784   3.701  18.196  0.00  0.00    +0.000 C 
ATOM      3  N   UNL     1       4.736   2.953  18.795  0.00  0.00    +0.000 N 
ATOM      4  C   UNL     1       4.439   2.391  19.999  0.00  0.00    +0.000 C 
ATOM      5  O   UNL     1       5.143   1.560  20.556  0.00  0.00    +0.000 OA
ATOM      6  C   UNL     1       3.125   2.897  20.542  0.00  0.00    +0.000 C 
ATOM      7  S   UNL     1       2.410   3.926  19.228  0.00  0.00    +0.000 S 
ATOM      8  H   UNL     1       5.562   2.713  18.270  0.00  0.00    +0.000 HD
ENDROOT
BRANCH   1  12
ATOM      9  C   UNL     1       7.047   4.713  15.272  0.00  0.00    +0.000 C 
ATOM     10  C   UNL     1       5.692   4.923  15.900  0.00  0.00    +0.000 C 
ATOM     11  C   UNL     1       5.127   6.323  15.926  0.00  0.00    +0.000 C 
ATOM     12  N   UNL     1       5.086   3.879  16.382  0.00  0.00    +0.000 NA
ENDBRANCH   1  12
TORSDOF 1
ENDMDL
MODEL 8
REMARK VINA RESULT:      -5.2      1.512      1.580
REMARK  Name = 
REMARK  3 active torsions:
REMARK  status: ('A' for Active; 'I' for Inactive)
REMARK    1  A    between atoms: C_1  and  C_2
REMARK    2  A    between atoms: C_2  and  C_3
REMARK    3  A    between atoms: N_4  and  N_5
REMARK                            x       y       z     vdW  Elec       q    Type
REMARK                         _______ _______ _______ _____ _____    ______ ____
ROOT
ATOM      1  N   UNL     1       3.517   4.966  17.827  0.00  0.00    +0.000 NA
ATOM      2  C   UNL     1       4.797   4.934  17.979  0.00  0.00    +0.000 C 
ATOM      3  N   UNL     1       5.439   5.094  19.157  0.00  0.00    +0.000 N 
ATOM      4  C   UNL     1       6.796   5.193  19.133  0.00  0.00    +0.000 C 
ATOM      5  O   UNL     1       7.474   5.510  20.101  0.00  0.00    +0.000 OA
ATOM      6  C   UNL     1       7.354   4.893  17.764  0.00  0.00    +0.000 C 
ATOM      7  S   UNL     1       5.914   4.704  16.674  0.00  0.00    +0.000 S 
ATOM      8  H   UNL     1       4.891   5.287  19.981  0.00  0.00    +0.000 HD
ENDROOT
BRANCH   1  12
ATOM      9  C   UNL     1       1.123   4.342  20.525  0.00  0.00    +0.000 C 
ATOM     10  C   UNL     1       1.875   4.280  19.219  0.00  0.00    +0.000 C 
ATOM     11  C   UNL     1       1.470   3.231  18.212  0.00  0.00    +0.000 C 
ATOM     12  N   UNL     1       2.834   5.139  19.037  0.00  0.00    +0.000 NA
ENDBRANCH   1  12
TORSDOF 1
ENDMDL
MODEL 9
REMARK VINA RESULT:      -5.2      1.030      1.030
REMARK  Name = 
REMARK  3 active torsions:
REMARK  status: ('A' for Active; 'I' for Inactive)
REMARK    1  A    between atoms: C_1  and  C_2
REMARK    2  A    between atoms: C_2  and  C_3
REMARK    3  A    between atoms: N_4  and  N_5
REMARK                            x       y       z     vdW  Elec       q    Type
REMARK                         _______ _______ _______ _____ _____    ______ ____
ROOT
ATOM      1  N   UNL     1       3.595   4.612  18.512  0.00  0.00    +0.000 NA
ATOM      2  C   UNL     1       4.763   4.835  18.012  0.00  0.00    +0.000 C 
ATOM      3  N   UNL     1       5.902   4.225  18.407  0.00  0.00    +0.000 N 
ATOM      4  C   UNL     1       7.078   4.679  17.894  0.00  0.00    +0.000 C 
ATOM      5  O   UNL     1       8.178   4.330  18.300  0.00  0.00    +0.000 OA
ATOM      6  C   UNL     1       6.855   5.683  16.791  0.00  0.00    +0.000 C 
ATOM      7  S   UNL     1       5.065   5.988  16.753  0.00  0.00    +0.000 S 
ATOM      8  H   UNL     1       5.856   3.568  19.171  0.00  0.00    +0.000 HD
ENDROOT
BRANCH   1  12
ATOM      9  C   UNL     1       2.601   2.729  21.488  0.00  0.00    +0.000 C 
ATOM     10  C   UNL     1       2.709   3.786  20.417  0.00  0.00    +0.000 C 
ATOM     11  C   UNL     1       1.769   4.965  20.483  0.00  0.00    +0.000 C 
ATOM     12  N   UNL     1       3.611   3.617  19.496  0.00  0.00    +0.000 NA
ENDBRANCH   1  12
TORSDOF 1
ENDMDL
