MODEL 1
REMARK VINA RESULT:      -6.7      0.000      0.000
REMARK  Name = 
REMARK  15 active torsions:
REMARK  status: ('A' for Active; 'I' for Inactive)
REMARK    1  A    between atoms: C_1  and  S_2
REMARK    2  A    between atoms: S_2  and  C_3
REMARK    3  A    between atoms: C_3  and  C_4
REMARK    4  A    between atoms: C_4  and  C_5
REMARK    5  A    between atoms: C_5  and  N_6
REMARK    6  A    between atoms: C_5  and  C_14
REMARK    7  A    between atoms: C_7  and  O_9
REMARK    8  A    between atoms: O_9  and  C_10
REMARK    9  A    between atoms: C_10  and  C_11
REMARK   10  A    between atoms: C_10  and  C_12
REMARK   11  A    between atoms: C_10  and  C_13
REMARK   12  A    between atoms: N_16  and  C_17
REMARK   13  A    between atoms: C_21  and  O_22
REMARK   14  A    between atoms: O_22  and  C_23
REMARK   15  A    between atoms: C_23  and  C_24
REMARK                            x       y       z     vdW  Elec       q    Type
REMARK                         _______ _______ _______ _____ _____    ______ ____
ROOT
ATOM      1  C   UNL     1       2.168   8.415  18.209  0.00  0.00    +0.000 C 
ATOM      2  O   UNL     1       2.113   8.893  17.089  0.00  0.00    +0.000 OA
ATOM      3  N   UNL     1       1.390   8.881  19.278  0.00  0.00    +0.000 N 
ATOM      4  H   UNL     1       1.216   8.183  20.003  0.00  0.00    +0.000 HD
ENDROOT
BRANCH   3   5
ATOM      5  C   UNL     1       0.493  10.050  19.309  0.00  0.00    +0.000 C 
ATOM      6  C   UNL     1      -0.182  10.197  20.656  0.00  0.00    +0.000 C 
ATOM      7  O   UNL     1       0.765  10.933  21.438  0.00  0.00    +0.000 OA
ATOM      8  C   UNL     1       1.436  11.865  20.571  0.00  0.00    +0.000 C 
ATOM      9  C   UNL     1       0.979  13.331  20.573  0.00  0.00    +0.000 C 
ATOM     10  C   UNL     1       0.861  13.641  19.077  0.00  0.00    +0.000 C 
ATOM     11  O   UNL     1       0.356  12.408  18.528  0.00  0.00    +0.000 OA
ATOM     12  C   UNL     1       1.181  11.402  19.153  0.00  0.00    +0.000 C 
BRANCH   9  13
ATOM     13  O   UNL     1      -0.306  13.518  21.143  0.00  0.00    +0.000 OA
BRANCH  13  14
ATOM     14  C   UNL     1      -0.238  14.008  22.477  0.00  0.00    +0.000 C 
BRANCH  14  15
ATOM     15  C   UNL     1      -1.531  13.715  23.148  0.00  0.00    +0.000 A 
ATOM     16  C   UNL     1      -2.175  14.719  23.893  0.00  0.00    +0.000 A 
ATOM     17  C   UNL     1      -3.367  14.421  24.548  0.00  0.00    +0.000 A 
ATOM     18  C   UNL     1      -3.906  13.150  24.458  0.00  0.00    +0.000 A 
ATOM     19  C   UNL     1      -3.268  12.149  23.701  0.00  0.00    +0.000 A 
ATOM     20  C   UNL     1      -2.073  12.446  23.047  0.00  0.00    +0.000 A 
ENDBRANCH  14  15
ENDBRANCH  13  14
ENDBRANCH   9  13
ENDBRANCH   3   5
BRANCH   1  21
ATOM     21  C   UNL     1       3.051   7.151  18.524  0.00  0.00    +0.000 C 
BRANCH  21  22
ATOM     22  N   UNL     1       2.225   5.932  18.492  0.00  0.00    +0.000 N 
ATOM     23  C   UNL     1       1.813   5.433  19.708  0.00  0.00    +0.000 C 
ATOM     24  O   UNL     1       2.041   6.017  20.745  0.00  0.00    +0.000 OA
ATOM     25  H   UNL     1       2.360   5.226  17.781  0.00  0.00    +0.000 HD
BRANCH  23  26
ATOM     26  O   UNL     1       1.176   4.234  19.563  0.00  0.00    +0.000 OA
BRANCH  26  27
ATOM     27  C   UNL     1       1.889   3.061  20.048  0.00  0.00    +0.000 C 
ATOM     28  C   UNL     1       1.498   2.713  21.494  0.00  0.00    +0.000 C 
ATOM     29  C   UNL     1       1.548   1.884  19.111  0.00  0.00    +0.000 C 
ATOM     30  C   UNL     1       3.398   3.312  19.956  0.00  0.00    +0.000 C 
ENDBRANCH  26  27
ENDBRANCH  23  26
ENDBRANCH  21  22
BRANCH  21  31
ATOM     31  C   UNL     1       4.231   7.039  17.540  0.00  0.00    +0.000 C 
BRANCH  31  32
ATOM     32  C   UNL     1       5.226   5.937  17.920  0.00  0.00    +0.000 C 
BRANCH  32  34
ATOM     33  C   UNL     1       7.154   4.706  16.370  0.00  0.00    +0.000 C 
ATOM     34  S   UNL     1       6.827   6.315  17.125  0.00  0.00    +0.000 S 
ENDBRANCH  32  34
ENDBRANCH  31  32
ENDBRANCH  21  31
ENDBRANCH   1  21
TORSDOF 11
ENDMDL
MODEL 2
REMARK VINA RESULT:      -6.6      2.635      4.815
REMARK  Name = 
REMARK  15 active torsions:
REMARK  status: ('A' for Active; 'I' for Inactive)
REMARK    1  A    between atoms: C_1  and  S_2
REMARK    2  A    between atoms: S_2  and  C_3
REMARK    3  A    between atoms: C_3  and  C_4
REMARK    4  A    between atoms: C_4  and  C_5
REMARK    5  A    between atoms: C_5  and  N_6
REMARK    6  A    between atoms: C_5  and  C_14
REMARK    7  A    between atoms: C_7  and  O_9
REMARK    8  A    between atoms: O_9  and  C_10
REMARK    9  A    between atoms: C_10  and  C_11
REMARK   10  A    between atoms: C_10  and  C_12
REMARK   11  A    between atoms: C_10  and  C_13
REMARK   12  A    between atoms: N_16  and  C_17
REMARK   13  A    between atoms: C_21  and  O_22
REMARK   14  A    between atoms: O_22  and  C_23
REMARK   15  A    between atoms: C_23  and  C_24
REMARK                            x       y       z     vdW  Elec       q    Type
REMARK                         _______ _______ _______ _____ _____    ______ ____
ROOT
ATOM      1  C   UNL     1       2.495   7.435  18.661  0.00  0.00    +0.000 C 
ATOM      2  O   UNL     1       3.102   7.976  17.753  0.00  0.00    +0.000 OA
ATOM      3  N   UNL     1       1.670   8.135  19.552  0.00  0.00    +0.000 N 
ATOM      4  H   UNL     1       0.932   7.568  19.971  0.00  0.00    +0.000 HD
ENDROOT
BRANCH   3   5
ATOM      5  C   UNL     1       1.470   9.592  19.653  0.00  0.00    +0.000 C 
ATOM      6  C   UNL     1       1.163  10.206  18.303  0.00  0.00    +0.000 C 
ATOM      7  O   UNL     1      -0.253  10.046  18.167  0.00  0.00    +0.000 OA
ATOM      8  C   UNL     1      -0.851  10.190  19.467  0.00  0.00    +0.000 C 
ATOM      9  C   UNL     1      -1.496  11.534  19.835  0.00  0.00    +0.000 C 
ATOM     10  C   UNL     1      -0.919  11.806  21.228  0.00  0.00    +0.000 C 
ATOM     11  O   UNL     1       0.431  11.308  21.124  0.00  0.00    +0.000 OA
ATOM     12  C   UNL     1       0.264  10.028  20.478  0.00  0.00    +0.000 C 
BRANCH   9  13
ATOM     13  O   UNL     1      -1.088  12.601  18.996  0.00  0.00    +0.000 OA
BRANCH  13  14
ATOM     14  C   UNL     1      -1.110  13.855  19.669  0.00  0.00    +0.000 C 
BRANCH  14  15
ATOM     15  C   UNL     1       0.031  14.670  19.174  0.00  0.00    +0.000 A 
ATOM     16  C   UNL     1       1.268  14.054  18.913  0.00  0.00    +0.000 A 
ATOM     17  C   UNL     1       2.339  14.834  18.485  0.00  0.00    +0.000 A 
ATOM     18  C   UNL     1       2.177  16.197  18.318  0.00  0.00    +0.000 A 
ATOM     19  C   UNL     1       0.934  16.812  18.565  0.00  0.00    +0.000 A 
ATOM     20  C   UNL     1      -0.138  16.031  18.996  0.00  0.00    +0.000 A 
ENDBRANCH  14  15
ENDBRANCH  13  14
ENDBRANCH   9  13
ENDBRANCH   3   5
BRANCH   1  21
ATOM     21  C   UNL     1       2.506   5.872  18.846  0.00  0.00    +0.000 C 
BRANCH  21  22
ATOM     22  N   UNL     1       3.825   5.326  18.482  0.00  0.00    +0.000 N 
ATOM     23  C   UNL     1       3.843   4.357  17.504  0.00  0.00    +0.000 C 
ATOM     24  O   UNL     1       2.838   4.036  16.907  0.00  0.00    +0.000 OA
ATOM     25  H   UNL     1       4.560   5.232  19.169  0.00  0.00    +0.000 HD
BRANCH  23  26
ATOM     26  O   UNL     1       5.093   3.830  17.349  0.00  0.00    +0.000 OA
BRANCH  26  27
ATOM     27  C   UNL     1       5.975   4.522  16.419  0.00  0.00    +0.000 C 
ATOM     28  C   UNL     1       5.460   5.932  16.085  0.00  0.00    +0.000 C 
ATOM     29  C   UNL     1       7.370   4.609  17.071  0.00  0.00    +0.000 C 
ATOM     30  C   UNL     1       6.108   3.693  15.137  0.00  0.00    +0.000 C 
ENDBRANCH  26  27
ENDBRANCH  23  26
ENDBRANCH  21  22
BRANCH  21  31
ATOM     31  C   UNL     1       2.129   5.482  20.287  0.00  0.00    +0.000 C 
BRANCH  31  32
ATOM     32  C   UNL     1       1.143   4.310  20.352  0.00  0.00    +0.000 C 
BRANCH  32  34
ATOM     33  C   UNL     1       3.293   2.597  20.630  0.00  0.00    +0.000 C 
ATOM     34  S   UNL     1       1.800   3.076  21.528  0.00  0.00    +0.000 S 
ENDBRANCH  32  34
ENDBRANCH  31  32
ENDBRANCH  21  31
ENDBRANCH   1  21
TORSDOF 11
ENDMDL
MODEL 3
REMARK VINA RESULT:      -6.6      0.964      1.340
REMARK  Name = 
REMARK  15 active torsions:
REMARK  status: ('A' for Active; 'I' for Inactive)
REMARK    1  A    between atoms: C_1  and  S_2
REMARK    2  A    between atoms: S_2  and  C_3
REMARK    3  A    between atoms: C_3  and  C_4
REMARK    4  A    between atoms: C_4  and  C_5
REMARK    5  A    between atoms: C_5  and  N_6
REMARK    6  A    between atoms: C_5  and  C_14
REMARK    7  A    between atoms: C_7  and  O_9
REMARK    8  A    between atoms: O_9  and  C_10
REMARK    9  A    between atoms: C_10  and  C_11
REMARK   10  A    between atoms: C_10  and  C_12
REMARK   11  A    between atoms: C_10  and  C_13
REMARK   12  A    between atoms: N_16  and  C_17
REMARK   13  A    between atoms: C_21  and  O_22
REMARK   14  A    between atoms: O_22  and  C_23
REMARK   15  A    between atoms: C_23  and  C_24
REMARK                            x       y       z     vdW  Elec       q    Type
REMARK                         _______ _______ _______ _____ _____    ______ ____
ROOT
ATOM      1  C   UNL     1       2.481   8.306  17.991  0.00  0.00    +0.000 C 
ATOM      2  O   UNL     1       2.331   8.944  16.964  0.00  0.00    +0.000 OA
ATOM      3  N   UNL     1       1.670   8.475  19.122  0.00  0.00    +0.000 N 
ATOM      4  H   UNL     1       1.617   7.652  19.724  0.00  0.00    +0.000 HD
ENDROOT
BRANCH   3   5
ATOM      5  C   UNL     1       0.614   9.479  19.342  0.00  0.00    +0.000 C 
ATOM      6  C   UNL     1       0.203   9.543  20.798  0.00  0.00    +0.000 C 
ATOM      7  O   UNL     1       1.149  10.445  21.383  0.00  0.00    +0.000 OA
ATOM      8  C   UNL     1       1.470  11.455  20.410  0.00  0.00    +0.000 C 
ATOM      9  C   UNL     1       0.783  12.824  20.517  0.00  0.00    +0.000 C 
ATOM     10  C   UNL     1       0.323  13.075  19.077  0.00  0.00    +0.000 C 
ATOM     11  O   UNL     1      -0.068  11.762  18.627  0.00  0.00    +0.000 OA
ATOM     12  C   UNL     1       1.021  10.922  19.066  0.00  0.00    +0.000 C 
BRANCH   9  13
ATOM     13  O   UNL     1      -0.376  12.809  21.332  0.00  0.00    +0.000 OA
BRANCH  13  14
ATOM     14  C   UNL     1      -0.249  13.657  22.467  0.00  0.00    +0.000 C 
BRANCH  14  15
ATOM     15  C   UNL     1      -1.508  13.577  23.254  0.00  0.00    +0.000 A 
ATOM     16  C   UNL     1      -2.337  12.447  23.131  0.00  0.00    +0.000 A 
ATOM     17  C   UNL     1      -3.531  12.399  23.845  0.00  0.00    +0.000 A 
ATOM     18  C   UNL     1      -3.888  13.454  24.666  0.00  0.00    +0.000 A 
ATOM     19  C   UNL     1      -3.051  14.579  24.799  0.00  0.00    +0.000 A 
ATOM     20  C   UNL     1      -1.856  14.627  24.083  0.00  0.00    +0.000 A 
ENDBRANCH  14  15
ENDBRANCH  13  14
ENDBRANCH   9  13
ENDBRANCH   3   5
BRANCH   1  21
ATOM     21  C   UNL     1       3.546   7.151  18.097  0.00  0.00    +0.000 C 
BRANCH  21  22
ATOM     22  N   UNL     1       2.872   5.848  18.224  0.00  0.00    +0.000 N 
ATOM     23  C   UNL     1       3.457   4.930  19.068  0.00  0.00    +0.000 C 
ATOM     24  O   UNL     1       4.424   5.211  19.742  0.00  0.00    +0.000 OA
ATOM     25  H   UNL     1       2.379   5.435  17.444  0.00  0.00    +0.000 HD
BRANCH  23  26
ATOM     26  O   UNL     1       2.827   3.720  19.000  0.00  0.00    +0.000 OA
BRANCH  26  27
ATOM     27  C   UNL     1       1.854   3.439  20.047  0.00  0.00    +0.000 C 
ATOM     28  C   UNL     1       1.172   4.722  20.551  0.00  0.00    +0.000 C 
ATOM     29  C   UNL     1       0.800   2.476  19.461  0.00  0.00    +0.000 C 
ATOM     30  C   UNL     1       2.552   2.722  21.207  0.00  0.00    +0.000 C 
ENDBRANCH  26  27
ENDBRANCH  23  26
ENDBRANCH  21  22
BRANCH  21  31
ATOM     31  C   UNL     1       4.497   7.161  16.886  0.00  0.00    +0.000 C 
BRANCH  31  32
ATOM     32  C   UNL     1       5.964   6.945  17.274  0.00  0.00    +0.000 C 
BRANCH  32  34
ATOM     33  C   UNL     1       7.464   4.659  17.679  0.00  0.00    +0.000 C 
ATOM     34  S   UNL     1       6.595   5.507  16.340  0.00  0.00    +0.000 S 
ENDBRANCH  32  34
ENDBRANCH  31  32
ENDBRANCH  21  31
ENDBRANCH   1  21
TORSDOF 11
ENDMDL
MODEL 4
REMARK VINA RESULT:      -6.5      2.579      4.851
REMARK  Name = 
REMARK  15 active torsions:
REMARK  status: ('A' for Active; 'I' for Inactive)
REMARK    1  A    between atoms: C_1  and  S_2
REMARK    2  A    between atoms: S_2  and  C_3
REMARK    3  A    between atoms: C_3  and  C_4
REMARK    4  A    between atoms: C_4  and  C_5
REMARK    5  A    between atoms: C_5  and  N_6
REMARK    6  A    between atoms: C_5  and  C_14
REMARK    7  A    between atoms: C_7  and  O_9
REMARK    8  A    between atoms: O_9  and  C_10
REMARK    9  A    between atoms: C_10  and  C_11
REMARK   10  A    between atoms: C_10  and  C_12
REMARK   11  A    between atoms: C_10  and  C_13
REMARK   12  A    between atoms: N_16  and  C_17
REMARK   13  A    between atoms: C_21  and  O_22
REMARK   14  A    between atoms: O_22  and  C_23
REMARK   15  A    between atoms: C_23  and  C_24
REMARK                            x       y       z     vdW  Elec       q    Type
REMARK                         _______ _______ _______ _____ _____    ______ ____
ROOT
ATOM      1  C   UNL     1       2.342   7.512  19.057  0.00  0.00    +0.000 C 
ATOM      2  O   UNL     1       2.648   7.975  17.972  0.00  0.00    +0.000 OA
ATOM      3  N   UNL     1       1.711   8.262  20.059  0.00  0.00    +0.000 N 
ATOM      4  H   UNL     1       1.158   7.705  20.712  0.00  0.00    +0.000 HD
ENDROOT
BRANCH   3   5
ATOM      5  C   UNL     1       1.415   9.706  20.063  0.00  0.00    +0.000 C 
ATOM      6  C   UNL     1       1.345  10.262  18.656  0.00  0.00    +0.000 C 
ATOM      7  O   UNL     1      -0.005  10.010  18.252  0.00  0.00    +0.000 OA
ATOM      8  C   UNL     1      -0.854  10.152  19.405  0.00  0.00    +0.000 C 
ATOM      9  C   UNL     1      -1.633  11.463  19.587  0.00  0.00    +0.000 C 
ATOM     10  C   UNL     1      -1.358  11.808  21.055  0.00  0.00    +0.000 C 
ATOM     11  O   UNL     1       0.011  11.393  21.235  0.00  0.00    +0.000 OA
ATOM     12  C   UNL     1       0.047  10.088  20.619  0.00  0.00    +0.000 C 
BRANCH   9  13
ATOM     13  O   UNL     1      -1.129  12.530  18.803  0.00  0.00    +0.000 OA
BRANCH  13  14
ATOM     14  C   UNL     1      -1.229  13.783  19.469  0.00  0.00    +0.000 C 
BRANCH  14  15
ATOM     15  C   UNL     1      -0.072  14.622  19.061  0.00  0.00    +0.000 A 
ATOM     16  C   UNL     1       1.211  14.051  18.978  0.00  0.00    +0.000 A 
ATOM     17  C   UNL     1       2.292  14.855  18.630  0.00  0.00    +0.000 A 
ATOM     18  C   UNL     1       2.098  16.199  18.368  0.00  0.00    +0.000 A 
ATOM     19  C   UNL     1       0.812  16.769  18.438  0.00  0.00    +0.000 A 
ATOM     20  C   UNL     1      -0.272  15.963  18.788  0.00  0.00    +0.000 A 
ENDBRANCH  14  15
ENDBRANCH  13  14
ENDBRANCH   9  13
ENDBRANCH   3   5
BRANCH   1  21
ATOM     21  C   UNL     1       2.540   5.986  19.388  0.00  0.00    +0.000 C 
BRANCH  21  22
ATOM     22  N   UNL     1       3.965   5.695  19.617  0.00  0.00    +0.000 N 
ATOM     23  C   UNL     1       4.615   4.980  18.636  0.00  0.00    +0.000 C 
ATOM     24  O   UNL     1       4.067   4.684  17.595  0.00  0.00    +0.000 OA
ATOM     25  H   UNL     1       4.324   5.536  20.548  0.00  0.00    +0.000 HD
BRANCH  23  26
ATOM     26  O   UNL     1       5.885   4.653  19.017  0.00  0.00    +0.000 OA
BRANCH  26  27
ATOM     27  C   UNL     1       6.964   5.371  18.353  0.00  0.00    +0.000 C 
ATOM     28  C   UNL     1       6.450   6.620  17.617  0.00  0.00    +0.000 C 
ATOM     29  C   UNL     1       7.990   5.777  19.430  0.00  0.00    +0.000 C 
ATOM     30  C   UNL     1       7.665   4.431  17.367  0.00  0.00    +0.000 C 
ENDBRANCH  26  27
ENDBRANCH  23  26
ENDBRANCH  21  22
BRANCH  21  31
ATOM     31  C   UNL     1       1.693   5.568  20.605  0.00  0.00    +0.000 C 
BRANCH  31  32
ATOM     32  C   UNL     1       0.938   4.252  20.386  0.00  0.00    +0.000 C 
BRANCH  32  34
ATOM     33  C   UNL     1       2.294   2.083  19.341  0.00  0.00    +0.000 C 
ATOM     34  S   UNL     1       2.013   2.881  20.937  0.00  0.00    +0.000 S 
ENDBRANCH  32  34
ENDBRANCH  31  32
ENDBRANCH  21  31
ENDBRANCH   1  21
TORSDOF 11
ENDMDL
MODEL 5
REMARK VINA RESULT:      -6.5      2.904      4.477
REMARK  Name = 
REMARK  15 active torsions:
REMARK  status: ('A' for Active; 'I' for Inactive)
REMARK    1  A    between atoms: C_1  and  S_2
REMARK    2  A    between atoms: S_2  and  C_3
REMARK    3  A    between atoms: C_3  and  C_4
REMARK    4  A    between atoms: C_4  and  C_5
REMARK    5  A    between atoms: C_5  and  N_6
REMARK    6  A    between atoms: C_5  and  C_14
REMARK    7  A    between atoms: C_7  and  O_9
REMARK    8  A    between atoms: O_9  and  C_10
REMARK    9  A    between atoms: C_10  and  C_11
REMARK   10  A    between atoms: C_10  and  C_12
REMARK   11  A    between atoms: C_10  and  C_13
REMARK   12  A    between atoms: N_16  and  C_17
REMARK   13  A    between atoms: C_21  and  O_22
REMARK   14  A    between atoms: O_22  and  C_23
REMARK   15  A    between atoms: C_23  and  C_24
REMARK                            x       y       z     vdW  Elec       q    Type
REMARK                         _______ _______ _______ _____ _____    ______ ____
ROOT
ATOM      1  C   UNL     1       2.433   7.660  18.544  0.00  0.00    +0.000 C 
ATOM      2  O   UNL     1       3.070   8.158  17.632  0.00  0.00    +0.000 OA
ATOM      3  N   UNL     1       1.484   8.371  19.293  0.00  0.00    +0.000 N 
ATOM      4  H   UNL     1       0.761   7.786  19.713  0.00  0.00    +0.000 HD
ENDROOT
BRANCH   3   5
ATOM      5  C   UNL     1       1.165   9.808  19.226  0.00  0.00    +0.000 C 
ATOM      6  C   UNL     1      -0.099  10.060  18.432  0.00  0.00    +0.000 C 
ATOM      7  O   UNL     1      -1.148   9.897  19.392  0.00  0.00    +0.000 OA
ATOM      8  C   UNL     1      -0.675  10.381  20.662  0.00  0.00    +0.000 C 
ATOM      9  C   UNL     1      -1.097  11.786  21.115  0.00  0.00    +0.000 C 
ATOM     10  C   UNL     1       0.231  12.396  21.575  0.00  0.00    +0.000 C 
ATOM     11  O   UNL     1       1.179  11.863  20.628  0.00  0.00    +0.000 OA
ATOM     12  C   UNL     1       0.833  10.464  20.562  0.00  0.00    +0.000 C 
BRANCH   9  13
ATOM     13  O   UNL     1      -1.587  12.594  20.059  0.00  0.00    +0.000 OA
BRANCH  13  14
ATOM     14  C   UNL     1      -2.830  13.207  20.381  0.00  0.00    +0.000 C 
BRANCH  14  15
ATOM     15  C   UNL     1      -3.914  12.448  19.703  0.00  0.00    +0.000 A 
ATOM     16  C   UNL     1      -3.633  11.731  18.525  0.00  0.00    +0.000 A 
ATOM     17  C   UNL     1      -4.664  11.054  17.880  0.00  0.00    +0.000 A 
ATOM     18  C   UNL     1      -5.945  11.089  18.400  0.00  0.00    +0.000 A 
ATOM     19  C   UNL     1      -6.224  11.795  19.586  0.00  0.00    +0.000 A 
ATOM     20  C   UNL     1      -5.191  12.474  20.232  0.00  0.00    +0.000 A 
ENDBRANCH  14  15
ENDBRANCH  13  14
ENDBRANCH   9  13
ENDBRANCH   3   5
BRANCH   1  21
ATOM     21  C   UNL     1       2.549   6.129  18.892  0.00  0.00    +0.000 C 
BRANCH  21  22
ATOM     22  N   UNL     1       3.916   5.649  18.628  0.00  0.00    +0.000 N 
ATOM     23  C   UNL     1       4.049   4.643  17.697  0.00  0.00    +0.000 C 
ATOM     24  O   UNL     1       3.101   4.237  17.060  0.00  0.00    +0.000 OA
ATOM     25  H   UNL     1       4.614   5.629  19.359  0.00  0.00    +0.000 HD
BRANCH  23  26
ATOM     26  O   UNL     1       5.335   4.188  17.637  0.00  0.00    +0.000 OA
BRANCH  26  27
ATOM     27  C   UNL     1       6.143   4.679  16.529  0.00  0.00    +0.000 C 
ATOM     28  C   UNL     1       5.750   6.111  16.128  0.00  0.00    +0.000 C 
ATOM     29  C   UNL     1       7.620   4.641  16.973  0.00  0.00    +0.000 C 
ATOM     30  C   UNL     1       5.988   3.736  15.332  0.00  0.00    +0.000 C 
ENDBRANCH  26  27
ENDBRANCH  23  26
ENDBRANCH  21  22
BRANCH  21  31
ATOM     31  C   UNL     1       2.146   5.861  20.354  0.00  0.00    +0.000 C 
BRANCH  31  32
ATOM     32  C   UNL     1       0.962   4.897  20.482  0.00  0.00    +0.000 C 
BRANCH  32  34
ATOM     33  C   UNL     1       1.499   2.512  21.771  0.00  0.00    +0.000 C 
ATOM     34  S   UNL     1       1.555   3.210  20.105  0.00  0.00    +0.000 S 
ENDBRANCH  32  34
ENDBRANCH  31  32
ENDBRANCH  21  31
ENDBRANCH   1  21
TORSDOF 11
ENDMDL
MODEL 6
REMARK VINA RESULT:      -6.5      1.054      1.151
REMARK  Name = 
REMARK  15 active torsions:
REMARK  status: ('A' for Active; 'I' for Inactive)
REMARK    1  A    between atoms: C_1  and  S_2
REMARK    2  A    between atoms: S_2  and  C_3
REMARK    3  A    between atoms: C_3  and  C_4
REMARK    4  A    between atoms: C_4  and  C_5
REMARK    5  A    between atoms: C_5  and  N_6
REMARK    6  A    between atoms: C_5  and  C_14
REMARK    7  A    between atoms: C_7  and  O_9
REMARK    8  A    between atoms: O_9  and  C_10
REMARK    9  A    between atoms: C_10  and  C_11
REMARK   10  A    between atoms: C_10  and  C_12
REMARK   11  A    between atoms: C_10  and  C_13
REMARK   12  A    between atoms: N_16  and  C_17
REMARK   13  A    between atoms: C_21  and  O_22
REMARK   14  A    between atoms: O_22  and  C_23
REMARK   15  A    between atoms: C_23  and  C_24
REMARK                            x       y       z     vdW  Elec       q    Type
REMARK                         _______ _______ _______ _____ _____    ______ ____
ROOT
ATOM      1  C   UNL     1       2.499   8.196  18.116  0.00  0.00    +0.000 C 
ATOM      2  O   UNL     1       2.251   8.822  17.100  0.00  0.00    +0.000 OA
ATOM      3  N   UNL     1       1.776   8.351  19.307  0.00  0.00    +0.000 N 
ATOM      4  H   UNL     1       1.793   7.532  19.915  0.00  0.00    +0.000 HD
ENDROOT
BRANCH   3   5
ATOM      5  C   UNL     1       0.713   9.328  19.604  0.00  0.00    +0.000 C 
ATOM      6  C   UNL     1       0.364   9.338  21.077  0.00  0.00    +0.000 C 
ATOM      7  O   UNL     1       1.318  10.236  21.652  0.00  0.00    +0.000 OA
ATOM      8  C   UNL     1       1.582  11.283  20.701  0.00  0.00    +0.000 C 
ATOM      9  C   UNL     1       0.877  12.635  20.883  0.00  0.00    +0.000 C 
ATOM     10  C   UNL     1       0.352  12.926  19.473  0.00  0.00    +0.000 C 
ATOM     11  O   UNL     1      -0.035  11.622  18.996  0.00  0.00    +0.000 OA
ATOM     12  C   UNL     1       1.085  10.788  19.360  0.00  0.00    +0.000 C 
BRANCH   9  13
ATOM     13  O   UNL     1      -0.246  12.573  21.745  0.00  0.00    +0.000 OA
BRANCH  13  14
ATOM     14  C   UNL     1      -0.464  13.797  22.438  0.00  0.00    +0.000 C 
BRANCH  14  15
ATOM     15  C   UNL     1      -1.707  13.664  23.241  0.00  0.00    +0.000 A 
ATOM     16  C   UNL     1      -2.035  14.650  24.189  0.00  0.00    +0.000 A 
ATOM     17  C   UNL     1      -3.183  14.496  24.961  0.00  0.00    +0.000 A 
ATOM     18  C   UNL     1      -3.988  13.384  24.788  0.00  0.00    +0.000 A 
ATOM     19  C   UNL     1      -3.667  12.403  23.830  0.00  0.00    +0.000 A 
ATOM     20  C   UNL     1      -2.516  12.557  23.058  0.00  0.00    +0.000 A 
ENDBRANCH  14  15
ENDBRANCH  13  14
ENDBRANCH   9  13
ENDBRANCH   3   5
BRANCH   1  21
ATOM     21  C   UNL     1       3.600   7.070  18.143  0.00  0.00    +0.000 C 
BRANCH  21  22
ATOM     22  N   UNL     1       2.974   5.751  18.340  0.00  0.00    +0.000 N 
ATOM     23  C   UNL     1       3.570   4.916  19.259  0.00  0.00    +0.000 C 
ATOM     24  O   UNL     1       4.506   5.282  19.938  0.00  0.00    +0.000 OA
ATOM     25  H   UNL     1       2.521   5.268  17.577  0.00  0.00    +0.000 HD
BRANCH  23  26
ATOM     26  O   UNL     1       2.991   3.680  19.256  0.00  0.00    +0.000 OA
BRANCH  26  27
ATOM     27  C   UNL     1       1.889   3.481  20.188  0.00  0.00    +0.000 C 
ATOM     28  C   UNL     1       1.266   4.816  20.629  0.00  0.00    +0.000 C 
ATOM     29  C   UNL     1       0.829   2.611  19.482  0.00  0.00    +0.000 C 
ATOM     30  C   UNL     1       2.394   2.706  21.410  0.00  0.00    +0.000 C 
ENDBRANCH  26  27
ENDBRANCH  23  26
ENDBRANCH  21  22
BRANCH  21  31
ATOM     31  C   UNL     1       4.445   7.090  16.856  0.00  0.00    +0.000 C 
BRANCH  31  32
ATOM     32  C   UNL     1       5.947   6.951  17.124  0.00  0.00    +0.000 C 
BRANCH  32  34
ATOM     33  C   UNL     1       5.922   5.165  15.015  0.00  0.00    +0.000 C 
ATOM     34  S   UNL     1       6.438   5.232  16.746  0.00  0.00    +0.000 S 
ENDBRANCH  32  34
ENDBRANCH  31  32
ENDBRANCH  21  31
ENDBRANCH   1  21
TORSDOF 11
ENDMDL
MODEL 7
REMARK VINA RESULT:      -6.5      2.542      4.566
REMARK  Name = 
REMARK  15 active torsions:
REMARK  status: ('A' for Active; 'I' for Inactive)
REMARK    1  A    between atoms: C_1  and  S_2
REMARK    2  A    between atoms: S_2  and  C_3
REMARK    3  A    between atoms: C_3  and  C_4
REMARK    4  A    between atoms: C_4  and  C_5
REMARK    5  A    between atoms: C_5  and  N_6
REMARK    6  A    between atoms: C_5  and  C_14
REMARK    7  A    between atoms: C_7  and  O_9
REMARK    8  A    between atoms: O_9  and  C_10
REMARK    9  A    between atoms: C_10  and  C_11
REMARK   10  A    between atoms: C_10  and  C_12
REMARK   11  A    between atoms: C_10  and  C_13
REMARK   12  A    between atoms: N_16  and  C_17
REMARK   13  A    between atoms: C_21  and  O_22
REMARK   14  A    between atoms: O_22  and  C_23
REMARK   15  A    between atoms: C_23  and  C_24
REMARK                            x       y       z     vdW  Elec       q    Type
REMARK                         _______ _______ _______ _____ _____    ______ ____
ROOT
ATOM      1  C   UNL     1       2.379   7.531  18.757  0.00  0.00    +0.000 C 
ATOM      2  O   UNL     1       2.899   8.024  17.771  0.00  0.00    +0.000 OA
ATOM      3  N   UNL     1       1.659   8.281  19.698  0.00  0.00    +0.000 N 
ATOM      4  H   UNL     1       0.960   7.744  20.213  0.00  0.00    +0.000 HD
ENDROOT
BRANCH   3   5
ATOM      5  C   UNL     1       1.493   9.744  19.760  0.00  0.00    +0.000 C 
ATOM      6  C   UNL     1       0.784  10.275  18.532  0.00  0.00    +0.000 C 
ATOM      7  O   UNL     1      -0.605  10.128  18.846  0.00  0.00    +0.000 OA
ATOM      8  C   UNL     1      -0.776  10.364  20.254  0.00  0.00    +0.000 C 
ATOM      9  C   UNL     1      -1.285  11.738  20.713  0.00  0.00    +0.000 C 
ATOM     10  C   UNL     1      -0.310  12.090  21.842  0.00  0.00    +0.000 C 
ATOM     11  O   UNL     1       0.945  11.566  21.363  0.00  0.00    +0.000 OA
ATOM     12  C   UNL     1       0.596  10.250  20.884  0.00  0.00    +0.000 C 
BRANCH   9  13
ATOM     13  O   UNL     1      -1.159  12.743  19.722  0.00  0.00    +0.000 OA
BRANCH  13  14
ATOM     14  C   UNL     1      -1.397  14.046  20.241  0.00  0.00    +0.000 C 
BRANCH  14  15
ATOM     15  C   UNL     1      -0.421  14.981  19.621  0.00  0.00    +0.000 A 
ATOM     16  C   UNL     1      -0.804  16.305  19.342  0.00  0.00    +0.000 A 
ATOM     17  C   UNL     1       0.106  17.161  18.728  0.00  0.00    +0.000 A 
ATOM     18  C   UNL     1       1.371  16.706  18.402  0.00  0.00    +0.000 A 
ATOM     19  C   UNL     1       1.759  15.383  18.694  0.00  0.00    +0.000 A 
ATOM     20  C   UNL     1       0.846  14.526  19.307  0.00  0.00    +0.000 A 
ENDBRANCH  14  15
ENDBRANCH  13  14
ENDBRANCH   9  13
ENDBRANCH   3   5
BRANCH   1  21
ATOM     21  C   UNL     1       2.386   5.976  19.003  0.00  0.00    +0.000 C 
BRANCH  21  22
ATOM     22  N   UNL     1       3.748   5.441  18.839  0.00  0.00    +0.000 N 
ATOM     23  C   UNL     1       3.946   4.566  17.794  0.00  0.00    +0.000 C 
ATOM     24  O   UNL     1       3.067   4.320  16.995  0.00  0.00    +0.000 OA
ATOM     25  H   UNL     1       4.343   5.270  19.638  0.00  0.00    +0.000 HD
BRANCH  23  26
ATOM     26  O   UNL     1       5.202   4.032  17.824  0.00  0.00    +0.000 OA
BRANCH  26  27
ATOM     27  C   UNL     1       6.165   4.595  16.889  0.00  0.00    +0.000 C 
ATOM     28  C   UNL     1       7.594   4.569  17.457  0.00  0.00    +0.000 C 
ATOM     29  C   UNL     1       6.098   3.766  15.589  0.00  0.00    +0.000 C 
ATOM     30  C   UNL     1       5.760   6.033  16.549  0.00  0.00    +0.000 C 
ENDBRANCH  26  27
ENDBRANCH  23  26
ENDBRANCH  21  22
BRANCH  21  31
ATOM     31  C   UNL     1       1.826   5.634  20.396  0.00  0.00    +0.000 C 
BRANCH  31  32
ATOM     32  C   UNL     1       2.546   4.453  21.057  0.00  0.00    +0.000 C 
BRANCH  32  34
ATOM     33  C   UNL     1       1.484   2.416  19.520  0.00  0.00    +0.000 C 
ATOM     34  S   UNL     1       1.361   3.070  21.201  0.00  0.00    +0.000 S 
ENDBRANCH  32  34
ENDBRANCH  31  32
ENDBRANCH  21  31
ENDBRANCH   1  21
TORSDOF 11
ENDMDL
MODEL 8
REMARK VINA RESULT:      -6.5      0.899      1.020
REMARK  Name = 
REMARK  15 active torsions:
REMARK  status: ('A' for Active; 'I' for Inactive)
REMARK    1  A    between atoms: C_1  and  S_2
REMARK    2  A    between atoms: S_2  and  C_3
REMARK    3  A    between atoms: C_3  and  C_4
REMARK    4  A    between atoms: C_4  and  C_5
REMARK    5  A    between atoms: C_5  and  N_6
REMARK    6  A    between atoms: C_5  and  C_14
REMARK    7  A    between atoms: C_7  and  O_9
REMARK    8  A    between atoms: O_9  and  C_10
REMARK    9  A    between atoms: C_10  and  C_11
REMARK   10  A    between atoms: C_10  and  C_12
REMARK   11  A    between atoms: C_10  and  C_13
REMARK   12  A    between atoms: N_16  and  C_17
REMARK   13  A    between atoms: C_21  and  O_22
REMARK   14  A    between atoms: O_22  and  C_23
REMARK   15  A    between atoms: C_23  and  C_24
REMARK                            x       y       z     vdW  Elec       q    Type
REMARK                         _______ _______ _______ _____ _____    ______ ____
ROOT
ATOM      1  C   UNL     1       2.248   8.591  18.117  0.00  0.00    +0.000 C 
ATOM      2  O   UNL     1       2.274   9.214  17.070  0.00  0.00    +0.000 OA
ATOM      3  N   UNL     1       1.371   8.896  19.168  0.00  0.00    +0.000 N 
ATOM      4  H   UNL     1       1.156   8.105  19.776  0.00  0.00    +0.000 HD
ENDROOT
BRANCH   3   5
ATOM      5  C   UNL     1       0.443  10.036  19.275  0.00  0.00    +0.000 C 
ATOM      6  C   UNL     1      -0.192  10.108  20.648  0.00  0.00    +0.000 C 
ATOM      7  O   UNL     1       0.758  10.839  21.429  0.00  0.00    +0.000 OA
ATOM      8  C   UNL     1       1.375  11.825  20.582  0.00  0.00    +0.000 C 
ATOM      9  C   UNL     1       0.877  13.275  20.660  0.00  0.00    +0.000 C 
ATOM     10  C   UNL     1       0.703  13.643  19.182  0.00  0.00    +0.000 C 
ATOM     11  O   UNL     1       0.215  12.419  18.598  0.00  0.00    +0.000 OA
ATOM     12  C   UNL     1       1.087  11.413  19.155  0.00  0.00    +0.000 C 
BRANCH   9  13
ATOM     13  O   UNL     1      -0.393  13.402  21.276  0.00  0.00    +0.000 OA
BRANCH  13  14
ATOM     14  C   UNL     1      -0.311  14.005  22.562  0.00  0.00    +0.000 C 
BRANCH  14  15
ATOM     15  C   UNL     1      -1.585  13.744  23.283  0.00  0.00    +0.000 A 
ATOM     16  C   UNL     1      -2.083  14.698  24.188  0.00  0.00    +0.000 A 
ATOM     17  C   UNL     1      -3.257  14.426  24.884  0.00  0.00    +0.000 A 
ATOM     18  C   UNL     1      -3.921  13.230  24.679  0.00  0.00    +0.000 A 
ATOM     19  C   UNL     1      -3.430  12.281  23.762  0.00  0.00    +0.000 A 
ATOM     20  C   UNL     1      -2.252  12.553  23.066  0.00  0.00    +0.000 A 
ENDBRANCH  14  15
ENDBRANCH  13  14
ENDBRANCH   9  13
ENDBRANCH   3   5
BRANCH   1  21
ATOM     21  C   UNL     1       3.136   7.310  18.338  0.00  0.00    +0.000 C 
BRANCH  21  22
ATOM     22  N   UNL     1       2.293   6.167  18.728  0.00  0.00    +0.000 N 
ATOM     23  C   UNL     1       2.896   5.181  19.476  0.00  0.00    +0.000 C 
ATOM     24  O   UNL     1       4.038   5.291  19.871  0.00  0.00    +0.000 OA
ATOM     25  H   UNL     1       1.552   5.833  18.127  0.00  0.00    +0.000 HD
BRANCH  23  26
ATOM     26  O   UNL     1       2.063   4.115  19.660  0.00  0.00    +0.000 OA
BRANCH  26  27
ATOM     27  C   UNL     1       2.255   2.983  18.764  0.00  0.00    +0.000 C 
ATOM     28  C   UNL     1       3.435   2.101  19.204  0.00  0.00    +0.000 C 
ATOM     29  C   UNL     1       0.951   2.159  18.762  0.00  0.00    +0.000 C 
ATOM     30  C   UNL     1       2.485   3.499  17.339  0.00  0.00    +0.000 C 
ENDBRANCH  26  27
ENDBRANCH  23  26
ENDBRANCH  21  22
BRANCH  21  31
ATOM     31  C   UNL     1       3.956   6.980  17.077  0.00  0.00    +0.000 C 
BRANCH  31  32
ATOM     32  C   UNL     1       5.448   6.784  17.367  0.00  0.00    +0.000 C 
BRANCH  32  34
ATOM     33  C   UNL     1       7.356   4.822  17.752  0.00  0.00    +0.000 C 
ATOM     34  S   UNL     1       5.961   5.179  16.660  0.00  0.00    +0.000 S 
ENDBRANCH  32  34
ENDBRANCH  31  32
ENDBRANCH  21  31
ENDBRANCH   1  21
TORSDOF 11
ENDMDL
MODEL 9
REMARK VINA RESULT:      -6.5      2.641      4.213
REMARK  Name = 
REMARK  15 active torsions:
REMARK  status: ('A' for Active; 'I' for Inactive)
REMARK    1  A    between atoms: C_1  and  S_2
REMARK    2  A    between atoms: S_2  and  C_3
REMARK    3  A    between atoms: C_3  and  C_4
REMARK    4  A    between atoms: C_4  and  C_5
REMARK    5  A    between atoms: C_5  and  N_6
REMARK    6  A    between atoms: C_5  and  C_14
REMARK    7  A    between atoms: C_7  and  O_9
REMARK    8  A    between atoms: O_9  and  C_10
REMARK    9  A    between atoms: C_10  and  C_11
REMARK   10  A    between atoms: C_10  and  C_12
REMARK   11  A    between atoms: C_10  and  C_13
REMARK   12  A    between atoms: N_16  and  C_17
REMARK   13  A    between atoms: C_21  and  O_22
REMARK   14  A    between atoms: O_22  and  C_23
REMARK   15  A    between atoms: C_23  and  C_24
REMARK                            x       y       z     vdW  Elec       q    Type
REMARK                         _______ _______ _______ _____ _____    ______ ____
ROOT
ATOM      1  C   UNL     1       2.317   7.959  18.343  0.00  0.00    +0.000 C 
ATOM      2  O   UNL     1       2.634   8.426  17.263  0.00  0.00    +0.000 OA
ATOM      3  N   UNL     1       1.575   8.669  19.297  0.00  0.00    +0.000 N 
ATOM      4  H   UNL     1       1.041   8.078  19.936  0.00  0.00    +0.000 HD
ENDROOT
BRANCH   3   5
ATOM      5  C   UNL     1       1.153  10.081  19.253  0.00  0.00    +0.000 C 
ATOM      6  C   UNL     1      -0.127  10.254  18.463  0.00  0.00    +0.000 C 
ATOM      7  O   UNL     1      -1.160  10.000  19.420  0.00  0.00    +0.000 OA
ATOM      8  C   UNL     1      -0.723  10.497  20.698  0.00  0.00    +0.000 C 
ATOM      9  C   UNL     1      -1.244  11.860  21.174  0.00  0.00    +0.000 C 
ATOM     10  C   UNL     1       0.037  12.557  21.644  0.00  0.00    +0.000 C 
ATOM     11  O   UNL     1       1.020  12.109  20.688  0.00  0.00    +0.000 OA
ATOM     12  C   UNL     1       0.775  10.689  20.600  0.00  0.00    +0.000 C 
BRANCH   9  13
ATOM     13  O   UNL     1      -1.792  12.648  20.131  0.00  0.00    +0.000 OA
BRANCH  13  14
ATOM     14  C   UNL     1      -2.708  13.623  20.615  0.00  0.00    +0.000 C 
BRANCH  14  15
ATOM     15  C   UNL     1      -4.067  13.020  20.629  0.00  0.00    +0.000 A 
ATOM     16  C   UNL     1      -4.549  12.359  19.485  0.00  0.00    +0.000 A 
ATOM     17  C   UNL     1      -5.837  11.830  19.498  0.00  0.00    +0.000 A 
ATOM     18  C   UNL     1      -6.624  11.955  20.628  0.00  0.00    +0.000 A 
ATOM     19  C   UNL     1      -6.137  12.605  21.778  0.00  0.00    +0.000 A 
ATOM     20  C   UNL     1      -4.847  13.137  21.765  0.00  0.00    +0.000 A 
ENDBRANCH  14  15
ENDBRANCH  13  14
ENDBRANCH   9  13
ENDBRANCH   3   5
BRANCH   1  21
ATOM     21  C   UNL     1       2.631   6.462  18.719  0.00  0.00    +0.000 C 
BRANCH  21  22
ATOM     22  N   UNL     1       4.022   6.130  18.366  0.00  0.00    +0.000 N 
ATOM     23  C   UNL     1       4.210   5.013  17.583  0.00  0.00    +0.000 C 
ATOM     24  O   UNL     1       3.275   4.388  17.130  0.00  0.00    +0.000 OA
ATOM     25  H   UNL     1       4.783   6.320  19.003  0.00  0.00    +0.000 HD
BRANCH  23  26
ATOM     26  O   UNL     1       5.537   4.727  17.436  0.00  0.00    +0.000 OA
BRANCH  26  27
ATOM     27  C   UNL     1       6.251   5.480  16.414  0.00  0.00    +0.000 C 
ATOM     28  C   UNL     1       5.296   6.328  15.559  0.00  0.00    +0.000 C 
ATOM     29  C   UNL     1       7.270   6.391  17.129  0.00  0.00    +0.000 C 
ATOM     30  C   UNL     1       7.034   4.508  15.524  0.00  0.00    +0.000 C 
ENDBRANCH  26  27
ENDBRANCH  23  26
ENDBRANCH  21  22
BRANCH  21  31
ATOM     31  C   UNL     1       2.366   6.199  20.213  0.00  0.00    +0.000 C 
BRANCH  31  32
ATOM     32  C   UNL     1       1.165   5.278  20.455  0.00  0.00    +0.000 C 
BRANCH  32  34
ATOM     33  C   UNL     1       2.137   3.012  21.703  0.00  0.00    +0.000 C 
ATOM     34  S   UNL     1       1.667   3.568  20.050  0.00  0.00    +0.000 S 
ENDBRANCH  32  34
ENDBRANCH  31  32
ENDBRANCH  21  31
ENDBRANCH   1  21
TORSDOF 11
ENDMDL
