MODEL 1
REMARK VINA RESULT:      -7.9      0.000      0.000
REMARK  Name = 
REMARK  4 active torsions:
REMARK  status: ('A' for Active; 'I' for Inactive)
REMARK    1  A    between atoms: C_1  and  C_2
REMARK    2  A    between atoms: C_2  and  O_3
REMARK    3  A    between atoms: C_2  and  C_10
REMARK    4  A    between atoms: O_3  and  C_4
REMARK                            x       y       z     vdW  Elec       q    Type
REMARK                         _______ _______ _______ _____ _____    ______ ____
ROOT
ATOM      1  C   UNL     1      -2.053  11.635  19.973  0.00  0.00    +0.000 C 
ATOM      2  O   UNL     1      -2.892  11.957  19.127  0.00  0.00    +0.000 OA
ATOM      3  N   UNL     1      -1.032  10.744  19.666  0.00  0.00    +0.000 N 
ATOM      4  C   UNL     1      -0.877  10.278  18.273  0.00  0.00    +0.000 C 
ATOM      5  C   UNL     1       0.615  10.129  17.886  0.00  0.00    +0.000 C 
ATOM      6  N   UNL     1       1.260   9.295  18.901  0.00  0.00    +0.000 N 
ATOM      7  C   UNL     1       2.204   8.360  18.549  0.00  0.00    +0.000 A 
ATOM      8  C   UNL     1       2.408   7.258  19.358  0.00  0.00    +0.000 A 
ATOM      9  C   UNL     1       3.315   6.269  18.993  0.00  0.00    +0.000 A 
ATOM     10  C   UNL     1       4.035   6.375  17.815  0.00  0.00    +0.000 A 
ATOM     11  N   UNL     1       4.947   5.413  17.445  0.00  0.00    +0.000 N 
ATOM     12  C   UNL     1       5.659   4.567  18.403  0.00  0.00    +0.000 C 
ATOM     13  C   UNL     1       7.172   4.650  18.150  0.00  0.00    +0.000 C 
ATOM     14  O   UNL     1       7.497   4.344  16.787  0.00  0.00    +0.000 OA
ATOM     15  C   UNL     1       6.861   5.286  15.904  0.00  0.00    +0.000 C 
ATOM     16  C   UNL     1       5.333   5.248  16.041  0.00  0.00    +0.000 C 
ATOM     17  N   UNL     1       3.798   7.443  17.026  0.00  0.00    +0.000 NA
ATOM     18  N   UNL     1       2.879   8.432  17.389  0.00  0.00    +0.000 NA
ATOM     19  C   UNL     1       1.194   9.816  20.267  0.00  0.00    +0.000 C 
ATOM     20  C   UNL     1      -0.281   9.963  20.660  0.00  0.00    +0.000 C 
ENDROOT
BRANCH   1  22
ATOM     21  C   UNL     1      -0.655  13.083  21.499  0.00  0.00    +0.000 C 
ATOM     22  C   UNL     1      -1.981  12.337  21.353  0.00  0.00    +0.000 C 
BRANCH  22  23
ATOM     23  O   UNL     1      -3.051  13.264  21.545  0.00  0.00    +0.000 OA
BRANCH  23  24
ATOM     24  C   UNL     1      -3.962  12.999  22.535  0.00  0.00    +0.000 A 
ATOM     25  C   UNL     1      -5.301  13.119  22.155  0.00  0.00    +0.000 A 
ATOM     26  C   UNL     1      -6.325  12.875  23.074  0.00  0.00    +0.000 A 
ATOM     27  C   UNL     1      -6.017  12.491  24.374  0.00  0.00    +0.000 A 
ATOM     28  C   UNL     1      -4.684  12.334  24.752  0.00  0.00    +0.000 A 
ATOM     29  C   UNL     1      -3.660  12.583  23.832  0.00  0.00    +0.000 A 
ENDBRANCH  23  24
ENDBRANCH  22  23
ENDBRANCH   1  22
TORSDOF 3
ENDMDL
MODEL 2
REMARK VINA RESULT:      -7.7      2.321     11.515
REMARK  Name = 
REMARK  4 active torsions:
REMARK  status: ('A' for Active; 'I' for Inactive)
REMARK    1  A    between atoms: C_1  and  C_2
REMARK    2  A    between atoms: C_2  and  O_3
REMARK    3  A    between atoms: C_2  and  C_10
REMARK    4  A    between atoms: O_3  and  C_4
REMARK                            x       y       z     vdW  Elec       q    Type
REMARK                         _______ _______ _______ _____ _____    ______ ____
ROOT
ATOM      1  C   UNL     1       4.358   4.230  17.176  0.00  0.00    +0.000 C 
ATOM      2  O   UNL     1       3.980   3.087  17.448  0.00  0.00    +0.000 OA
ATOM      3  N   UNL     1       3.665   5.343  17.637  0.00  0.00    +0.000 N 
ATOM      4  C   UNL     1       2.537   5.154  18.570  0.00  0.00    +0.000 C 
ATOM      5  C   UNL     1       2.486   6.276  19.636  0.00  0.00    +0.000 C 
ATOM      6  N   UNL     1       2.511   7.561  18.935  0.00  0.00    +0.000 N 
ATOM      7  C   UNL     1       1.743   8.615  19.369  0.00  0.00    +0.000 A 
ATOM      8  C   UNL     1       1.351   9.589  18.470  0.00  0.00    +0.000 A 
ATOM      9  C   UNL     1       0.525  10.633  18.872  0.00  0.00    +0.000 A 
ATOM     10  C   UNL     1       0.085  10.718  20.182  0.00  0.00    +0.000 A 
ATOM     11  N   UNL     1      -0.721  11.752  20.600  0.00  0.00    +0.000 N 
ATOM     12  C   UNL     1      -0.725  13.075  19.974  0.00  0.00    +0.000 C 
ATOM     13  C   UNL     1      -0.509  14.158  21.042  0.00  0.00    +0.000 C 
ATOM     14  O   UNL     1      -1.460  14.044  22.110  0.00  0.00    +0.000 OA
ATOM     15  C   UNL     1      -1.322  12.767  22.759  0.00  0.00    +0.000 C 
ATOM     16  C   UNL     1      -1.569  11.607  21.786  0.00  0.00    +0.000 C 
ATOM     17  N   UNL     1       0.455   9.741  21.034  0.00  0.00    +0.000 NA
ATOM     18  N   UNL     1       1.277   8.686  20.628  0.00  0.00    +0.000 NA
ATOM     19  C   UNL     1       3.686   7.786  18.092  0.00  0.00    +0.000 C 
ATOM     20  C   UNL     1       3.742   6.681  17.031  0.00  0.00    +0.000 C 
ENDROOT
BRANCH   1  22
ATOM     21  C   UNL     1       6.852   4.483  17.489  0.00  0.00    +0.000 C 
ATOM     22  C   UNL     1       5.713   4.490  16.469  0.00  0.00    +0.000 C 
BRANCH  22  23
ATOM     23  O   UNL     1       5.994   3.515  15.463  0.00  0.00    +0.000 OA
BRANCH  23  24
ATOM     24  C   UNL     1       6.502   3.952  14.267  0.00  0.00    +0.000 A 
ATOM     25  C   UNL     1       6.015   3.287  13.139  0.00  0.00    +0.000 A 
ATOM     26  C   UNL     1       6.456   3.641  11.861  0.00  0.00    +0.000 A 
ATOM     27  C   UNL     1       7.372   4.674  11.700  0.00  0.00    +0.000 A 
ATOM     28  C   UNL     1       7.836   5.366  12.819  0.00  0.00    +0.000 A 
ATOM     29  C   UNL     1       7.398   5.008  14.098  0.00  0.00    +0.000 A 
ENDBRANCH  23  24
ENDBRANCH  22  23
ENDBRANCH   1  22
TORSDOF 3
ENDMDL
MODEL 3
REMARK VINA RESULT:      -7.6      3.143     10.655
REMARK  Name = 
REMARK  4 active torsions:
REMARK  status: ('A' for Active; 'I' for Inactive)
REMARK    1  A    between atoms: C_1  and  C_2
REMARK    2  A    between atoms: C_2  and  O_3
REMARK    3  A    between atoms: C_2  and  C_10
REMARK    4  A    between atoms: O_3  and  C_4
REMARK                            x       y       z     vdW  Elec       q    Type
REMARK                         _______ _______ _______ _____ _____    ______ ____
ROOT
ATOM      1  C   UNL     1       2.458   3.242  19.238  0.00  0.00    +0.000 C 
ATOM      2  O   UNL     1       1.837   2.396  19.888  0.00  0.00    +0.000 OA
ATOM      3  N   UNL     1       2.170   4.595  19.363  0.00  0.00    +0.000 N 
ATOM      4  C   UNL     1       1.195   5.034  20.382  0.00  0.00    +0.000 C 
ATOM      5  C   UNL     1       1.615   6.375  21.032  0.00  0.00    +0.000 C 
ATOM      6  N   UNL     1       1.871   7.333  19.956  0.00  0.00    +0.000 N 
ATOM      7  C   UNL     1       1.491   8.648  20.080  0.00  0.00    +0.000 A 
ATOM      8  C   UNL     1       1.235   9.394  18.944  0.00  0.00    +0.000 A 
ATOM      9  C   UNL     1       0.793  10.708  19.045  0.00  0.00    +0.000 A 
ATOM     10  C   UNL     1       0.605  11.295  20.285  0.00  0.00    +0.000 A 
ATOM     11  N   UNL     1       0.181  12.599  20.403  0.00  0.00    +0.000 N 
ATOM     12  C   UNL     1       0.431  13.622  19.387  0.00  0.00    +0.000 C 
ATOM     13  C   UNL     1       1.095  14.848  20.033  0.00  0.00    +0.000 C 
ATOM     14  O   UNL     1       0.330  15.340  21.143  0.00  0.00    +0.000 OA
ATOM     15  C   UNL     1       0.224  14.324  22.157  0.00  0.00    +0.000 C 
ATOM     16  C   UNL     1      -0.475  13.065  21.627  0.00  0.00    +0.000 C 
ATOM     17  N   UNL     1       0.831  10.540  21.378  0.00  0.00    +0.000 NA
ATOM     18  N   UNL     1       1.267   9.215  21.278  0.00  0.00    +0.000 NA
ATOM     19  C   UNL     1       2.913   6.940  19.008  0.00  0.00    +0.000 C 
ATOM     20  C   UNL     1       2.503   5.614  18.356  0.00  0.00    +0.000 C 
ENDROOT
BRANCH   1  22
ATOM     21  C   UNL     1       3.800   1.346  18.244  0.00  0.00    +0.000 C 
ATOM     22  C   UNL     1       3.703   2.864  18.396  0.00  0.00    +0.000 C 
BRANCH  22  23
ATOM     23  O   UNL     1       3.675   3.453  17.094  0.00  0.00    +0.000 OA
BRANCH  23  24
ATOM     24  C   UNL     1       4.851   3.936  16.581  0.00  0.00    +0.000 A 
ATOM     25  C   UNL     1       5.814   4.283  17.532  0.00  0.00    +0.000 A 
ATOM     26  C   UNL     1       7.056   4.786  17.136  0.00  0.00    +0.000 A 
ATOM     27  C   UNL     1       7.350   4.930  15.785  0.00  0.00    +0.000 A 
ATOM     28  C   UNL     1       6.408   4.553  14.828  0.00  0.00    +0.000 A 
ATOM     29  C   UNL     1       5.164   4.054  15.226  0.00  0.00    +0.000 A 
ENDBRANCH  23  24
ENDBRANCH  22  23
ENDBRANCH   1  22
TORSDOF 3
ENDMDL
MODEL 4
REMARK VINA RESULT:      -7.5      2.124     11.460
REMARK  Name = 
REMARK  4 active torsions:
REMARK  status: ('A' for Active; 'I' for Inactive)
REMARK    1  A    between atoms: C_1  and  C_2
REMARK    2  A    between atoms: C_2  and  O_3
REMARK    3  A    between atoms: C_2  and  C_10
REMARK    4  A    between atoms: O_3  and  C_4
REMARK                            x       y       z     vdW  Elec       q    Type
REMARK                         _______ _______ _______ _____ _____    ______ ____
ROOT
ATOM      1  C   UNL     1       4.073   5.102  17.393  0.00  0.00    +0.000 C 
ATOM      2  O   UNL     1       3.974   3.955  17.839  0.00  0.00    +0.000 OA
ATOM      3  N   UNL     1       3.276   6.131  17.878  0.00  0.00    +0.000 N 
ATOM      4  C   UNL     1       2.390   5.875  19.031  0.00  0.00    +0.000 C 
ATOM      5  C   UNL     1       2.319   7.098  19.977  0.00  0.00    +0.000 C 
ATOM      6  N   UNL     1       1.975   8.269  19.171  0.00  0.00    +0.000 N 
ATOM      7  C   UNL     1       1.111   9.225  19.651  0.00  0.00    +0.000 A 
ATOM      8  C   UNL     1       0.387   9.998  18.762  0.00  0.00    +0.000 A 
ATOM      9  C   UNL     1      -0.536  10.930  19.223  0.00  0.00    +0.000 A 
ATOM     10  C   UNL     1      -0.742  11.104  20.581  0.00  0.00    +0.000 A 
ATOM     11  N   UNL     1      -1.641  12.032  21.054  0.00  0.00    +0.000 N 
ATOM     12  C   UNL     1      -2.008  13.245  20.323  0.00  0.00    +0.000 C 
ATOM     13  C   UNL     1      -1.814  14.476  21.222  0.00  0.00    +0.000 C 
ATOM     14  O   UNL     1      -2.518  14.340  22.464  0.00  0.00    +0.000 OA
ATOM     15  C   UNL     1      -2.026  13.197  23.187  0.00  0.00    +0.000 C 
ATOM     16  C   UNL     1      -2.219  11.898  22.394  0.00  0.00    +0.000 C 
ATOM     17  N   UNL     1      -0.047  10.319  21.428  0.00  0.00    +0.000 NA
ATOM     18  N   UNL     1       0.874   9.375  20.965  0.00  0.00    +0.000 NA
ATOM     19  C   UNL     1       2.914   8.581  18.094  0.00  0.00    +0.000 C 
ATOM     20  C   UNL     1       2.987   7.376  17.148  0.00  0.00    +0.000 C 
ENDROOT
BRANCH   1  22
ATOM     21  C   UNL     1       6.189   6.448  17.087  0.00  0.00    +0.000 C 
ATOM     22  C   UNL     1       5.206   5.494  16.409  0.00  0.00    +0.000 C 
BRANCH  22  23
ATOM     23  O   UNL     1       5.926   4.356  15.932  0.00  0.00    +0.000 OA
BRANCH  23  24
ATOM     24  C   UNL     1       6.366   4.371  14.633  0.00  0.00    +0.000 A 
ATOM     25  C   UNL     1       5.646   3.556  13.756  0.00  0.00    +0.000 A 
ATOM     26  C   UNL     1       5.995   3.484  12.405  0.00  0.00    +0.000 A 
ATOM     27  C   UNL     1       7.054   4.240  11.918  0.00  0.00    +0.000 A 
ATOM     28  C   UNL     1       7.755   5.083  12.779  0.00  0.00    +0.000 A 
ATOM     29  C   UNL     1       7.408   5.151  14.132  0.00  0.00    +0.000 A 
ENDBRANCH  23  24
ENDBRANCH  22  23
ENDBRANCH   1  22
TORSDOF 3
ENDMDL
MODEL 5
REMARK VINA RESULT:      -7.5      2.744     10.422
REMARK  Name = 
REMARK  4 active torsions:
REMARK  status: ('A' for Active; 'I' for Inactive)
REMARK    1  A    between atoms: C_1  and  C_2
REMARK    2  A    between atoms: C_2  and  O_3
REMARK    3  A    between atoms: C_2  and  C_10
REMARK    4  A    between atoms: O_3  and  C_4
REMARK                            x       y       z     vdW  Elec       q    Type
REMARK                         _______ _______ _______ _____ _____    ______ ____
ROOT
ATOM      1  C   UNL     1       2.838   4.365  19.207  0.00  0.00    +0.000 C 
ATOM      2  O   UNL     1       2.645   3.445  20.006  0.00  0.00    +0.000 OA
ATOM      3  N   UNL     1       2.305   5.630  19.426  0.00  0.00    +0.000 N 
ATOM      4  C   UNL     1       1.605   5.907  20.696  0.00  0.00    +0.000 C 
ATOM      5  C   UNL     1       1.889   7.343  21.200  0.00  0.00    +0.000 C 
ATOM      6  N   UNL     1       1.592   8.269  20.107  0.00  0.00    +0.000 N 
ATOM      7  C   UNL     1       0.982   9.476  20.352  0.00  0.00    +0.000 A 
ATOM      8  C   UNL     1       0.240  10.081  19.354  0.00  0.00    +0.000 A 
ATOM      9  C   UNL     1      -0.435  11.272  19.597  0.00  0.00    +0.000 A 
ATOM     10  C   UNL     1      -0.370  11.876  20.840  0.00  0.00    +0.000 A 
ATOM     11  N   UNL     1      -1.021  13.063  21.093  0.00  0.00    +0.000 N 
ATOM     12  C   UNL     1      -1.320  14.054  20.059  0.00  0.00    +0.000 C 
ATOM     13  C   UNL     1      -0.786  15.430  20.485  0.00  0.00    +0.000 C 
ATOM     14  O   UNL     1      -1.275  15.810  21.779  0.00  0.00    +0.000 OA
ATOM     15  C   UNL     1      -0.845  14.857  22.768  0.00  0.00    +0.000 C 
ATOM     16  C   UNL     1      -1.370  13.447  22.463  0.00  0.00    +0.000 C 
ATOM     17  N   UNL     1       0.333  11.254  21.807  0.00  0.00    +0.000 NA
ATOM     18  N   UNL     1       1.004  10.051  21.567  0.00  0.00    +0.000 NA
ATOM     19  C   UNL     1       2.366   8.054  18.883  0.00  0.00    +0.000 C 
ATOM     20  C   UNL     1       2.087   6.635  18.374  0.00  0.00    +0.000 C 
ENDROOT
BRANCH   1  22
ATOM     21  C   UNL     1       3.150   3.507  16.851  0.00  0.00    +0.000 C 
ATOM     22  C   UNL     1       3.828   4.216  18.023  0.00  0.00    +0.000 C 
BRANCH  22  23
ATOM     23  O   UNL     1       4.324   5.477  17.570  0.00  0.00    +0.000 OA
BRANCH  23  24
ATOM     24  C   UNL     1       5.584   5.852  17.961  0.00  0.00    +0.000 A 
ATOM     25  C   UNL     1       6.141   6.905  17.232  0.00  0.00    +0.000 A 
ATOM     26  C   UNL     1       7.420   7.379  17.534  0.00  0.00    +0.000 A 
ATOM     27  C   UNL     1       8.144   6.817  18.579  0.00  0.00    +0.000 A 
ATOM     28  C   UNL     1       7.580   5.789  19.335  0.00  0.00    +0.000 A 
ATOM     29  C   UNL     1       6.302   5.311  19.028  0.00  0.00    +0.000 A 
ENDBRANCH  23  24
ENDBRANCH  22  23
ENDBRANCH   1  22
TORSDOF 3
ENDMDL
MODEL 6
REMARK VINA RESULT:      -7.4      1.168      1.315
REMARK  Name = 
REMARK  4 active torsions:
REMARK  status: ('A' for Active; 'I' for Inactive)
REMARK    1  A    between atoms: C_1  and  C_2
REMARK    2  A    between atoms: C_2  and  O_3
REMARK    3  A    between atoms: C_2  and  C_10
REMARK    4  A    between atoms: O_3  and  C_4
REMARK                            x       y       z     vdW  Elec       q    Type
REMARK                         _______ _______ _______ _____ _____    ______ ____
ROOT
ATOM      1  C   UNL     1      -2.359  12.681  20.915  0.00  0.00    +0.000 C 
ATOM      2  O   UNL     1      -3.214  13.038  20.101  0.00  0.00    +0.000 OA
ATOM      3  N   UNL     1      -1.439  11.688  20.600  0.00  0.00    +0.000 N 
ATOM      4  C   UNL     1      -1.407  11.145  19.226  0.00  0.00    +0.000 C 
ATOM      5  C   UNL     1       0.041  10.844  18.768  0.00  0.00    +0.000 C 
ATOM      6  N   UNL     1       0.669  10.004  19.788  0.00  0.00    +0.000 N 
ATOM      7  C   UNL     1       1.505   8.972  19.433  0.00  0.00    +0.000 A 
ATOM      8  C   UNL     1       1.658   7.895  20.286  0.00  0.00    +0.000 A 
ATOM      9  C   UNL     1       2.452   6.812  19.924  0.00  0.00    +0.000 A 
ATOM     10  C   UNL     1       3.108   6.798  18.705  0.00  0.00    +0.000 A 
ATOM     11  N   UNL     1       3.909   5.741  18.336  0.00  0.00    +0.000 N 
ATOM     12  C   UNL     1       4.599   4.879  19.297  0.00  0.00    +0.000 C 
ATOM     13  C   UNL     1       6.096   4.814  18.958  0.00  0.00    +0.000 C 
ATOM     14  O   UNL     1       6.314   4.416  17.597  0.00  0.00    +0.000 OA
ATOM     15  C   UNL     1       5.712   5.370  16.703  0.00  0.00    +0.000 C 
ATOM     16  C   UNL     1       4.197   5.477  16.924  0.00  0.00    +0.000 C 
ATOM     17  N   UNL     1       2.920   7.845  17.876  0.00  0.00    +0.000 NA
ATOM     18  N   UNL     1       2.114   8.929  18.236  0.00  0.00    +0.000 NA
ATOM     19  C   UNL     1       0.728  10.591  21.127  0.00  0.00    +0.000 C 
ATOM     20  C   UNL     1      -0.702  10.889  21.591  0.00  0.00    +0.000 C 
ENDROOT
BRANCH   1  22
ATOM     21  C   UNL     1      -0.840  14.233  22.207  0.00  0.00    +0.000 C 
ATOM     22  C   UNL     1      -2.144  13.437  22.252  0.00  0.00    +0.000 C 
BRANCH  22  23
ATOM     23  O   UNL     1      -3.218  14.333  22.544  0.00  0.00    +0.000 OA
BRANCH  23  24
ATOM     24  C   UNL     1      -4.342  13.819  23.137  0.00  0.00    +0.000 A 
ATOM     25  C   UNL     1      -5.547  14.390  22.718  0.00  0.00    +0.000 A 
ATOM     26  C   UNL     1      -6.763  13.952  23.247  0.00  0.00    +0.000 A 
ATOM     27  C   UNL     1      -6.786  12.928  24.186  0.00  0.00    +0.000 A 
ATOM     28  C   UNL     1      -5.591  12.328  24.584  0.00  0.00    +0.000 A 
ATOM     29  C   UNL     1      -4.374  12.771  24.057  0.00  0.00    +0.000 A 
ENDBRANCH  23  24
ENDBRANCH  22  23
ENDBRANCH   1  22
TORSDOF 3
ENDMDL
MODEL 7
REMARK VINA RESULT:      -7.3      2.907     10.314
REMARK  Name = 
REMARK  4 active torsions:
REMARK  status: ('A' for Active; 'I' for Inactive)
REMARK    1  A    between atoms: C_1  and  C_2
REMARK    2  A    between atoms: C_2  and  O_3
REMARK    3  A    between atoms: C_2  and  C_10
REMARK    4  A    between atoms: O_3  and  C_4
REMARK                            x       y       z     vdW  Elec       q    Type
REMARK                         _______ _______ _______ _____ _____    ______ ____
ROOT
ATOM      1  C   UNL     1       2.809   3.808  19.481  0.00  0.00    +0.000 C 
ATOM      2  O   UNL     1       2.396   2.998  20.314  0.00  0.00    +0.000 OA
ATOM      3  N   UNL     1       2.345   5.118  19.463  0.00  0.00    +0.000 N 
ATOM      4  C   UNL     1       1.442   5.577  20.538  0.00  0.00    +0.000 C 
ATOM      5  C   UNL     1       1.737   7.042  20.942  0.00  0.00    +0.000 C 
ATOM      6  N   UNL     1       1.726   7.854  19.725  0.00  0.00    +0.000 N 
ATOM      7  C   UNL     1       1.177   9.114  19.724  0.00  0.00    +0.000 A 
ATOM      8  C   UNL     1       0.687   9.644  18.545  0.00  0.00    +0.000 A 
ATOM      9  C   UNL     1       0.074  10.892  18.530  0.00  0.00    +0.000 A 
ATOM     10  C   UNL     1      -0.051  11.629  19.695  0.00  0.00    +0.000 A 
ATOM     11  N   UNL     1      -0.642  12.872  19.696  0.00  0.00    +0.000 N 
ATOM     12  C   UNL     1      -0.661  13.755  18.530  0.00  0.00    +0.000 C 
ATOM     13  C   UNL     1      -0.111  15.138  18.913  0.00  0.00    +0.000 C 
ATOM     14  O   UNL     1      -0.804  15.689  20.041  0.00  0.00    +0.000 OA
ATOM     15  C   UNL     1      -0.644  14.830  21.186  0.00  0.00    +0.000 C 
ATOM     16  C   UNL     1      -1.211  13.428  20.926  0.00  0.00    +0.000 C 
ATOM     17  N   UNL     1       0.407  11.080  20.838  0.00  0.00    +0.000 NA
ATOM     18  N   UNL     1       1.014   9.821  20.855  0.00  0.00    +0.000 NA
ATOM     19  C   UNL     1       2.697   7.458  18.704  0.00  0.00    +0.000 C 
ATOM     20  C   UNL     1       2.409   6.009  18.295  0.00  0.00    +0.000 C 
ENDROOT
BRANCH   1  22
ATOM     21  C   UNL     1       3.614   2.309  17.612  0.00  0.00    +0.000 C 
ATOM     22  C   UNL     1       3.990   3.469  18.535  0.00  0.00    +0.000 C 
BRANCH  22  23
ATOM     23  O   UNL     1       4.377   4.586  17.732  0.00  0.00    +0.000 OA
BRANCH  23  24
ATOM     24  C   UNL     1       5.562   5.210  18.027  0.00  0.00    +0.000 A 
ATOM     25  C   UNL     1       5.988   6.147  17.082  0.00  0.00    +0.000 A 
ATOM     26  C   UNL     1       7.181   6.851  17.267  0.00  0.00    +0.000 A 
ATOM     27  C   UNL     1       7.946   6.637  18.408  0.00  0.00    +0.000 A 
ATOM     28  C   UNL     1       7.510   5.729  19.373  0.00  0.00    +0.000 A 
ATOM     29  C   UNL     1       6.318   5.022  19.183  0.00  0.00    +0.000 A 
ENDBRANCH  23  24
ENDBRANCH  22  23
ENDBRANCH   1  22
TORSDOF 3
ENDMDL
MODEL 8
REMARK VINA RESULT:      -7.3      3.389      5.132
REMARK  Name = 
REMARK  4 active torsions:
REMARK  status: ('A' for Active; 'I' for Inactive)
REMARK    1  A    between atoms: C_1  and  C_2
REMARK    2  A    between atoms: C_2  and  O_3
REMARK    3  A    between atoms: C_2  and  C_10
REMARK    4  A    between atoms: O_3  and  C_4
REMARK                            x       y       z     vdW  Elec       q    Type
REMARK                         _______ _______ _______ _____ _____    ______ ____
ROOT
ATOM      1  C   UNL     1       0.387  13.207  20.817  0.00  0.00    +0.000 C 
ATOM      2  O   UNL     1       0.629  13.683  21.929  0.00  0.00    +0.000 OA
ATOM      3  N   UNL     1       0.794  11.922  20.482  0.00  0.00    +0.000 N 
ATOM      4  C   UNL     1       1.414  11.070  21.517  0.00  0.00    +0.000 C 
ATOM      5  C   UNL     1       0.982   9.591  21.369  0.00  0.00    +0.000 C 
ATOM      6  N   UNL     1       1.240   9.185  19.987  0.00  0.00    +0.000 N 
ATOM      7  C   UNL     1       1.728   7.932  19.701  0.00  0.00    +0.000 A 
ATOM      8  C   UNL     1       2.453   7.732  18.541  0.00  0.00    +0.000 A 
ATOM      9  C   UNL     1       3.008   6.489  18.258  0.00  0.00    +0.000 A 
ATOM     10  C   UNL     1       2.839   5.428  19.131  0.00  0.00    +0.000 A 
ATOM     11  N   UNL     1       3.369   4.186  18.860  0.00  0.00    +0.000 N 
ATOM     12  C   UNL     1       3.621   3.696  17.504  0.00  0.00    +0.000 C 
ATOM     13  C   UNL     1       2.948   2.329  17.311  0.00  0.00    +0.000 C 
ATOM     14  O   UNL     1       3.347   1.395  18.324  0.00  0.00    +0.000 OA
ATOM     15  C   UNL     1       2.963   1.883  19.622  0.00  0.00    +0.000 C 
ATOM     16  C   UNL     1       3.625   3.230  19.940  0.00  0.00    +0.000 C 
ATOM     17  N   UNL     1       2.154   5.653  20.270  0.00  0.00    +0.000 NA
ATOM     18  N   UNL     1       1.604   6.906  20.559  0.00  0.00    +0.000 NA
ATOM     19  C   UNL     1       0.540   9.967  18.968  0.00  0.00    +0.000 C 
ATOM     20  C   UNL     1       0.965  11.434  19.105  0.00  0.00    +0.000 C 
ENDROOT
BRANCH   1  22
ATOM     21  C   UNL     1      -1.933  13.317  19.821  0.00  0.00    +0.000 C 
ATOM     22  C   UNL     1      -0.536  13.937  19.806  0.00  0.00    +0.000 C 
BRANCH  22  23
ATOM     23  O   UNL     1      -0.651  15.333  20.089  0.00  0.00    +0.000 OA
BRANCH  23  24
ATOM     24  C   UNL     1      -0.148  16.219  19.171  0.00  0.00    +0.000 A 
ATOM     25  C   UNL     1       1.244  16.229  19.060  0.00  0.00    +0.000 A 
ATOM     26  C   UNL     1       1.879  17.088  18.159  0.00  0.00    +0.000 A 
ATOM     27  C   UNL     1       1.125  17.929  17.349  0.00  0.00    +0.000 A 
ATOM     28  C   UNL     1      -0.268  17.900  17.428  0.00  0.00    +0.000 A 
ATOM     29  C   UNL     1      -0.901  17.043  18.334  0.00  0.00    +0.000 A 
ENDBRANCH  23  24
ENDBRANCH  22  23
ENDBRANCH   1  22
TORSDOF 3
ENDMDL
MODEL 9
REMARK VINA RESULT:      -7.1      2.345     11.022
REMARK  Name = 
REMARK  4 active torsions:
REMARK  status: ('A' for Active; 'I' for Inactive)
REMARK    1  A    between atoms: C_1  and  C_2
REMARK    2  A    between atoms: C_2  and  O_3
REMARK    3  A    between atoms: C_2  and  C_10
REMARK    4  A    between atoms: O_3  and  C_4
REMARK                            x       y       z     vdW  Elec       q    Type
REMARK                         _______ _______ _______ _____ _____    ______ ____
ROOT
ATOM      1  C   UNL     1       2.715   7.176  18.495  0.00  0.00    +0.000 C 
ATOM      2  O   UNL     1       3.350   7.446  17.473  0.00  0.00    +0.000 OA
ATOM      3  N   UNL     1       1.932   8.135  19.128  0.00  0.00    +0.000 N 
ATOM      4  C   UNL     1       1.760   9.457  18.493  0.00  0.00    +0.000 C 
ATOM      5  C   UNL     1       0.326  10.004  18.697  0.00  0.00    +0.000 C 
ATOM      6  N   UNL     1       0.027   9.953  20.129  0.00  0.00    +0.000 N 
ATOM      7  C   UNL     1      -0.674  10.966  20.738  0.00  0.00    +0.000 A 
ATOM      8  C   UNL     1      -0.501  11.198  22.090  0.00  0.00    +0.000 A 
ATOM      9  C   UNL     1      -1.154  12.253  22.717  0.00  0.00    +0.000 A 
ATOM     10  C   UNL     1      -1.994  13.087  21.999  0.00  0.00    +0.000 A 
ATOM     11  N   UNL     1      -2.660  14.127  22.606  0.00  0.00    +0.000 N 
ATOM     12  C   UNL     1      -3.026  14.132  24.023  0.00  0.00    +0.000 C 
ATOM     13  C   UNL     1      -4.527  14.424  24.173  0.00  0.00    +0.000 C 
ATOM     14  O   UNL     1      -4.901  15.632  23.497  0.00  0.00    +0.000 OA
ATOM     15  C   UNL     1      -4.625  15.515  22.089  0.00  0.00    +0.000 C 
ATOM     16  C   UNL     1      -3.133  15.271  21.822  0.00  0.00    +0.000 C 
ATOM     17  N   UNL     1      -2.125  12.861  20.676  0.00  0.00    +0.000 NA
ATOM     18  N   UNL     1      -1.461  11.805  20.044  0.00  0.00    +0.000 NA
ATOM     19  C   UNL     1       0.097   8.621  20.731  0.00  0.00    +0.000 C 
ATOM     20  C   UNL     1       1.516   8.073  20.537  0.00  0.00    +0.000 C 
ENDROOT
BRANCH   1  22
ATOM     21  C   UNL     1       2.100   4.794  17.919  0.00  0.00    +0.000 C 
ATOM     22  C   UNL     1       2.606   5.722  19.023  0.00  0.00    +0.000 C 
BRANCH  22  23
ATOM     23  O   UNL     1       3.857   5.226  19.502  0.00  0.00    +0.000 OA
BRANCH  23  24
ATOM     24  C   UNL     1       4.855   5.008  18.587  0.00  0.00    +0.000 A 
ATOM     25  C   UNL     1       6.109   5.506  18.950  0.00  0.00    +0.000 A 
ATOM     26  C   UNL     1       7.209   5.348  18.103  0.00  0.00    +0.000 A 
ATOM     27  C   UNL     1       7.067   4.674  16.895  0.00  0.00    +0.000 A 
ATOM     28  C   UNL     1       5.827   4.144  16.541  0.00  0.00    +0.000 A 
ATOM     29  C   UNL     1       4.726   4.307  17.388  0.00  0.00    +0.000 A 
ENDBRANCH  23  24
ENDBRANCH  22  23
ENDBRANCH   1  22
TORSDOF 3
ENDMDL
