MODEL 1
REMARK VINA RESULT:      -6.8      0.000      0.000
REMARK  Name = 
REMARK  6 active torsions:
REMARK  status: ('A' for Active; 'I' for Inactive)
REMARK    1  A    between atoms: C_1  and  C_2
REMARK    2  A    between atoms: C_2  and  C_3
REMARK    3  A    between atoms: C_4  and  C_5
REMARK    4  A    between atoms: N_10  and  N_11
REMARK    5  A    between atoms: N_11  and  C_12
REMARK    6  A    between atoms: N_15  and  C_16
REMARK                            x       y       z     vdW  Elec       q    Type
REMARK                         _______ _______ _______ _____ _____    ______ ____
ROOT
ATOM      1  C   UNL     1      -4.384  11.877  18.855  0.00  0.00    +0.000 A 
ATOM      2  C   UNL     1      -5.716  11.677  19.195  0.00  0.00    +0.000 A 
ATOM      3  C   UNL     1      -6.852  11.062  18.454  0.00  0.00    +0.000 C 
ATOM      4  N   UNL     1      -5.898  12.141  20.467  0.00  0.00    +0.000 N 
ATOM      5  C   UNL     1      -4.722  12.627  20.958  0.00  0.00    +0.000 A 
ATOM      6  C   UNL     1      -3.755  12.538  19.976  0.00  0.00    +0.000 A 
ATOM      7  C   UNL     1      -2.389  13.025  20.220  0.00  0.00    +0.000 C 
ATOM      8  N   UNL     1      -1.531  12.902  19.245  0.00  0.00    +0.000 NA
ATOM      9  C   UNL     1      -2.107  13.605  21.604  0.00  0.00    +0.000 C 
ATOM     10  C   UNL     1      -3.184  13.563  22.696  0.00  0.00    +0.000 C 
ATOM     11  C   UNL     1      -4.599  13.131  22.337  0.00  0.00    +0.000 C 
ATOM     12  H   UNL     1      -6.769  12.105  20.981  0.00  0.00    +0.000 HD
ENDROOT
BRANCH   8  13
ATOM     13  N   UNL     1      -0.186  13.279  19.294  0.00  0.00    +0.000 N 
ATOM     14  C   UNL     1       0.363  14.595  19.057  0.00  0.00    +0.000 C 
ATOM     15  C   UNL     1       0.789  12.257  19.449  0.00  0.00    +0.000 C 
ATOM     16  O   UNL     1       1.989  12.497  19.552  0.00  0.00    +0.000 OA
ATOM     17  N   UNL     1       0.221  11.004  19.439  0.00  0.00    +0.000 N 
ATOM     18  H   UNL     1      -0.747  11.052  19.144  0.00  0.00    +0.000 HD
BRANCH  17  19
ATOM     19  C   UNL     1       0.848   9.766  19.622  0.00  0.00    +0.000 A 
ATOM     20  C   UNL     1       0.705   9.002  20.785  0.00  0.00    +0.000 A 
ATOM     21  C   UNL     1       1.356   7.772  20.915  0.00  0.00    +0.000 A 
ATOM     22  C   UNL     1       2.161   7.297  19.882  0.00  0.00    +0.000 A 
ATOM     23  C   UNL     1       2.297   8.049  18.718  0.00  0.00    +0.000 A 
ATOM     24 CL   UNL     1       3.294   7.464  17.441  0.00  0.00    +0.000 Cl
ATOM     25  C   UNL     1       1.636   9.270  18.578  0.00  0.00    +0.000 A 
ENDBRANCH  17  19
ENDBRANCH   8  13
BRANCH   1  27
ATOM     26  C   UNL     1      -3.158  10.049  17.642  0.00  0.00    +0.000 C 
ATOM     27  C   UNL     1      -3.764  11.440  17.566  0.00  0.00    +0.000 C 
ENDBRANCH   1  27
TORSDOF 3
ENDMDL
MODEL 2
REMARK VINA RESULT:      -6.7      7.313     10.489
REMARK  Name = 
REMARK  6 active torsions:
REMARK  status: ('A' for Active; 'I' for Inactive)
REMARK    1  A    between atoms: C_1  and  C_2
REMARK    2  A    between atoms: C_2  and  C_3
REMARK    3  A    between atoms: C_4  and  C_5
REMARK    4  A    between atoms: N_10  and  N_11
REMARK    5  A    between atoms: N_11  and  C_12
REMARK    6  A    between atoms: N_15  and  C_16
REMARK                            x       y       z     vdW  Elec       q    Type
REMARK                         _______ _______ _______ _____ _____    ______ ____
ROOT
ATOM      1  C   UNL     1       2.947   3.641  18.336  0.00  0.00    +0.000 A 
ATOM      2  C   UNL     1       1.662   3.582  18.859  0.00  0.00    +0.000 A 
ATOM      3  C   UNL     1       0.846   2.446  19.373  0.00  0.00    +0.000 C 
ATOM      4  N   UNL     1       1.160   4.852  18.883  0.00  0.00    +0.000 N 
ATOM      5  C   UNL     1       2.087   5.728  18.399  0.00  0.00    +0.000 A 
ATOM      6  C   UNL     1       3.202   5.021  17.992  0.00  0.00    +0.000 A 
ATOM      7  C   UNL     1       4.352   5.713  17.392  0.00  0.00    +0.000 C 
ATOM      8  N   UNL     1       5.370   4.977  17.036  0.00  0.00    +0.000 NA
ATOM      9  C   UNL     1       4.248   7.231  17.268  0.00  0.00    +0.000 C 
ATOM     10  C   UNL     1       3.041   7.976  17.853  0.00  0.00    +0.000 C 
ATOM     11  C   UNL     1       1.850   7.181  18.371  0.00  0.00    +0.000 C 
ATOM     12  H   UNL     1       0.247   5.111  19.235  0.00  0.00    +0.000 HD
ENDROOT
BRANCH   8  13
ATOM     13  N   UNL     1       6.559   5.451  16.477  0.00  0.00    +0.000 N 
ATOM     14  C   UNL     1       7.461   6.431  17.040  0.00  0.00    +0.000 C 
ATOM     15  C   UNL     1       6.877   5.057  15.149  0.00  0.00    +0.000 C 
ATOM     16  O   UNL     1       7.923   5.384  14.595  0.00  0.00    +0.000 OA
ATOM     17  N   UNL     1       5.870   4.310  14.584  0.00  0.00    +0.000 N 
ATOM     18  H   UNL     1       5.035   4.343  15.157  0.00  0.00    +0.000 HD
BRANCH  17  19
ATOM     19  C   UNL     1       5.844   3.701  13.324  0.00  0.00    +0.000 A 
ATOM     20  C   UNL     1       6.970   3.118  12.734  0.00  0.00    +0.000 A 
ATOM     21  C   UNL     1       6.888   2.524  11.472  0.00  0.00    +0.000 A 
ATOM     22  C   UNL     1       5.677   2.515  10.784  0.00  0.00    +0.000 A 
ATOM     23  C   UNL     1       4.551   3.085  11.371  0.00  0.00    +0.000 A 
ATOM     24 CL   UNL     1       3.053   3.076  10.521  0.00  0.00    +0.000 Cl
ATOM     25  C   UNL     1       4.625   3.664  12.639  0.00  0.00    +0.000 A 
ENDBRANCH  17  19
ENDBRANCH   8  13
BRANCH   1  27
ATOM     26  C   UNL     1       4.532   2.088  19.518  0.00  0.00    +0.000 C 
ATOM     27  C   UNL     1       3.864   2.466  18.207  0.00  0.00    +0.000 C 
ENDBRANCH   1  27
TORSDOF 3
ENDMDL
MODEL 3
REMARK VINA RESULT:      -6.7      7.375     10.424
REMARK  Name = 
REMARK  6 active torsions:
REMARK  status: ('A' for Active; 'I' for Inactive)
REMARK    1  A    between atoms: C_1  and  C_2
REMARK    2  A    between atoms: C_2  and  C_3
REMARK    3  A    between atoms: C_4  and  C_5
REMARK    4  A    between atoms: N_10  and  N_11
REMARK    5  A    between atoms: N_11  and  C_12
REMARK    6  A    between atoms: N_15  and  C_16
REMARK                            x       y       z     vdW  Elec       q    Type
REMARK                         _______ _______ _______ _____ _____    ______ ____
ROOT
ATOM      1  C   UNL     1       3.267   3.760  19.002  0.00  0.00    +0.000 A 
ATOM      2  C   UNL     1       2.015   3.697  19.601  0.00  0.00    +0.000 A 
ATOM      3  C   UNL     1       1.315   2.605  20.334  0.00  0.00    +0.000 C 
ATOM      4  N   UNL     1       1.418   4.917  19.454  0.00  0.00    +0.000 N 
ATOM      5  C   UNL     1       2.251   5.765  18.786  0.00  0.00    +0.000 A 
ATOM      6  C   UNL     1       3.397   5.080  18.431  0.00  0.00    +0.000 A 
ATOM      7  C   UNL     1       4.462   5.745  17.664  0.00  0.00    +0.000 C 
ATOM      8  N   UNL     1       5.516   5.033  17.371  0.00  0.00    +0.000 NA
ATOM      9  C   UNL     1       4.234   7.212  17.309  0.00  0.00    +0.000 C 
ATOM     10  C   UNL     1       3.001   7.956  17.838  0.00  0.00    +0.000 C 
ATOM     11  C   UNL     1       1.900   7.175  18.542  0.00  0.00    +0.000 C 
ATOM     12  H   UNL     1       0.505   5.165  19.813  0.00  0.00    +0.000 HD
ENDROOT
BRANCH   8  13
ATOM     13  N   UNL     1       6.638   5.493  16.676  0.00  0.00    +0.000 N 
ATOM     14  C   UNL     1       7.633   6.432  17.145  0.00  0.00    +0.000 C 
ATOM     15  C   UNL     1       6.772   5.130  15.310  0.00  0.00    +0.000 C 
ATOM     16  O   UNL     1       7.749   5.445  14.634  0.00  0.00    +0.000 OA
ATOM     17  N   UNL     1       5.680   4.426  14.859  0.00  0.00    +0.000 N 
ATOM     18  H   UNL     1       4.926   4.463  15.535  0.00  0.00    +0.000 HD
BRANCH  17  19
ATOM     19  C   UNL     1       5.476   3.855  13.597  0.00  0.00    +0.000 A 
ATOM     20  C   UNL     1       4.259   3.932  12.912  0.00  0.00    +0.000 A 
ATOM     21  C   UNL     1       4.110   3.343  11.653  0.00  0.00    +0.000 A 
ATOM     22  C   UNL     1       5.178   2.666  11.070  0.00  0.00    +0.000 A 
ATOM     23  C   UNL     1       6.396   2.596  11.743  0.00  0.00    +0.000 A 
ATOM     24 CL   UNL     1       7.717   1.758  11.025  0.00  0.00    +0.000 Cl
ATOM     25  C   UNL     1       6.553   3.198  12.993  0.00  0.00    +0.000 A 
ENDBRANCH  17  19
ENDBRANCH   8  13
BRANCH   1  27
ATOM     26  C   UNL     1       3.795   1.425  18.235  0.00  0.00    +0.000 C 
ATOM     27  C   UNL     1       4.265   2.646  19.007  0.00  0.00    +0.000 C 
ENDBRANCH   1  27
TORSDOF 3
ENDMDL
MODEL 4
REMARK VINA RESULT:      -6.6      0.952      1.379
REMARK  Name = 
REMARK  6 active torsions:
REMARK  status: ('A' for Active; 'I' for Inactive)
REMARK    1  A    between atoms: C_1  and  C_2
REMARK    2  A    between atoms: C_2  and  C_3
REMARK    3  A    between atoms: C_4  and  C_5
REMARK    4  A    between atoms: N_10  and  N_11
REMARK    5  A    between atoms: N_11  and  C_12
REMARK    6  A    between atoms: N_15  and  C_16
REMARK                            x       y       z     vdW  Elec       q    Type
REMARK                         _______ _______ _______ _____ _____    ______ ____
ROOT
ATOM      1  C   UNL     1      -4.221  11.868  18.837  0.00  0.00    +0.000 A 
ATOM      2  C   UNL     1      -5.562  11.623  19.099  0.00  0.00    +0.000 A 
ATOM      3  C   UNL     1      -6.631  10.968  18.293  0.00  0.00    +0.000 C 
ATOM      4  N   UNL     1      -5.836  12.081  20.357  0.00  0.00    +0.000 N 
ATOM      5  C   UNL     1      -4.708  12.607  20.915  0.00  0.00    +0.000 A 
ATOM      6  C   UNL     1      -3.682  12.551  19.992  0.00  0.00    +0.000 A 
ATOM      7  C   UNL     1      -2.351  13.086  20.315  0.00  0.00    +0.000 C 
ATOM      8  N   UNL     1      -1.433  12.992  19.392  0.00  0.00    +0.000 NA
ATOM      9  C   UNL     1      -2.172  13.676  21.712  0.00  0.00    +0.000 C 
ATOM     10  C   UNL     1      -3.309  13.596  22.739  0.00  0.00    +0.000 C 
ATOM     11  C   UNL     1      -4.685  13.116  22.297  0.00  0.00    +0.000 C 
ATOM     12  H   UNL     1      -6.734  12.014  20.818  0.00  0.00    +0.000 HD
ENDROOT
BRANCH   8  13
ATOM     13  N   UNL     1      -0.107  13.415  19.520  0.00  0.00    +0.000 N 
ATOM     14  C   UNL     1       0.370  14.776  19.624  0.00  0.00    +0.000 C 
ATOM     15  C   UNL     1       0.920  12.442  19.393  0.00  0.00    +0.000 C 
ATOM     16  O   UNL     1       2.109  12.712  19.540  0.00  0.00    +0.000 OA
ATOM     17  N   UNL     1       0.413  11.206  19.067  0.00  0.00    +0.000 N 
ATOM     18  H   UNL     1      -0.563  11.276  18.807  0.00  0.00    +0.000 HD
BRANCH  17  19
ATOM     19  C   UNL     1       1.105   9.997  18.916  0.00  0.00    +0.000 A 
ATOM     20  C   UNL     1       1.882   9.699  17.792  0.00  0.00    +0.000 A 
ATOM     21  C   UNL     1       2.552   8.475  17.692  0.00  0.00    +0.000 A 
ATOM     22  C   UNL     1       2.444   7.537  18.715  0.00  0.00    +0.000 A 
ATOM     23  C   UNL     1       1.679   7.834  19.841  0.00  0.00    +0.000 A 
ATOM     24 CL   UNL     1       1.543   6.674  21.106  0.00  0.00    +0.000 Cl
ATOM     25  C   UNL     1       1.023   9.062  19.951  0.00  0.00    +0.000 A 
ENDBRANCH  17  19
ENDBRANCH   8  13
BRANCH   1  27
ATOM     26  C   UNL     1      -2.858  10.086  17.704  0.00  0.00    +0.000 C 
ATOM     27  C   UNL     1      -3.511  11.453  17.588  0.00  0.00    +0.000 C 
ENDBRANCH   1  27
TORSDOF 3
ENDMDL
MODEL 5
REMARK VINA RESULT:      -6.6      5.901     10.772
REMARK  Name = 
REMARK  6 active torsions:
REMARK  status: ('A' for Active; 'I' for Inactive)
REMARK    1  A    between atoms: C_1  and  C_2
REMARK    2  A    between atoms: C_2  and  C_3
REMARK    3  A    between atoms: C_4  and  C_5
REMARK    4  A    between atoms: N_10  and  N_11
REMARK    5  A    between atoms: N_11  and  C_12
REMARK    6  A    between atoms: N_15  and  C_16
REMARK                            x       y       z     vdW  Elec       q    Type
REMARK                         _______ _______ _______ _____ _____    ______ ____
ROOT
ATOM      1  C   UNL     1       5.906   4.547  14.887  0.00  0.00    +0.000 A 
ATOM      2  C   UNL     1       7.134   4.987  14.412  0.00  0.00    +0.000 A 
ATOM      3  C   UNL     1       7.697   5.072  13.035  0.00  0.00    +0.000 C 
ATOM      4  N   UNL     1       7.867   5.421  15.480  0.00  0.00    +0.000 N 
ATOM      5  C   UNL     1       7.144   5.280  16.628  0.00  0.00    +0.000 A 
ATOM      6  C   UNL     1       5.933   4.688  16.325  0.00  0.00    +0.000 A 
ATOM      7  C   UNL     1       4.961   4.382  17.386  0.00  0.00    +0.000 C 
ATOM      8  N   UNL     1       3.837   3.828  17.020  0.00  0.00    +0.000 NA
ATOM      9  C   UNL     1       5.357   4.769  18.808  0.00  0.00    +0.000 C 
ATOM     10  C   UNL     1       6.659   5.538  19.069  0.00  0.00    +0.000 C 
ATOM     11  C   UNL     1       7.655   5.731  17.934  0.00  0.00    +0.000 C 
ATOM     12  H   UNL     1       8.797   5.815  15.426  0.00  0.00    +0.000 HD
ENDROOT
BRANCH   8  13
ATOM     13  N   UNL     1       2.783   3.489  17.873  0.00  0.00    +0.000 N 
ATOM     14  C   UNL     1       2.221   2.175  18.089  0.00  0.00    +0.000 C 
ATOM     15  C   UNL     1       2.070   4.543  18.504  0.00  0.00    +0.000 C 
ATOM     16  O   UNL     1       1.163   4.340  19.307  0.00  0.00    +0.000 OA
ATOM     17  N   UNL     1       2.504   5.778  18.081  0.00  0.00    +0.000 N 
ATOM     18  H   UNL     1       3.115   5.687  17.278  0.00  0.00    +0.000 HD
BRANCH  17  19
ATOM     19  C   UNL     1       2.084   7.041  18.517  0.00  0.00    +0.000 A 
ATOM     20  C   UNL     1       1.794   8.092  17.641  0.00  0.00    +0.000 A 
ATOM     21  C   UNL     1       1.379   9.334  18.131  0.00  0.00    +0.000 A 
ATOM     22  C   UNL     1       1.257   9.536  19.503  0.00  0.00    +0.000 A 
ATOM     23  C   UNL     1       1.534   8.489  20.378  0.00  0.00    +0.000 A 
ATOM     24 CL   UNL     1       1.386   8.738  22.075  0.00  0.00    +0.000 Cl
ATOM     25  C   UNL     1       1.933   7.242  19.892  0.00  0.00    +0.000 A 
ENDBRANCH  17  19
ENDBRANCH   8  13
BRANCH   1  27
ATOM     26  C   UNL     1       5.257   3.593  12.654  0.00  0.00    +0.000 C 
ATOM     27  C   UNL     1       4.788   4.057  14.023  0.00  0.00    +0.000 C 
ENDBRANCH   1  27
TORSDOF 3
ENDMDL
MODEL 6
REMARK VINA RESULT:      -6.4      6.153     10.802
REMARK  Name = 
REMARK  6 active torsions:
REMARK  status: ('A' for Active; 'I' for Inactive)
REMARK    1  A    between atoms: C_1  and  C_2
REMARK    2  A    between atoms: C_2  and  C_3
REMARK    3  A    between atoms: C_4  and  C_5
REMARK    4  A    between atoms: N_10  and  N_11
REMARK    5  A    between atoms: N_11  and  C_12
REMARK    6  A    between atoms: N_15  and  C_16
REMARK                            x       y       z     vdW  Elec       q    Type
REMARK                         _______ _______ _______ _____ _____    ______ ____
ROOT
ATOM      1  C   UNL     1       5.989   4.622  14.907  0.00  0.00    +0.000 A 
ATOM      2  C   UNL     1       7.183   5.179  14.468  0.00  0.00    +0.000 A 
ATOM      3  C   UNL     1       7.742   5.390  13.103  0.00  0.00    +0.000 C 
ATOM      4  N   UNL     1       7.880   5.598  15.566  0.00  0.00    +0.000 N 
ATOM      5  C   UNL     1       7.167   5.333  16.698  0.00  0.00    +0.000 A 
ATOM      6  C   UNL     1       6.003   4.675  16.351  0.00  0.00    +0.000 A 
ATOM      7  C   UNL     1       5.053   4.234  17.384  0.00  0.00    +0.000 C 
ATOM      8  N   UNL     1       3.974   3.624  16.977  0.00  0.00    +0.000 NA
ATOM      9  C   UNL     1       5.416   4.560  18.831  0.00  0.00    +0.000 C 
ATOM     10  C   UNL     1       6.658   5.404  19.147  0.00  0.00    +0.000 C 
ATOM     11  C   UNL     1       7.640   5.739  18.033  0.00  0.00    +0.000 C 
ATOM     12  H   UNL     1       8.779   6.061  15.543  0.00  0.00    +0.000 HD
ENDROOT
BRANCH   8  13
ATOM     13  N   UNL     1       2.945   3.157  17.800  0.00  0.00    +0.000 N 
ATOM     14  C   UNL     1       2.404   1.817  17.848  0.00  0.00    +0.000 C 
ATOM     15  C   UNL     1       2.236   4.105  18.585  0.00  0.00    +0.000 C 
ATOM     16  O   UNL     1       1.351   3.781  19.374  0.00  0.00    +0.000 OA
ATOM     17  N   UNL     1       2.645   5.392  18.324  0.00  0.00    +0.000 N 
ATOM     18  H   UNL     1       3.237   5.420  17.502  0.00  0.00    +0.000 HD
BRANCH  17  19
ATOM     19  C   UNL     1       2.222   6.578  18.936  0.00  0.00    +0.000 A 
ATOM     20  C   UNL     1       1.818   6.644  20.274  0.00  0.00    +0.000 A 
ATOM     21  C   UNL     1       1.404   7.855  20.835  0.00  0.00    +0.000 A 
ATOM     22  C   UNL     1       1.384   9.012  20.059  0.00  0.00    +0.000 A 
ATOM     23  C   UNL     1       1.796   8.953  18.730  0.00  0.00    +0.000 A 
ATOM     24 CL   UNL     1       1.770  10.381  17.768  0.00  0.00    +0.000 Cl
ATOM     25  C   UNL     1       2.226   7.748  18.171  0.00  0.00    +0.000 A 
ENDBRANCH  17  19
ENDBRANCH   8  13
BRANCH   1  27
ATOM     26  C   UNL     1       5.456   3.373  12.792  0.00  0.00    +0.000 C 
ATOM     27  C   UNL     1       4.913   4.106  14.006  0.00  0.00    +0.000 C 
ENDBRANCH   1  27
TORSDOF 3
ENDMDL
MODEL 7
REMARK VINA RESULT:      -6.3      2.904      5.201
REMARK  Name = 
REMARK  6 active torsions:
REMARK  status: ('A' for Active; 'I' for Inactive)
REMARK    1  A    between atoms: C_1  and  C_2
REMARK    2  A    between atoms: C_2  and  C_3
REMARK    3  A    between atoms: C_4  and  C_5
REMARK    4  A    between atoms: N_10  and  N_11
REMARK    5  A    between atoms: N_11  and  C_12
REMARK    6  A    between atoms: N_15  and  C_16
REMARK                            x       y       z     vdW  Elec       q    Type
REMARK                         _______ _______ _______ _____ _____    ______ ____
ROOT
ATOM      1  C   UNL     1      -4.808  12.307  18.903  0.00  0.00    +0.000 A 
ATOM      2  C   UNL     1      -5.756  12.045  17.923  0.00  0.00    +0.000 A 
ATOM      3  C   UNL     1      -7.153  12.527  17.734  0.00  0.00    +0.000 C 
ATOM      4  N   UNL     1      -5.190  11.206  17.005  0.00  0.00    +0.000 N 
ATOM      5  C   UNL     1      -3.904  10.926  17.362  0.00  0.00    +0.000 A 
ATOM      6  C   UNL     1      -3.629  11.542  18.567  0.00  0.00    +0.000 A 
ATOM      7  C   UNL     1      -2.316  11.381  19.211  0.00  0.00    +0.000 C 
ATOM      8  N   UNL     1      -2.131  11.998  20.346  0.00  0.00    +0.000 NA
ATOM      9  C   UNL     1      -1.293  10.524  18.470  0.00  0.00    +0.000 C 
ATOM     10  C   UNL     1      -1.610   9.969  17.075  0.00  0.00    +0.000 C 
ATOM     11  C   UNL     1      -3.022  10.099  16.521  0.00  0.00    +0.000 C 
ATOM     12  H   UNL     1      -5.647  10.865  16.169  0.00  0.00    +0.000 HD
ENDROOT
BRANCH   8  13
ATOM     13  N   UNL     1      -0.949  11.988  21.091  0.00  0.00    +0.000 N 
ATOM     14  C   UNL     1      -0.634  11.141  22.220  0.00  0.00    +0.000 C 
ATOM     15  C   UNL     1       0.012  13.002  20.833  0.00  0.00    +0.000 C 
ATOM     16  O   UNL     1       1.099  13.045  21.403  0.00  0.00    +0.000 OA
ATOM     17  N   UNL     1      -0.444  13.913  19.909  0.00  0.00    +0.000 N 
ATOM     18  H   UNL     1      -1.432  13.782  19.734  0.00  0.00    +0.000 HD
BRANCH  17  19
ATOM     19  C   UNL     1       0.236  15.009  19.363  0.00  0.00    +0.000 A 
ATOM     20  C   UNL     1      -0.267  16.314  19.399  0.00  0.00    +0.000 A 
ATOM     21  C   UNL     1       0.454  17.372  18.838  0.00  0.00    +0.000 A 
ATOM     22  C   UNL     1       1.684  17.132  18.230  0.00  0.00    +0.000 A 
ATOM     23  C   UNL     1       2.193  15.837  18.201  0.00  0.00    +0.000 A 
ATOM     24 CL   UNL     1       3.712  15.538  17.448  0.00  0.00    +0.000 Cl
ATOM     25  C   UNL     1       1.484  14.780  18.776  0.00  0.00    +0.000 A 
ENDBRANCH  17  19
ENDBRANCH   8  13
BRANCH   1  27
ATOM     26  C   UNL     1      -5.728  12.589  21.225  0.00  0.00    +0.000 C 
ATOM     27  C   UNL     1      -5.013  13.241  20.054  0.00  0.00    +0.000 C 
ENDBRANCH   1  27
TORSDOF 3
ENDMDL
MODEL 8
REMARK VINA RESULT:      -6.2      0.967      1.134
REMARK  Name = 
REMARK  6 active torsions:
REMARK  status: ('A' for Active; 'I' for Inactive)
REMARK    1  A    between atoms: C_1  and  C_2
REMARK    2  A    between atoms: C_2  and  C_3
REMARK    3  A    between atoms: C_4  and  C_5
REMARK    4  A    between atoms: N_10  and  N_11
REMARK    5  A    between atoms: N_11  and  C_12
REMARK    6  A    between atoms: N_15  and  C_16
REMARK                            x       y       z     vdW  Elec       q    Type
REMARK                         _______ _______ _______ _____ _____    ______ ____
ROOT
ATOM      1  C   UNL     1      -5.009  12.001  19.944  0.00  0.00    +0.000 A 
ATOM      2  C   UNL     1      -6.250  11.760  20.519  0.00  0.00    +0.000 A 
ATOM      3  C   UNL     1      -7.475  11.089  20.001  0.00  0.00    +0.000 C 
ATOM      4  N   UNL     1      -6.221  12.243  21.797  0.00  0.00    +0.000 N 
ATOM      5  C   UNL     1      -4.996  12.781  22.063  0.00  0.00    +0.000 A 
ATOM      6  C   UNL     1      -4.217  12.707  20.925  0.00  0.00    +0.000 A 
ATOM      7  C   UNL     1      -2.850  13.249  20.915  0.00  0.00    +0.000 C 
ATOM      8  N   UNL     1      -2.174  13.137  19.804  0.00  0.00    +0.000 NA
ATOM      9  C   UNL     1      -2.349  13.867  22.218  0.00  0.00    +0.000 C 
ATOM     10  C   UNL     1      -3.212  13.807  23.486  0.00  0.00    +0.000 C 
ATOM     11  C   UNL     1      -4.651  13.318  23.391  0.00  0.00    +0.000 C 
ATOM     12  H   UNL     1      -6.985  12.185  22.458  0.00  0.00    +0.000 HD
ENDROOT
BRANCH   8  13
ATOM     13  N   UNL     1      -0.858  13.563  19.607  0.00  0.00    +0.000 N 
ATOM     14  C   UNL     1      -0.416  14.882  19.213  0.00  0.00    +0.000 C 
ATOM     15  C   UNL     1       0.173  12.588  19.650  0.00  0.00    +0.000 C 
ATOM     16  O   UNL     1       1.362  12.876  19.538  0.00  0.00    +0.000 OA
ATOM     17  N   UNL     1      -0.332  11.317  19.801  0.00  0.00    +0.000 N 
ATOM     18  H   UNL     1      -1.336  11.313  19.670  0.00  0.00    +0.000 HD
BRANCH  17  19
ATOM     19  C   UNL     1       0.372  10.115  19.941  0.00  0.00    +0.000 A 
ATOM     20  C   UNL     1       0.361   9.356  21.116  0.00  0.00    +0.000 A 
ATOM     21  C   UNL     1       1.084   8.162  21.201  0.00  0.00    +0.000 A 
ATOM     22  C   UNL     1       1.828   7.720  20.111  0.00  0.00    +0.000 A 
ATOM     23  C   UNL     1       1.833   8.466  18.935  0.00  0.00    +0.000 A 
ATOM     24 CL   UNL     1       2.756   7.921  17.587  0.00  0.00    +0.000 Cl
ATOM     25  C   UNL     1       1.100   9.650  18.841  0.00  0.00    +0.000 A 
ENDBRANCH  17  19
ENDBRANCH   8  13
BRANCH   1  27
ATOM     26  C   UNL     1      -5.400  12.256  17.474  0.00  0.00    +0.000 C 
ATOM     27  C   UNL     1      -4.611  11.561  18.571  0.00  0.00    +0.000 C 
ENDBRANCH   1  27
TORSDOF 3
ENDMDL
MODEL 9
REMARK VINA RESULT:      -6.1      2.979      6.527
REMARK  Name = 
REMARK  6 active torsions:
REMARK  status: ('A' for Active; 'I' for Inactive)
REMARK    1  A    between atoms: C_1  and  C_2
REMARK    2  A    between atoms: C_2  and  C_3
REMARK    3  A    between atoms: C_4  and  C_5
REMARK    4  A    between atoms: N_10  and  N_11
REMARK    5  A    between atoms: N_11  and  C_12
REMARK    6  A    between atoms: N_15  and  C_16
REMARK                            x       y       z     vdW  Elec       q    Type
REMARK                         _______ _______ _______ _____ _____    ______ ____
ROOT
ATOM      1  C   UNL     1       2.216   7.810  19.075  0.00  0.00    +0.000 A 
ATOM      2  C   UNL     1       2.265   6.548  19.654  0.00  0.00    +0.000 A 
ATOM      3  C   UNL     1       2.840   5.257  19.182  0.00  0.00    +0.000 C 
ATOM      4  N   UNL     1       1.675   6.627  20.883  0.00  0.00    +0.000 N 
ATOM      5  C   UNL     1       1.254   7.904  21.116  0.00  0.00    +0.000 A 
ATOM      6  C   UNL     1       1.517   8.673  19.999  0.00  0.00    +0.000 A 
ATOM      7  C   UNL     1       1.133  10.092  19.957  0.00  0.00    +0.000 C 
ATOM      8  N   UNL     1       1.419  10.753  18.869  0.00  0.00    +0.000 NA
ATOM      9  C   UNL     1       0.459  10.655  21.206  0.00  0.00    +0.000 C 
ATOM     10  C   UNL     1       0.308   9.788  22.463  0.00  0.00    +0.000 C 
ATOM     11  C   UNL     1       0.641   8.304  22.394  0.00  0.00    +0.000 C 
ATOM     12  H   UNL     1       1.587   5.860  21.538  0.00  0.00    +0.000 HD
ENDROOT
BRANCH   8  13
ATOM     13  N   UNL     1       1.161  12.109  18.651  0.00  0.00    +0.000 N 
ATOM     14  C   UNL     1       2.010  13.228  18.996  0.00  0.00    +0.000 C 
ATOM     15  C   UNL     1      -0.125  12.476  18.172  0.00  0.00    +0.000 C 
ATOM     16  O   UNL     1      -0.426  13.636  17.905  0.00  0.00    +0.000 OA
ATOM     17  N   UNL     1      -0.964  11.390  18.081  0.00  0.00    +0.000 N 
ATOM     18  H   UNL     1      -0.558  10.584  18.541  0.00  0.00    +0.000 HD
BRANCH  17  19
ATOM     19  C   UNL     1      -2.278  11.346  17.601  0.00  0.00    +0.000 A 
ATOM     20  C   UNL     1      -3.379  11.780  18.347  0.00  0.00    +0.000 A 
ATOM     21  C   UNL     1      -4.671  11.714  17.818  0.00  0.00    +0.000 A 
ATOM     22  C   UNL     1      -4.874  11.206  16.537  0.00  0.00    +0.000 A 
ATOM     23  C   UNL     1      -3.780  10.783  15.786  0.00  0.00    +0.000 A 
ATOM     24 CL   UNL     1      -4.029  10.154  14.203  0.00  0.00    +0.000 Cl
ATOM     25  C   UNL     1      -2.487  10.864  16.305  0.00  0.00    +0.000 A 
ENDBRANCH  17  19
ENDBRANCH   8  13
BRANCH   1  27
ATOM     26  C   UNL     1       4.047   7.327  17.422  0.00  0.00    +0.000 C 
ATOM     27  C   UNL     1       2.820   8.159  17.752  0.00  0.00    +0.000 C 
ENDBRANCH   1  27
TORSDOF 3
ENDMDL
