MODEL 1
REMARK VINA RESULT:      -7.7      0.000      0.000
REMARK  Name = 
REMARK  6 active torsions:
REMARK  status: ('A' for Active; 'I' for Inactive)
REMARK    1  A    between atoms: C_2  and  C_3
REMARK    2  A    between atoms: C_2  and  C_13
REMARK    3  A    between atoms: C_3  and  C_5
REMARK    4  A    between atoms: N_15  and  C_16
REMARK    5  A    between atoms: C_16  and  C_17
REMARK    6  A    between atoms: C_20  and  N_21
REMARK                            x       y       z     vdW  Elec       q    Type
REMARK                         _______ _______ _______ _____ _____    ______ ____
ROOT
ATOM      1  C   UNL     1       1.489   8.303  19.770  0.00  0.00    +0.000 A 
ATOM      2  C   UNL     1       2.072   7.219  20.399  0.00  0.00    +0.000 A 
ATOM      3  N   UNL     1       2.788   6.605  19.415  0.00  0.00    +0.000 N 
ATOM      4  N   UNL     1       2.712   7.291  18.261  0.00  0.00    +0.000 NA
ATOM      5  N   UNL     1       1.920   8.336  18.468  0.00  0.00    +0.000 NA
ENDROOT
BRANCH   1   7
ATOM      6  O   UNL     1      -0.090   9.105  21.343  0.00  0.00    +0.000 OA
ATOM      7  C   UNL     1       0.580   9.286  20.330  0.00  0.00    +0.000 C 
BRANCH   7   8
ATOM      8  C   UNL     1       0.367  10.592  19.590  0.00  0.00    +0.000 C 
ATOM      9  O   UNL     1       1.289  11.394  19.529  0.00  0.00    +0.000 OA
BRANCH   8  10
ATOM     10  C   UNL     1      -0.929  10.793  18.894  0.00  0.00    +0.000 A 
ATOM     11  C   UNL     1      -1.178  10.073  17.711  0.00  0.00    +0.000 A 
ATOM     12  C   UNL     1      -2.379  10.244  17.019  0.00  0.00    +0.000 A 
ATOM     13  C   UNL     1      -3.335  11.132  17.502  0.00  0.00    +0.000 A 
ATOM     14 CL   UNL     1      -4.819  11.328  16.656  0.00  0.00    +0.000 Cl
ATOM     15  C   UNL     1      -3.099  11.856  18.667  0.00  0.00    +0.000 A 
ATOM     16  C   UNL     1      -1.896  11.693  19.364  0.00  0.00    +0.000 A 
ATOM     17 CL   UNL     1      -1.716  12.611  20.817  0.00  0.00    +0.000 Cl
ENDBRANCH   8  10
ENDBRANCH   7   8
ENDBRANCH   1   7
BRANCH   3  18
ATOM     18  C   UNL     1       3.420   5.299  19.459  0.00  0.00    +0.000 C 
BRANCH  18  19
ATOM     19  C   UNL     1       4.359   5.055  18.300  0.00  0.00    +0.000 A 
ATOM     20  C   UNL     1       3.950   4.266  17.212  0.00  0.00    +0.000 A 
ATOM     21  C   UNL     1       4.769   4.118  16.089  0.00  0.00    +0.000 A 
ATOM     22  C   UNL     1       6.011   4.765  16.050  0.00  0.00    +0.000 A 
ATOM     23  C   UNL     1       6.445   5.534  17.135  0.00  0.00    +0.000 A 
ATOM     24  C   UNL     1       5.618   5.678  18.253  0.00  0.00    +0.000 A 
BRANCH  22  25
ATOM     25  N   UNL     1       6.852   4.654  14.851  0.00  0.00    +0.000 N 
ATOM     26  O   UNL     1       6.533   3.812  13.999  0.00  0.00    +0.000 OA
ATOM     27  O   UNL     1       7.829   5.412  14.759  0.00  0.00    +0.000 OA
ENDBRANCH  22  25
ENDBRANCH  18  19
ENDBRANCH   3  18
TORSDOF 6
ENDMDL
MODEL 2
REMARK VINA RESULT:      -7.7      4.352      9.165
REMARK  Name = 
REMARK  6 active torsions:
REMARK  status: ('A' for Active; 'I' for Inactive)
REMARK    1  A    between atoms: C_2  and  C_3
REMARK    2  A    between atoms: C_2  and  C_13
REMARK    3  A    between atoms: C_3  and  C_5
REMARK    4  A    between atoms: N_15  and  C_16
REMARK    5  A    between atoms: C_16  and  C_17
REMARK    6  A    between atoms: C_20  and  N_21
REMARK                            x       y       z     vdW  Elec       q    Type
REMARK                         _______ _______ _______ _____ _____    ______ ____
ROOT
ATOM      1  C   UNL     1       2.847   5.899  18.850  0.00  0.00    +0.000 A 
ATOM      2  C   UNL     1       3.053   6.907  17.928  0.00  0.00    +0.000 A 
ATOM      3  N   UNL     1       2.495   8.008  18.505  0.00  0.00    +0.000 N 
ATOM      4  N   UNL     1       2.025   7.727  19.733  0.00  0.00    +0.000 NA
ATOM      5  N   UNL     1       2.238   6.437  19.957  0.00  0.00    +0.000 NA
ENDROOT
BRANCH   1   7
ATOM      6  O   UNL     1       2.382   3.578  18.766  0.00  0.00    +0.000 OA
ATOM      7  C   UNL     1       3.198   4.494  18.742  0.00  0.00    +0.000 C 
BRANCH   7   8
ATOM      8  C   UNL     1       4.663   4.109  18.678  0.00  0.00    +0.000 C 
ATOM      9  O   UNL     1       5.164   3.529  19.631  0.00  0.00    +0.000 OA
BRANCH   8  10
ATOM     10  C   UNL     1       5.397   4.377  17.415  0.00  0.00    +0.000 A 
ATOM     11  C   UNL     1       4.848   3.914  16.205  0.00  0.00    +0.000 A 
ATOM     12  C   UNL     1       5.514   4.134  14.997  0.00  0.00    +0.000 A 
ATOM     13  C   UNL     1       6.728   4.814  14.991  0.00  0.00    +0.000 A 
ATOM     14 CL   UNL     1       7.537   5.095  13.500  0.00  0.00    +0.000 Cl
ATOM     15  C   UNL     1       7.287   5.269  16.181  0.00  0.00    +0.000 A 
ATOM     16  C   UNL     1       6.627   5.050  17.396  0.00  0.00    +0.000 A 
ATOM     17 CL   UNL     1       7.386   5.686  18.812  0.00  0.00    +0.000 Cl
ENDBRANCH   8  10
ENDBRANCH   7   8
ENDBRANCH   1   7
BRANCH   3  18
ATOM     18  C   UNL     1       2.229   9.297  17.889  0.00  0.00    +0.000 C 
BRANCH  18  19
ATOM     19  C   UNL     1       0.953   9.938  18.380  0.00  0.00    +0.000 A 
ATOM     20  C   UNL     1       0.993  10.898  19.406  0.00  0.00    +0.000 A 
ATOM     21  C   UNL     1      -0.167  11.574  19.798  0.00  0.00    +0.000 A 
ATOM     22  C   UNL     1      -1.381  11.290  19.159  0.00  0.00    +0.000 A 
ATOM     23  C   UNL     1      -1.443  10.321  18.152  0.00  0.00    +0.000 A 
ATOM     24  C   UNL     1      -0.279   9.651  17.766  0.00  0.00    +0.000 A 
BRANCH  22  25
ATOM     25  N   UNL     1      -2.591  12.034  19.531  0.00  0.00    +0.000 N 
ATOM     26  O   UNL     1      -3.639  11.770  18.925  0.00  0.00    +0.000 OA
ATOM     27  O   UNL     1      -2.495  12.878  20.434  0.00  0.00    +0.000 OA
ENDBRANCH  22  25
ENDBRANCH  18  19
ENDBRANCH   3  18
TORSDOF 6
ENDMDL
MODEL 3
REMARK VINA RESULT:      -7.7      2.272      2.842
REMARK  Name = 
REMARK  6 active torsions:
REMARK  status: ('A' for Active; 'I' for Inactive)
REMARK    1  A    between atoms: C_2  and  C_3
REMARK    2  A    between atoms: C_2  and  C_13
REMARK    3  A    between atoms: C_3  and  C_5
REMARK    4  A    between atoms: N_15  and  C_16
REMARK    5  A    between atoms: C_16  and  C_17
REMARK    6  A    between atoms: C_20  and  N_21
REMARK                            x       y       z     vdW  Elec       q    Type
REMARK                         _______ _______ _______ _____ _____    ______ ____
ROOT
ATOM      1  C   UNL     1       1.316   9.156  18.683  0.00  0.00    +0.000 A 
ATOM      2  C   UNL     1       1.800   8.171  19.523  0.00  0.00    +0.000 A 
ATOM      3  N   UNL     1       2.699   7.490  18.758  0.00  0.00    +0.000 N 
ATOM      4  N   UNL     1       2.820   8.047  17.540  0.00  0.00    +0.000 NA
ATOM      5  N   UNL     1       1.979   9.072  17.484  0.00  0.00    +0.000 NA
ENDROOT
BRANCH   1   7
ATOM      6  O   UNL     1      -0.769  10.229  18.352  0.00  0.00    +0.000 OA
ATOM      7  C   UNL     1       0.295  10.152  18.958  0.00  0.00    +0.000 C 
BRANCH   7   8
ATOM      8  C   UNL     1       0.575  11.220  19.995  0.00  0.00    +0.000 C 
ATOM      9  O   UNL     1       1.597  11.886  19.896  0.00  0.00    +0.000 OA
BRANCH   8  10
ATOM     10  C   UNL     1      -0.457  11.468  21.034  0.00  0.00    +0.000 A 
ATOM     11  C   UNL     1      -1.419  12.468  20.804  0.00  0.00    +0.000 A 
ATOM     12  C   UNL     1      -2.398  12.740  21.763  0.00  0.00    +0.000 A 
ATOM     13  C   UNL     1      -2.420  12.019  22.952  0.00  0.00    +0.000 A 
ATOM     14 CL   UNL     1      -3.636  12.347  24.123  0.00  0.00    +0.000 Cl
ATOM     15  C   UNL     1      -1.469  11.033  23.196  0.00  0.00    +0.000 A 
ATOM     16  C   UNL     1      -0.483  10.755  22.242  0.00  0.00    +0.000 A 
ATOM     17 CL   UNL     1       0.628   9.489  22.626  0.00  0.00    +0.000 Cl
ENDBRANCH   8  10
ENDBRANCH   7   8
ENDBRANCH   1   7
BRANCH   3  18
ATOM     18  C   UNL     1       3.344   6.224  19.059  0.00  0.00    +0.000 C 
BRANCH  18  19
ATOM     19  C   UNL     1       4.305   5.776  17.983  0.00  0.00    +0.000 A 
ATOM     20  C   UNL     1       3.995   4.672  17.172  0.00  0.00    +0.000 A 
ATOM     21  C   UNL     1       4.825   4.312  16.107  0.00  0.00    +0.000 A 
ATOM     22  C   UNL     1       5.980   5.062  15.846  0.00  0.00    +0.000 A 
ATOM     23  C   UNL     1       6.316   6.151  16.658  0.00  0.00    +0.000 A 
ATOM     24  C   UNL     1       5.479   6.504  17.721  0.00  0.00    +0.000 A 
BRANCH  22  25
ATOM     25  N   UNL     1       6.827   4.718  14.698  0.00  0.00    +0.000 N 
ATOM     26  O   UNL     1       6.468   3.775  13.979  0.00  0.00    +0.000 OA
ATOM     27  O   UNL     1       7.849   5.395  14.511  0.00  0.00    +0.000 OA
ENDBRANCH  22  25
ENDBRANCH  18  19
ENDBRANCH   3  18
TORSDOF 6
ENDMDL
MODEL 4
REMARK VINA RESULT:      -7.6      6.607      9.302
REMARK  Name = 
REMARK  6 active torsions:
REMARK  status: ('A' for Active; 'I' for Inactive)
REMARK    1  A    between atoms: C_2  and  C_3
REMARK    2  A    between atoms: C_2  and  C_13
REMARK    3  A    between atoms: C_3  and  C_5
REMARK    4  A    between atoms: N_15  and  C_16
REMARK    5  A    between atoms: C_16  and  C_17
REMARK    6  A    between atoms: C_20  and  N_21
REMARK                            x       y       z     vdW  Elec       q    Type
REMARK                         _______ _______ _______ _____ _____    ______ ____
ROOT
ATOM      1  C   UNL     1       7.761   7.624  17.614  0.00  0.00    +0.000 A 
ATOM      2  C   UNL     1       8.596   7.907  18.678  0.00  0.00    +0.000 A 
ATOM      3  N   UNL     1       8.583   9.267  18.762  0.00  0.00    +0.000 N 
ATOM      4  N   UNL     1       7.747   9.801  17.853  0.00  0.00    +0.000 NA
ATOM      5  N   UNL     1       7.235   8.802  17.145  0.00  0.00    +0.000 NA
ENDROOT
BRANCH   1   7
ATOM      6  O   UNL     1       7.377   6.105  15.837  0.00  0.00    +0.000 OA
ATOM      7  C   UNL     1       7.437   6.329  17.042  0.00  0.00    +0.000 C 
BRANCH   7   8
ATOM      8  C   UNL     1       7.066   5.191  17.972  0.00  0.00    +0.000 C 
ATOM      9  O   UNL     1       7.953   4.633  18.606  0.00  0.00    +0.000 OA
BRANCH   8  10
ATOM     10  C   UNL     1       5.626   4.868  18.137  0.00  0.00    +0.000 A 
ATOM     11  C   UNL     1       4.956   5.341  19.279  0.00  0.00    +0.000 A 
ATOM     12  C   UNL     1       3.604   5.048  19.478  0.00  0.00    +0.000 A 
ATOM     13  C   UNL     1       2.918   4.282  18.540  0.00  0.00    +0.000 A 
ATOM     14 CL   UNL     1       1.251   3.936  18.780  0.00  0.00    +0.000 Cl
ATOM     15  C   UNL     1       3.572   3.800  17.410  0.00  0.00    +0.000 A 
ATOM     16  C   UNL     1       4.926   4.087  17.205  0.00  0.00    +0.000 A 
ATOM     17 CL   UNL     1       5.635   3.473  15.754  0.00  0.00    +0.000 Cl
ENDBRANCH   8  10
ENDBRANCH   7   8
ENDBRANCH   1   7
BRANCH   3  18
ATOM     18  C   UNL     1       9.451  10.116  19.558  0.00  0.00    +0.000 C 
BRANCH  18  19
ATOM     19  C   UNL     1       9.654  11.487  18.956  0.00  0.00    +0.000 A 
ATOM     20  C   UNL     1       9.049  12.612  19.541  0.00  0.00    +0.000 A 
ATOM     21  C   UNL     1       9.312  13.898  19.057  0.00  0.00    +0.000 A 
ATOM     22  C   UNL     1      10.190  14.063  17.978  0.00  0.00    +0.000 A 
ATOM     23  C   UNL     1      10.783  12.952  17.369  0.00  0.00    +0.000 A 
ATOM     24  C   UNL     1      10.515  11.671  17.860  0.00  0.00    +0.000 A 
BRANCH  22  25
ATOM     25  N   UNL     1      10.509  15.414  17.500  0.00  0.00    +0.000 N 
ATOM     26  O   UNL     1      10.041  16.374  18.129  0.00  0.00    +0.000 OA
ATOM     27  O   UNL     1      11.231  15.517  16.498  0.00  0.00    +0.000 OA
ENDBRANCH  22  25
ENDBRANCH  18  19
ENDBRANCH   3  18
TORSDOF 6
ENDMDL
MODEL 5
REMARK VINA RESULT:      -7.5      1.088      1.535
REMARK  Name = 
REMARK  6 active torsions:
REMARK  status: ('A' for Active; 'I' for Inactive)
REMARK    1  A    between atoms: C_2  and  C_3
REMARK    2  A    between atoms: C_2  and  C_13
REMARK    3  A    between atoms: C_3  and  C_5
REMARK    4  A    between atoms: N_15  and  C_16
REMARK    5  A    between atoms: C_16  and  C_17
REMARK    6  A    between atoms: C_20  and  N_21
REMARK                            x       y       z     vdW  Elec       q    Type
REMARK                         _______ _______ _______ _____ _____    ______ ____
ROOT
ATOM      1  C   UNL     1       2.198   7.892  18.908  0.00  0.00    +0.000 A 
ATOM      2  C   UNL     1       3.226   7.133  18.382  0.00  0.00    +0.000 A 
ATOM      3  N   UNL     1       3.324   6.069  19.227  0.00  0.00    +0.000 N 
ATOM      4  N   UNL     1       2.380   6.121  20.184  0.00  0.00    +0.000 NA
ATOM      5  N   UNL     1       1.682   7.234  19.997  0.00  0.00    +0.000 NA
ENDROOT
BRANCH   1   7
ATOM      6  O   UNL     1       2.071   9.725  17.414  0.00  0.00    +0.000 OA
ATOM      7  C   UNL     1       1.688   9.167  18.438  0.00  0.00    +0.000 C 
BRANCH   7   8
ATOM      8  C   UNL     1       0.680   9.912  19.290  0.00  0.00    +0.000 C 
ATOM      9  O   UNL     1       0.975  10.194  20.444  0.00  0.00    +0.000 OA
BRANCH   8  10
ATOM     10  C   UNL     1      -0.588  10.344  18.649  0.00  0.00    +0.000 A 
ATOM     11  C   UNL     1      -1.090   9.591  17.572  0.00  0.00    +0.000 A 
ATOM     12  C   UNL     1      -2.272   9.972  16.933  0.00  0.00    +0.000 A 
ATOM     13  C   UNL     1      -2.956  11.104  17.364  0.00  0.00    +0.000 A 
ATOM     14 CL   UNL     1      -4.419  11.562  16.584  0.00  0.00    +0.000 Cl
ATOM     15  C   UNL     1      -2.467  11.864  18.422  0.00  0.00    +0.000 A 
ATOM     16  C   UNL     1      -1.281  11.490  19.066  0.00  0.00    +0.000 A 
ATOM     17 CL   UNL     1      -0.777  12.479  20.390  0.00  0.00    +0.000 Cl
ENDBRANCH   8  10
ENDBRANCH   7   8
ENDBRANCH   1   7
BRANCH   3  18
ATOM     18  C   UNL     1       4.377   5.070  19.281  0.00  0.00    +0.000 C 
BRANCH  18  19
ATOM     19  C   UNL     1       5.100   4.899  17.965  0.00  0.00    +0.000 A 
ATOM     20  C   UNL     1       4.430   4.356  16.856  0.00  0.00    +0.000 A 
ATOM     21  C   UNL     1       5.055   4.289  15.606  0.00  0.00    +0.000 A 
ATOM     22  C   UNL     1       6.363   4.769  15.461  0.00  0.00    +0.000 A 
ATOM     23  C   UNL     1       7.053   5.291  16.561  0.00  0.00    +0.000 A 
ATOM     24  C   UNL     1       6.420   5.356  17.806  0.00  0.00    +0.000 A 
BRANCH  22  25
ATOM     25  N   UNL     1       7.005   4.747  14.141  0.00  0.00    +0.000 N 
ATOM     26  O   UNL     1       7.883   5.592  13.913  0.00  0.00    +0.000 OA
ATOM     27  O   UNL     1       6.634   3.883  13.333  0.00  0.00    +0.000 OA
ENDBRANCH  22  25
ENDBRANCH  18  19
ENDBRANCH   3  18
TORSDOF 6
ENDMDL
MODEL 6
REMARK VINA RESULT:      -7.5      4.528      9.182
REMARK  Name = 
REMARK  6 active torsions:
REMARK  status: ('A' for Active; 'I' for Inactive)
REMARK    1  A    between atoms: C_2  and  C_3
REMARK    2  A    between atoms: C_2  and  C_13
REMARK    3  A    between atoms: C_3  and  C_5
REMARK    4  A    between atoms: N_15  and  C_16
REMARK    5  A    between atoms: C_16  and  C_17
REMARK    6  A    between atoms: C_20  and  N_21
REMARK                            x       y       z     vdW  Elec       q    Type
REMARK                         _______ _______ _______ _____ _____    ______ ____
ROOT
ATOM      1  C   UNL     1       2.149   7.189  19.227  0.00  0.00    +0.000 A 
ATOM      2  C   UNL     1       2.208   8.275  18.375  0.00  0.00    +0.000 A 
ATOM      3  N   UNL     1       1.633   9.288  19.083  0.00  0.00    +0.000 N 
ATOM      4  N   UNL     1       1.292   8.883  20.319  0.00  0.00    +0.000 NA
ATOM      5  N   UNL     1       1.607   7.598  20.420  0.00  0.00    +0.000 NA
ENDROOT
BRANCH   1   7
ATOM      6  O   UNL     1       1.819   4.863  18.924  0.00  0.00    +0.000 OA
ATOM      7  C   UNL     1       2.580   5.824  18.978  0.00  0.00    +0.000 C 
BRANCH   7   8
ATOM      8  C   UNL     1       4.063   5.536  18.854  0.00  0.00    +0.000 C 
ATOM      9  O   UNL     1       4.758   5.576  19.860  0.00  0.00    +0.000 OA
BRANCH   8  10
ATOM     10  C   UNL     1       4.583   5.127  17.525  0.00  0.00    +0.000 A 
ATOM     11  C   UNL     1       5.037   6.125  16.643  0.00  0.00    +0.000 A 
ATOM     12  C   UNL     1       5.521   5.784  15.378  0.00  0.00    +0.000 A 
ATOM     13  C   UNL     1       5.554   4.449  14.988  0.00  0.00    +0.000 A 
ATOM     14 CL   UNL     1       6.165   4.030  13.436  0.00  0.00    +0.000 Cl
ATOM     15  C   UNL     1       5.100   3.452  15.847  0.00  0.00    +0.000 A 
ATOM     16  C   UNL     1       4.611   3.786  17.115  0.00  0.00    +0.000 A 
ATOM     17 CL   UNL     1       4.106   2.474  18.119  0.00  0.00    +0.000 Cl
ENDBRANCH   8  10
ENDBRANCH   7   8
ENDBRANCH   1   7
BRANCH   3  18
ATOM     18  C   UNL     1       1.231  10.596  18.596  0.00  0.00    +0.000 C 
BRANCH  18  19
ATOM     19  C   UNL     1      -0.268  10.774  18.539  0.00  0.00    +0.000 A 
ATOM     20  C   UNL     1      -0.891  11.772  19.306  0.00  0.00    +0.000 A 
ATOM     21  C   UNL     1      -2.263  12.016  19.184  0.00  0.00    +0.000 A 
ATOM     22  C   UNL     1      -3.022  11.255  18.286  0.00  0.00    +0.000 A 
ATOM     23  C   UNL     1      -2.422  10.241  17.531  0.00  0.00    +0.000 A 
ATOM     24  C   UNL     1      -1.050  10.005  17.659  0.00  0.00    +0.000 A 
BRANCH  22  25
ATOM     25  N   UNL     1      -4.452  11.541  18.117  0.00  0.00    +0.000 N 
ATOM     26  O   UNL     1      -5.003  11.135  17.084  0.00  0.00    +0.000 OA
ATOM     27  O   UNL     1      -5.026  12.167  19.020  0.00  0.00    +0.000 OA
ENDBRANCH  22  25
ENDBRANCH  18  19
ENDBRANCH   3  18
TORSDOF 6
ENDMDL
MODEL 7
REMARK VINA RESULT:      -7.5      5.920      8.608
REMARK  Name = 
REMARK  6 active torsions:
REMARK  status: ('A' for Active; 'I' for Inactive)
REMARK    1  A    between atoms: C_2  and  C_3
REMARK    2  A    between atoms: C_2  and  C_13
REMARK    3  A    between atoms: C_3  and  C_5
REMARK    4  A    between atoms: N_15  and  C_16
REMARK    5  A    between atoms: C_16  and  C_17
REMARK    6  A    between atoms: C_20  and  N_21
REMARK                            x       y       z     vdW  Elec       q    Type
REMARK                         _______ _______ _______ _____ _____    ______ ____
ROOT
ATOM      1  C   UNL     1       7.477   6.862  17.460  0.00  0.00    +0.000 A 
ATOM      2  C   UNL     1       8.154   7.177  18.623  0.00  0.00    +0.000 A 
ATOM      3  N   UNL     1       8.326   8.527  18.555  0.00  0.00    +0.000 N 
ATOM      4  N   UNL     1       7.743   9.036  17.455  0.00  0.00    +0.000 NA
ATOM      5  N   UNL     1       7.216   8.024  16.777  0.00  0.00    +0.000 NA
ENDROOT
BRANCH   1   7
ATOM      6  O   UNL     1       7.740   4.534  17.109  0.00  0.00    +0.000 OA
ATOM      7  C   UNL     1       7.067   5.553  16.983  0.00  0.00    +0.000 C 
BRANCH   7   8
ATOM      8  C   UNL     1       5.771   5.429  16.208  0.00  0.00    +0.000 C 
ATOM      9  O   UNL     1       5.766   5.707  15.016  0.00  0.00    +0.000 OA
BRANCH   8  10
ATOM     10  C   UNL     1       4.585   4.886  16.919  0.00  0.00    +0.000 A 
ATOM     11  C   UNL     1       4.388   3.493  16.934  0.00  0.00    +0.000 A 
ATOM     12  C   UNL     1       3.278   2.944  17.580  0.00  0.00    +0.000 A 
ATOM     13  C   UNL     1       2.362   3.780  18.210  0.00  0.00    +0.000 A 
ATOM     14 CL   UNL     1       1.004   3.099  19.017  0.00  0.00    +0.000 Cl
ATOM     15  C   UNL     1       2.540   5.160  18.195  0.00  0.00    +0.000 A 
ATOM     16  C   UNL     1       3.648   5.718  17.548  0.00  0.00    +0.000 A 
ATOM     17 CL   UNL     1       3.797   7.438  17.617  0.00  0.00    +0.000 Cl
ENDBRANCH   8  10
ENDBRANCH   7   8
ENDBRANCH   1   7
BRANCH   3  18
ATOM     18  C   UNL     1       9.164   9.360  19.400  0.00  0.00    +0.000 C 
BRANCH  18  19
ATOM     19  C   UNL     1       9.527  10.680  18.761  0.00  0.00    +0.000 A 
ATOM     20  C   UNL     1       8.529  11.482  18.182  0.00  0.00    +0.000 A 
ATOM     21  C   UNL     1       8.835  12.751  17.680  0.00  0.00    +0.000 A 
ATOM     22  C   UNL     1      10.151  13.226  17.757  0.00  0.00    +0.000 A 
ATOM     23  C   UNL     1      11.161  12.430  18.310  0.00  0.00    +0.000 A 
ATOM     24  C   UNL     1      10.845  11.163  18.810  0.00  0.00    +0.000 A 
BRANCH  22  25
ATOM     25  N   UNL     1      10.467  14.578  17.278  0.00  0.00    +0.000 N 
ATOM     26  O   UNL     1      11.446  14.709  16.530  0.00  0.00    +0.000 OA
ATOM     27  O   UNL     1       9.733  15.506  17.646  0.00  0.00    +0.000 OA
ENDBRANCH  22  25
ENDBRANCH  18  19
ENDBRANCH   3  18
TORSDOF 6
ENDMDL
MODEL 8
REMARK VINA RESULT:      -7.4      3.021      3.828
REMARK  Name = 
REMARK  6 active torsions:
REMARK  status: ('A' for Active; 'I' for Inactive)
REMARK    1  A    between atoms: C_2  and  C_3
REMARK    2  A    between atoms: C_2  and  C_13
REMARK    3  A    between atoms: C_3  and  C_5
REMARK    4  A    between atoms: N_15  and  C_16
REMARK    5  A    between atoms: C_16  and  C_17
REMARK    6  A    between atoms: C_20  and  N_21
REMARK                            x       y       z     vdW  Elec       q    Type
REMARK                         _______ _______ _______ _____ _____    ______ ____
ROOT
ATOM      1  C   UNL     1       1.055   9.299  19.658  0.00  0.00    +0.000 A 
ATOM      2  C   UNL     1       2.035   8.330  19.570  0.00  0.00    +0.000 A 
ATOM      3  N   UNL     1       2.484   8.423  18.287  0.00  0.00    +0.000 N 
ATOM      4  N   UNL     1       1.874   9.425  17.631  0.00  0.00    +0.000 NA
ATOM      5  N   UNL     1       0.997   9.972  18.463  0.00  0.00    +0.000 NA
ENDROOT
BRANCH   1   7
ATOM      6  O   UNL     1      -0.559   8.819  21.324  0.00  0.00    +0.000 OA
ATOM      7  C   UNL     1       0.203   9.619  20.790  0.00  0.00    +0.000 C 
BRANCH   7   8
ATOM      8  C   UNL     1       0.177  11.043  21.308  0.00  0.00    +0.000 C 
ATOM      9  O   UNL     1       1.227  11.669  21.369  0.00  0.00    +0.000 OA
BRANCH   8  10
ATOM     10  C   UNL     1      -1.143  11.642  21.631  0.00  0.00    +0.000 A 
ATOM     11  C   UNL     1      -1.598  11.592  22.961  0.00  0.00    +0.000 A 
ATOM     12  C   UNL     1      -2.840  12.131  23.304  0.00  0.00    +0.000 A 
ATOM     13  C   UNL     1      -3.632  12.720  22.323  0.00  0.00    +0.000 A 
ATOM     14 CL   UNL     1      -5.154  13.396  22.752  0.00  0.00    +0.000 Cl
ATOM     15  C   UNL     1      -3.198  12.768  21.002  0.00  0.00    +0.000 A 
ATOM     16  C   UNL     1      -1.956  12.228  20.650  0.00  0.00    +0.000 A 
ATOM     17 CL   UNL     1      -1.494  12.371  18.991  0.00  0.00    +0.000 Cl
ENDBRANCH   8  10
ENDBRANCH   7   8
ENDBRANCH   1   7
BRANCH   3  18
ATOM     18  C   UNL     1       3.358   7.501  17.582  0.00  0.00    +0.000 C 
BRANCH  18  19
ATOM     19  C   UNL     1       3.176   6.064  18.013  0.00  0.00    +0.000 A 
ATOM     20  C   UNL     1       1.972   5.392  17.744  0.00  0.00    +0.000 A 
ATOM     21  C   UNL     1       1.829   4.034  18.044  0.00  0.00    +0.000 A 
ATOM     22  C   UNL     1       2.900   3.337  18.619  0.00  0.00    +0.000 A 
ATOM     23  C   UNL     1       4.098   3.996  18.915  0.00  0.00    +0.000 A 
ATOM     24  C   UNL     1       4.232   5.354  18.610  0.00  0.00    +0.000 A 
BRANCH  22  25
ATOM     25  N   UNL     1       2.773   1.899  18.888  0.00  0.00    +0.000 N 
ATOM     26  O   UNL     1       3.681   1.156  18.491  0.00  0.00    +0.000 OA
ATOM     27  O   UNL     1       1.767   1.514  19.502  0.00  0.00    +0.000 OA
ENDBRANCH  22  25
ENDBRANCH  18  19
ENDBRANCH   3  18
TORSDOF 6
ENDMDL
MODEL 9
REMARK VINA RESULT:      -7.4      4.469      9.168
REMARK  Name = 
REMARK  6 active torsions:
REMARK  status: ('A' for Active; 'I' for Inactive)
REMARK    1  A    between atoms: C_2  and  C_3
REMARK    2  A    between atoms: C_2  and  C_13
REMARK    3  A    between atoms: C_3  and  C_5
REMARK    4  A    between atoms: N_15  and  C_16
REMARK    5  A    between atoms: C_16  and  C_17
REMARK    6  A    between atoms: C_20  and  N_21
REMARK                            x       y       z     vdW  Elec       q    Type
REMARK                         _______ _______ _______ _____ _____    ______ ____
ROOT
ATOM      1  C   UNL     1       2.424   7.298  18.682  0.00  0.00    +0.000 A 
ATOM      2  C   UNL     1       1.663   8.106  19.505  0.00  0.00    +0.000 A 
ATOM      3  N   UNL     1       1.585   9.289  18.834  0.00  0.00    +0.000 N 
ATOM      4  N   UNL     1       2.200   9.211  17.641  0.00  0.00    +0.000 NA
ATOM      5  N   UNL     1       2.716   7.993  17.535  0.00  0.00    +0.000 NA
ENDROOT
BRANCH   1   7
ATOM      6  O   UNL     1       2.130   5.032  19.309  0.00  0.00    +0.000 OA
ATOM      7  C   UNL     1       2.865   5.934  18.916  0.00  0.00    +0.000 C 
BRANCH   7   8
ATOM      8  C   UNL     1       4.334   5.601  18.751  0.00  0.00    +0.000 C 
ATOM      9  O   UNL     1       5.065   5.654  19.731  0.00  0.00    +0.000 OA
BRANCH   8  10
ATOM     10  C   UNL     1       4.797   5.138  17.418  0.00  0.00    +0.000 A 
ATOM     11  C   UNL     1       5.414   6.065  16.559  0.00  0.00    +0.000 A 
ATOM     12  C   UNL     1       5.851   5.672  15.292  0.00  0.00    +0.000 A 
ATOM     13  C   UNL     1       5.673   4.356  14.877  0.00  0.00    +0.000 A 
ATOM     14 CL   UNL     1       6.226   3.873  13.322  0.00  0.00    +0.000 Cl
ATOM     15  C   UNL     1       5.056   3.431  15.714  0.00  0.00    +0.000 A 
ATOM     16  C   UNL     1       4.613   3.817  16.984  0.00  0.00    +0.000 A 
ATOM     17 CL   UNL     1       3.893   2.585  17.958  0.00  0.00    +0.000 Cl
ENDBRANCH   8  10
ENDBRANCH   7   8
ENDBRANCH   1   7
BRANCH   3  18
ATOM     18  C   UNL     1       1.092  10.562  19.331  0.00  0.00    +0.000 C 
BRANCH  18  19
ATOM     19  C   UNL     1      -0.319  10.867  18.885  0.00  0.00    +0.000 A 
ATOM     20  C   UNL     1      -0.917  10.111  17.863  0.00  0.00    +0.000 A 
ATOM     21  C   UNL     1      -2.255  10.314  17.512  0.00  0.00    +0.000 A 
ATOM     22  C   UNL     1      -3.007  11.283  18.190  0.00  0.00    +0.000 A 
ATOM     23  C   UNL     1      -2.421  12.061  19.194  0.00  0.00    +0.000 A 
ATOM     24  C   UNL     1      -1.082  11.850  19.539  0.00  0.00    +0.000 A 
BRANCH  22  25
ATOM     25  N   UNL     1      -4.426  11.465  17.861  0.00  0.00    +0.000 N 
ATOM     26  O   UNL     1      -5.231  11.537  18.801  0.00  0.00    +0.000 OA
ATOM     27  O   UNL     1      -4.736  11.540  16.663  0.00  0.00    +0.000 OA
ENDBRANCH  22  25
ENDBRANCH  18  19
ENDBRANCH   3  18
TORSDOF 6
ENDMDL
