MODEL 1
REMARK VINA RESULT:      -8.0      0.000      0.000
REMARK  Name = 
REMARK  7 active torsions:
REMARK  status: ('A' for Active; 'I' for Inactive)
REMARK    1  A    between atoms: C_1  and  O_2
REMARK    2  A    between atoms: O_2  and  C_3
REMARK    3  A    between atoms: C_8  and  O_9
REMARK    4  A    between atoms: O_9  and  C_10
REMARK    5  A    between atoms: C_10  and  C_11
REMARK    6  A    between atoms: C_17  and  O_18
REMARK    7  A    between atoms: O_18  and  C_19
REMARK                            x       y       z     vdW  Elec       q    Type
REMARK                         _______ _______ _______ _____ _____    ______ ____
ROOT
ATOM      1  C   UNL     1       2.093   5.195  20.342  0.00  0.00    +0.000 C 
ATOM      2  O   UNL     1       2.166   4.751  21.486  0.00  0.00    +0.000 OA
ATOM      3  N   UNL     1       1.776   4.384  19.244  0.00  0.00    +0.000 N 
ATOM      4  C   UNL     1       1.235   3.052  19.473  0.00  0.00    +0.000 C 
ATOM      5  C   UNL     1       2.206   1.975  19.010  0.00  0.00    +0.000 C 
ATOM      6  C   UNL     1       2.599   2.189  17.545  0.00  0.00    +0.000 C 
ATOM      7  C   UNL     1       3.140   3.604  17.299  0.00  0.00    +0.000 C 
ATOM      8  C   UNL     1       2.174   4.667  17.858  0.00  0.00    +0.000 C 
ENDROOT
BRANCH   1   9
ATOM      9  C   UNL     1       2.190   6.711  20.068  0.00  0.00    +0.000 C 
BRANCH   9  10
ATOM     10  O   UNL     1       1.437   7.550  20.920  0.00  0.00    +0.000 OA
BRANCH  10  16
ATOM     11  C   UNL     1       0.926   9.981  21.285  0.00  0.00    +0.000 A 
ATOM     12  C   UNL     1       0.773  11.236  20.670  0.00  0.00    +0.000 A 
ATOM     13  C   UNL     1       0.852  11.364  19.287  0.00  0.00    +0.000 A 
ATOM     14  C   UNL     1       1.134  10.249  18.509  0.00  0.00    +0.000 A 
ATOM     15  C   UNL     1       1.343   9.006  19.117  0.00  0.00    +0.000 A 
ATOM     16  C   UNL     1       1.237   8.851  20.511  0.00  0.00    +0.000 A 
BRANCH  11  18
ATOM     17  C   UNL     1      -0.517   9.855  23.159  0.00  0.00    +0.000 C 
ATOM     18  O   UNL     1       0.815   9.882  22.649  0.00  0.00    +0.000 OA
ENDBRANCH  11  18
ENDBRANCH  10  16
ENDBRANCH   9  10
ENDBRANCH   1   9
BRANCH   7  19
ATOM     19  O   UNL     1       4.399   3.781  17.963  0.00  0.00    +0.000 OA
BRANCH  19  20
ATOM     20  C   UNL     1       5.408   4.442  17.324  0.00  0.00    +0.000 A 
ATOM     21  C   UNL     1       6.198   5.455  17.852  0.00  0.00    +0.000 A 
ATOM     22  C   UNL     1       7.178   6.013  17.046  0.00  0.00    +0.000 A 
ATOM     23  N   UNL     1       7.414   5.635  15.774  0.00  0.00    +0.000 NA
ATOM     24  C   UNL     1       6.632   4.650  15.283  0.00  0.00    +0.000 A 
ATOM     25  C   UNL     1       5.632   4.029  16.011  0.00  0.00    +0.000 A 
ENDBRANCH  19  20
ENDBRANCH   7  19
TORSDOF 6
ENDMDL
MODEL 2
REMARK VINA RESULT:      -7.8      0.886      1.344
REMARK  Name = 
REMARK  7 active torsions:
REMARK  status: ('A' for Active; 'I' for Inactive)
REMARK    1  A    between atoms: C_1  and  O_2
REMARK    2  A    between atoms: O_2  and  C_3
REMARK    3  A    between atoms: C_8  and  O_9
REMARK    4  A    between atoms: O_9  and  C_10
REMARK    5  A    between atoms: C_10  and  C_11
REMARK    6  A    between atoms: C_17  and  O_18
REMARK    7  A    between atoms: O_18  and  C_19
REMARK                            x       y       z     vdW  Elec       q    Type
REMARK                         _______ _______ _______ _____ _____    ______ ____
ROOT
ATOM      1  C   UNL     1       1.916   4.326  20.711  0.00  0.00    +0.000 C 
ATOM      2  O   UNL     1       2.247   3.734  21.737  0.00  0.00    +0.000 OA
ATOM      3  N   UNL     1       1.780   3.669  19.481  0.00  0.00    +0.000 N 
ATOM      4  C   UNL     1       1.741   2.213  19.449  0.00  0.00    +0.000 C 
ATOM      5  C   UNL     1       2.965   1.644  18.745  0.00  0.00    +0.000 C 
ATOM      6  C   UNL     1       3.115   2.244  17.343  0.00  0.00    +0.000 C 
ATOM      7  C   UNL     1       3.125   3.778  17.376  0.00  0.00    +0.000 C 
ATOM      8  C   UNL     1       1.920   4.318  18.170  0.00  0.00    +0.000 C 
ENDROOT
BRANCH   1   9
ATOM      9  C   UNL     1       1.472   5.803  20.750  0.00  0.00    +0.000 C 
BRANCH   9  10
ATOM     10  O   UNL     1       2.398   6.748  20.251  0.00  0.00    +0.000 OA
BRANCH  10  16
ATOM     11  C   UNL     1       1.152   8.911  20.516  0.00  0.00    +0.000 A 
ATOM     12  C   UNL     1       0.739  10.095  19.879  0.00  0.00    +0.000 A 
ATOM     13  C   UNL     1       0.995  10.299  18.526  0.00  0.00    +0.000 A 
ATOM     14  C   UNL     1       1.707   9.346  17.810  0.00  0.00    +0.000 A 
ATOM     15  C   UNL     1       2.170   8.191  18.450  0.00  0.00    +0.000 A 
ATOM     16  C   UNL     1       1.895   7.952  19.809  0.00  0.00    +0.000 A 
BRANCH  11  18
ATOM     17  C   UNL     1      -0.283   9.428  22.328  0.00  0.00    +0.000 C 
ATOM     18  O   UNL     1       0.860   8.726  21.844  0.00  0.00    +0.000 OA
ENDBRANCH  11  18
ENDBRANCH  10  16
ENDBRANCH   9  10
ENDBRANCH   1   9
BRANCH   7  19
ATOM     19  O   UNL     1       4.312   4.259  18.022  0.00  0.00    +0.000 OA
BRANCH  19  20
ATOM     20  C   UNL     1       5.331   4.761  17.266  0.00  0.00    +0.000 A 
ATOM     21  C   UNL     1       5.728   4.315  16.012  0.00  0.00    +0.000 A 
ATOM     22  C   UNL     1       6.794   4.951  15.395  0.00  0.00    +0.000 A 
ATOM     23  N   UNL     1       7.475   5.979  15.938  0.00  0.00    +0.000 NA
ATOM     24  C   UNL     1       7.071   6.394  17.157  0.00  0.00    +0.000 A 
ATOM     25  C   UNL     1       6.016   5.825  17.850  0.00  0.00    +0.000 A 
ENDBRANCH  19  20
ENDBRANCH   7  19
TORSDOF 6
ENDMDL
MODEL 3
REMARK VINA RESULT:      -7.6      1.175      1.549
REMARK  Name = 
REMARK  7 active torsions:
REMARK  status: ('A' for Active; 'I' for Inactive)
REMARK    1  A    between atoms: C_1  and  O_2
REMARK    2  A    between atoms: O_2  and  C_3
REMARK    3  A    between atoms: C_8  and  O_9
REMARK    4  A    between atoms: O_9  and  C_10
REMARK    5  A    between atoms: C_10  and  C_11
REMARK    6  A    between atoms: C_17  and  O_18
REMARK    7  A    between atoms: O_18  and  C_19
REMARK                            x       y       z     vdW  Elec       q    Type
REMARK                         _______ _______ _______ _____ _____    ______ ____
ROOT
ATOM      1  C   UNL     1       2.250   5.869  19.292  0.00  0.00    +0.000 C 
ATOM      2  O   UNL     1       2.199   6.064  20.506  0.00  0.00    +0.000 OA
ATOM      3  N   UNL     1       2.059   4.599  18.731  0.00  0.00    +0.000 N 
ATOM      4  C   UNL     1       1.501   3.533  19.551  0.00  0.00    +0.000 C 
ATOM      5  C   UNL     1       2.521   2.428  19.788  0.00  0.00    +0.000 C 
ATOM      6  C   UNL     1       3.071   1.901  18.459  0.00  0.00    +0.000 C 
ATOM      7  C   UNL     1       3.631   3.030  17.583  0.00  0.00    +0.000 C 
ATOM      8  C   UNL     1       2.604   4.171  17.436  0.00  0.00    +0.000 C 
ENDROOT
BRANCH   1   9
ATOM      9  C   UNL     1       2.370   7.045  18.301  0.00  0.00    +0.000 C 
BRANCH   9  10
ATOM     10  O   UNL     1       2.507   8.332  18.869  0.00  0.00    +0.000 OA
BRANCH  10  16
ATOM     11  C   UNL     1       0.745   9.368  20.326  0.00  0.00    +0.000 A 
ATOM     12  C   UNL     1      -0.439  10.126  20.350  0.00  0.00    +0.000 A 
ATOM     13  C   UNL     1      -1.064  10.503  19.165  0.00  0.00    +0.000 A 
ATOM     14  C   UNL     1      -0.487  10.168  17.947  0.00  0.00    +0.000 A 
ATOM     15  C   UNL     1       0.721   9.462  17.915  0.00  0.00    +0.000 A 
ATOM     16  C   UNL     1       1.352   9.046  19.102  0.00  0.00    +0.000 A 
BRANCH  11  18
ATOM     17  C   UNL     1       0.587   9.315  22.689  0.00  0.00    +0.000 C 
ATOM     18  O   UNL     1       1.322   8.988  21.512  0.00  0.00    +0.000 OA
ENDBRANCH  11  18
ENDBRANCH  10  16
ENDBRANCH   9  10
ENDBRANCH   1   9
BRANCH   7  19
ATOM     19  O   UNL     1       4.809   3.591  18.179  0.00  0.00    +0.000 OA
BRANCH  19  20
ATOM     20  C   UNL     1       5.646   4.356  17.421  0.00  0.00    +0.000 A 
ATOM     21  C   UNL     1       6.082   4.077  16.132  0.00  0.00    +0.000 A 
ATOM     22  C   UNL     1       6.938   4.978  15.518  0.00  0.00    +0.000 A 
ATOM     23  N   UNL     1       7.379   6.113  16.095  0.00  0.00    +0.000 NA
ATOM     24  C   UNL     1       6.942   6.361  17.347  0.00  0.00    +0.000 A 
ATOM     25  C   UNL     1       6.083   5.526  18.041  0.00  0.00    +0.000 A 
ENDBRANCH  19  20
ENDBRANCH   7  19
TORSDOF 6
ENDMDL
MODEL 4
REMARK VINA RESULT:      -7.4      1.209      2.214
REMARK  Name = 
REMARK  7 active torsions:
REMARK  status: ('A' for Active; 'I' for Inactive)
REMARK    1  A    between atoms: C_1  and  O_2
REMARK    2  A    between atoms: O_2  and  C_3
REMARK    3  A    between atoms: C_8  and  O_9
REMARK    4  A    between atoms: O_9  and  C_10
REMARK    5  A    between atoms: C_10  and  C_11
REMARK    6  A    between atoms: C_17  and  O_18
REMARK    7  A    between atoms: O_18  and  C_19
REMARK                            x       y       z     vdW  Elec       q    Type
REMARK                         _______ _______ _______ _____ _____    ______ ____
ROOT
ATOM      1  C   UNL     1       1.766   4.391  20.693  0.00  0.00    +0.000 C 
ATOM      2  O   UNL     1       2.257   3.947  21.730  0.00  0.00    +0.000 OA
ATOM      3  N   UNL     1       1.690   3.632  19.518  0.00  0.00    +0.000 N 
ATOM      4  C   UNL     1       1.922   2.195  19.579  0.00  0.00    +0.000 C 
ATOM      5  C   UNL     1       3.191   1.810  18.831  0.00  0.00    +0.000 C 
ATOM      6  C   UNL     1       3.150   2.323  17.389  0.00  0.00    +0.000 C 
ATOM      7  C   UNL     1       2.874   3.831  17.325  0.00  0.00    +0.000 C 
ATOM      8  C   UNL     1       1.634   4.198  18.163  0.00  0.00    +0.000 C 
ENDROOT
BRANCH   1   9
ATOM      9  C   UNL     1       1.057   5.761  20.670  0.00  0.00    +0.000 C 
BRANCH   9  10
ATOM     10  O   UNL     1       1.881   6.889  20.456  0.00  0.00    +0.000 OA
BRANCH  10  16
ATOM     11  C   UNL     1       1.152   9.187  19.755  0.00  0.00    +0.000 A 
ATOM     12  C   UNL     1       0.539  10.383  20.169  0.00  0.00    +0.000 A 
ATOM     13  C   UNL     1       0.161  10.565  21.496  0.00  0.00    +0.000 A 
ATOM     14  C   UNL     1       0.347   9.537  22.411  0.00  0.00    +0.000 A 
ATOM     15  C   UNL     1       0.905   8.323  21.995  0.00  0.00    +0.000 A 
ATOM     16  C   UNL     1       1.321   8.130  20.665  0.00  0.00    +0.000 A 
BRANCH  11  18
ATOM     17  C   UNL     1       2.086  10.216  17.838  0.00  0.00    +0.000 C 
ATOM     18  O   UNL     1       1.539   9.048  18.446  0.00  0.00    +0.000 OA
ENDBRANCH  11  18
ENDBRANCH  10  16
ENDBRANCH   9  10
ENDBRANCH   1   9
BRANCH   7  19
ATOM     19  O   UNL     1       3.983   4.567  17.860  0.00  0.00    +0.000 OA
BRANCH  19  20
ATOM     20  C   UNL     1       5.172   4.570  17.190  0.00  0.00    +0.000 A 
ATOM     21  C   UNL     1       5.346   4.539  15.812  0.00  0.00    +0.000 A 
ATOM     22  C   UNL     1       6.638   4.545  15.312  0.00  0.00    +0.000 A 
ATOM     23  N   UNL     1       7.745   4.577  16.080  0.00  0.00    +0.000 NA
ATOM     24  C   UNL     1       7.550   4.606  17.416  0.00  0.00    +0.000 A 
ATOM     25  C   UNL     1       6.300   4.607  18.009  0.00  0.00    +0.000 A 
ENDBRANCH  19  20
ENDBRANCH   7  19
TORSDOF 6
ENDMDL
MODEL 5
REMARK VINA RESULT:      -7.4      1.068      1.948
REMARK  Name = 
REMARK  7 active torsions:
REMARK  status: ('A' for Active; 'I' for Inactive)
REMARK    1  A    between atoms: C_1  and  O_2
REMARK    2  A    between atoms: O_2  and  C_3
REMARK    3  A    between atoms: C_8  and  O_9
REMARK    4  A    between atoms: O_9  and  C_10
REMARK    5  A    between atoms: C_10  and  C_11
REMARK    6  A    between atoms: C_17  and  O_18
REMARK    7  A    between atoms: O_18  and  C_19
REMARK                            x       y       z     vdW  Elec       q    Type
REMARK                         _______ _______ _______ _____ _____    ______ ____
ROOT
ATOM      1  C   UNL     1       2.004   5.346  19.895  0.00  0.00    +0.000 C 
ATOM      2  O   UNL     1       1.982   5.164  21.111  0.00  0.00    +0.000 OA
ATOM      3  N   UNL     1       1.893   4.291  18.980  0.00  0.00    +0.000 N 
ATOM      4  C   UNL     1       1.453   2.983  19.446  0.00  0.00    +0.000 C 
ATOM      5  C   UNL     1       2.567   1.952  19.327  0.00  0.00    +0.000 C 
ATOM      6  C   UNL     1       3.107   1.897  17.895  0.00  0.00    +0.000 C 
ATOM      7  C   UNL     1       3.541   3.281  17.393  0.00  0.00    +0.000 C 
ATOM      8  C   UNL     1       2.422   4.319  17.609  0.00  0.00    +0.000 C 
ENDROOT
BRANCH   1   9
ATOM      9  C   UNL     1       1.992   6.771  19.302  0.00  0.00    +0.000 C 
BRANCH   9  10
ATOM     10  O   UNL     1       2.356   7.817  20.180  0.00  0.00    +0.000 OA
BRANCH  10  16
ATOM     11  C   UNL     1       0.652   9.617  19.787  0.00  0.00    +0.000 A 
ATOM     12  C   UNL     1      -0.342  10.419  20.376  0.00  0.00    +0.000 A 
ATOM     13  C   UNL     1      -0.579  10.363  21.746  0.00  0.00    +0.000 A 
ATOM     14  C   UNL     1       0.139   9.471  22.532  0.00  0.00    +0.000 A 
ATOM     15  C   UNL     1       1.090   8.629  21.944  0.00  0.00    +0.000 A 
ATOM     16  C   UNL     1       1.365   8.692  20.567  0.00  0.00    +0.000 A 
BRANCH  11  18
ATOM     17  C   UNL     1       1.959  10.568  18.056  0.00  0.00    +0.000 C 
ATOM     18  O   UNL     1       0.882   9.715  18.437  0.00  0.00    +0.000 OA
ENDBRANCH  11  18
ENDBRANCH  10  16
ENDBRANCH   9  10
ENDBRANCH   1   9
BRANCH   7  19
ATOM     19  O   UNL     1       4.692   3.738  18.117  0.00  0.00    +0.000 OA
BRANCH  19  20
ATOM     20  C   UNL     1       5.608   4.531  17.489  0.00  0.00    +0.000 A 
ATOM     21  C   UNL     1       6.212   5.669  18.009  0.00  0.00    +0.000 A 
ATOM     22  C   UNL     1       7.122   6.351  17.217  0.00  0.00    +0.000 A 
ATOM     23  N   UNL     1       7.459   5.981  15.966  0.00  0.00    +0.000 NA
ATOM     24  C   UNL     1       6.859   4.873  15.483  0.00  0.00    +0.000 A 
ATOM     25  C   UNL     1       5.941   4.123  16.198  0.00  0.00    +0.000 A 
ENDBRANCH  19  20
ENDBRANCH   7  19
TORSDOF 6
ENDMDL
MODEL 6
REMARK VINA RESULT:      -7.4      1.229      2.137
REMARK  Name = 
REMARK  7 active torsions:
REMARK  status: ('A' for Active; 'I' for Inactive)
REMARK    1  A    between atoms: C_1  and  O_2
REMARK    2  A    between atoms: O_2  and  C_3
REMARK    3  A    between atoms: C_8  and  O_9
REMARK    4  A    between atoms: O_9  and  C_10
REMARK    5  A    between atoms: C_10  and  C_11
REMARK    6  A    between atoms: C_17  and  O_18
REMARK    7  A    between atoms: O_18  and  C_19
REMARK                            x       y       z     vdW  Elec       q    Type
REMARK                         _______ _______ _______ _____ _____    ______ ____
ROOT
ATOM      1  C   UNL     1       1.789   4.367  20.778  0.00  0.00    +0.000 C 
ATOM      2  O   UNL     1       2.199   3.830  21.805  0.00  0.00    +0.000 OA
ATOM      3  N   UNL     1       1.668   3.671  19.568  0.00  0.00    +0.000 N 
ATOM      4  C   UNL     1       1.745   2.216  19.571  0.00  0.00    +0.000 C 
ATOM      5  C   UNL     1       2.988   1.728  18.839  0.00  0.00    +0.000 C 
ATOM      6  C   UNL     1       3.044   2.303  17.420  0.00  0.00    +0.000 C 
ATOM      7  C   UNL     1       2.932   3.833  17.417  0.00  0.00    +0.000 C 
ATOM      8  C   UNL     1       1.713   4.296  18.239  0.00  0.00    +0.000 C 
ENDROOT
BRANCH   1   9
ATOM      9  C   UNL     1       1.230   5.806  20.798  0.00  0.00    +0.000 C 
BRANCH   9  10
ATOM     10  O   UNL     1       2.109   6.825  20.369  0.00  0.00    +0.000 OA
BRANCH  10  16
ATOM     11  C   UNL     1       1.417   8.886  19.114  0.00  0.00    +0.000 A 
ATOM     12  C   UNL     1       0.858  10.172  19.220  0.00  0.00    +0.000 A 
ATOM     13  C   UNL     1       0.548  10.712  20.464  0.00  0.00    +0.000 A 
ATOM     14  C   UNL     1       0.746   9.953  21.611  0.00  0.00    +0.000 A 
ATOM     15  C   UNL     1       1.249   8.651  21.510  0.00  0.00    +0.000 A 
ATOM     16  C   UNL     1       1.597   8.100  20.264  0.00  0.00    +0.000 A 
BRANCH  11  18
ATOM     17  C   UNL     1       3.088   7.960  17.714  0.00  0.00    +0.000 C 
ATOM     18  O   UNL     1       1.738   8.393  17.874  0.00  0.00    +0.000 OA
ENDBRANCH  11  18
ENDBRANCH  10  16
ENDBRANCH   9  10
ENDBRANCH   1   9
BRANCH   7  19
ATOM     19  O   UNL     1       4.096   4.423  18.012  0.00  0.00    +0.000 OA
BRANCH  19  20
ATOM     20  C   UNL     1       5.240   4.539  17.277  0.00  0.00    +0.000 A 
ATOM     21  C   UNL     1       6.542   4.470  17.756  0.00  0.00    +0.000 A 
ATOM     22  C   UNL     1       7.583   4.614  16.853  0.00  0.00    +0.000 A 
ATOM     23  N   UNL     1       7.414   4.820  15.532  0.00  0.00    +0.000 NA
ATOM     24  C   UNL     1       6.140   4.883  15.091  0.00  0.00    +0.000 A 
ATOM     25  C   UNL     1       5.035   4.747  15.914  0.00  0.00    +0.000 A 
ENDBRANCH  19  20
ENDBRANCH   7  19
TORSDOF 6
ENDMDL
MODEL 7
REMARK VINA RESULT:      -7.1      3.299      8.269
REMARK  Name = 
REMARK  7 active torsions:
REMARK  status: ('A' for Active; 'I' for Inactive)
REMARK    1  A    between atoms: C_1  and  O_2
REMARK    2  A    between atoms: O_2  and  C_3
REMARK    3  A    between atoms: C_8  and  O_9
REMARK    4  A    between atoms: O_9  and  C_10
REMARK    5  A    between atoms: C_10  and  C_11
REMARK    6  A    between atoms: C_17  and  O_18
REMARK    7  A    between atoms: O_18  and  C_19
REMARK                            x       y       z     vdW  Elec       q    Type
REMARK                         _______ _______ _______ _____ _____    ______ ____
ROOT
ATOM      1  C   UNL     1       1.218   8.587  20.524  0.00  0.00    +0.000 C 
ATOM      2  O   UNL     1       0.829   8.056  21.563  0.00  0.00    +0.000 OA
ATOM      3  N   UNL     1       1.128   9.970  20.314  0.00  0.00    +0.000 N 
ATOM      4  C   UNL     1       0.844  10.847  21.442  0.00  0.00    +0.000 C 
ATOM      5  C   UNL     1      -0.517  11.513  21.293  0.00  0.00    +0.000 C 
ATOM      6  C   UNL     1      -0.618  12.250  19.954  0.00  0.00    +0.000 C 
ATOM      7  C   UNL     1      -0.289  11.332  18.769  0.00  0.00    +0.000 C 
ATOM      8  C   UNL     1       1.053  10.608  18.993  0.00  0.00    +0.000 C 
ENDROOT
BRANCH   1   9
ATOM      9  C   UNL     1       1.977   7.779  19.451  0.00  0.00    +0.000 C 
BRANCH   9  10
ATOM     10  O   UNL     1       2.696   6.652  19.908  0.00  0.00    +0.000 OA
BRANCH  10  16
ATOM     11  C   UNL     1       2.531   4.740  18.291  0.00  0.00    +0.000 A 
ATOM     12  C   UNL     1       1.994   3.460  18.062  0.00  0.00    +0.000 A 
ATOM     13  C   UNL     1       1.130   2.877  18.984  0.00  0.00    +0.000 A 
ATOM     14  C   UNL     1       0.835   3.544  20.166  0.00  0.00    +0.000 A 
ATOM     15  C   UNL     1       1.410   4.794  20.427  0.00  0.00    +0.000 A 
ATOM     16  C   UNL     1       2.260   5.413  19.493  0.00  0.00    +0.000 A 
BRANCH  11  18
ATOM     17  C   UNL     1       4.705   4.836  17.356  0.00  0.00    +0.000 C 
ATOM     18  O   UNL     1       3.356   5.300  17.349  0.00  0.00    +0.000 OA
ENDBRANCH  11  18
ENDBRANCH  10  16
ENDBRANCH   9  10
ENDBRANCH   1   9
BRANCH   7  19
ATOM     19  O   UNL     1      -1.298  10.325  18.619  0.00  0.00    +0.000 OA
BRANCH  19  20
ATOM     20  C   UNL     1      -2.195  10.420  17.595  0.00  0.00    +0.000 A 
ATOM     21  C   UNL     1      -2.074   9.851  16.333  0.00  0.00    +0.000 A 
ATOM     22  C   UNL     1      -3.093  10.061  15.418  0.00  0.00    +0.000 A 
ATOM     23  N   UNL     1      -4.199  10.787  15.672  0.00  0.00    +0.000 NA
ATOM     24  C   UNL     1      -4.293  11.330  16.904  0.00  0.00    +0.000 A 
ATOM     25  C   UNL     1      -3.331  11.174  17.887  0.00  0.00    +0.000 A 
ENDBRANCH  19  20
ENDBRANCH   7  19
TORSDOF 6
ENDMDL
MODEL 8
REMARK VINA RESULT:      -7.0      4.191      6.045
REMARK  Name = 
REMARK  7 active torsions:
REMARK  status: ('A' for Active; 'I' for Inactive)
REMARK    1  A    between atoms: C_1  and  O_2
REMARK    2  A    between atoms: O_2  and  C_3
REMARK    3  A    between atoms: C_8  and  O_9
REMARK    4  A    between atoms: O_9  and  C_10
REMARK    5  A    between atoms: C_10  and  C_11
REMARK    6  A    between atoms: C_17  and  O_18
REMARK    7  A    between atoms: O_18  and  C_19
REMARK                            x       y       z     vdW  Elec       q    Type
REMARK                         _______ _______ _______ _____ _____    ______ ____
ROOT
ATOM      1  C   UNL     1       3.742   4.662  17.457  0.00  0.00    +0.000 C 
ATOM      2  O   UNL     1       2.924   5.550  17.689  0.00  0.00    +0.000 OA
ATOM      3  N   UNL     1       5.088   4.770  17.832  0.00  0.00    +0.000 N 
ATOM      4  C   UNL     1       5.487   5.810  18.770  0.00  0.00    +0.000 C 
ATOM      5  C   UNL     1       6.390   6.838  18.102  0.00  0.00    +0.000 C 
ATOM      6  C   UNL     1       7.598   6.160  17.450  0.00  0.00    +0.000 C 
ATOM      7  C   UNL     1       7.177   5.043  16.486  0.00  0.00    +0.000 C 
ATOM      8  C   UNL     1       6.196   4.069  17.168  0.00  0.00    +0.000 C 
ENDROOT
BRANCH   1   9
ATOM      9  C   UNL     1       3.299   3.302  16.878  0.00  0.00    +0.000 C 
BRANCH   9  10
ATOM     10  O   UNL     1       3.238   2.224  17.790  0.00  0.00    +0.000 OA
BRANCH  10  16
ATOM     11  C   UNL     1       3.402   2.562  20.272  0.00  0.00    +0.000 A 
ATOM     12  C   UNL     1       2.692   2.855  21.450  0.00  0.00    +0.000 A 
ATOM     13  C   UNL     1       1.308   2.997  21.428  0.00  0.00    +0.000 A 
ATOM     14  C   UNL     1       0.626   2.896  20.223  0.00  0.00    +0.000 A 
ATOM     15  C   UNL     1       1.332   2.661  19.037  0.00  0.00    +0.000 A 
ATOM     16  C   UNL     1       2.727   2.484  19.043  0.00  0.00    +0.000 A 
BRANCH  11  18
ATOM     17  C   UNL     1       5.214   1.148  20.844  0.00  0.00    +0.000 C 
ATOM     18  O   UNL     1       4.764   2.400  20.331  0.00  0.00    +0.000 OA
ENDBRANCH  11  18
ENDBRANCH  10  16
ENDBRANCH   9  10
ENDBRANCH   1   9
BRANCH   7  19
ATOM     19  O   UNL     1       6.506   5.593  15.343  0.00  0.00    +0.000 OA
BRANCH  19  20
ATOM     20  C   UNL     1       6.476   4.886  14.177  0.00  0.00    +0.000 A 
ATOM     21  C   UNL     1       5.519   3.952  13.801  0.00  0.00    +0.000 A 
ATOM     22  C   UNL     1       5.658   3.328  12.570  0.00  0.00    +0.000 A 
ATOM     23  N   UNL     1       6.668   3.569  11.712  0.00  0.00    +0.000 NA
ATOM     24  C   UNL     1       7.586   4.479  12.101  0.00  0.00    +0.000 A 
ATOM     25  C   UNL     1       7.531   5.157  13.307  0.00  0.00    +0.000 A 
ENDBRANCH  19  20
ENDBRANCH   7  19
TORSDOF 6
ENDMDL
MODEL 9
REMARK VINA RESULT:      -7.0      3.264      8.181
REMARK  Name = 
REMARK  7 active torsions:
REMARK  status: ('A' for Active; 'I' for Inactive)
REMARK    1  A    between atoms: C_1  and  O_2
REMARK    2  A    between atoms: O_2  and  C_3
REMARK    3  A    between atoms: C_8  and  O_9
REMARK    4  A    between atoms: O_9  and  C_10
REMARK    5  A    between atoms: C_10  and  C_11
REMARK    6  A    between atoms: C_17  and  O_18
REMARK    7  A    between atoms: O_18  and  C_19
REMARK                            x       y       z     vdW  Elec       q    Type
REMARK                         _______ _______ _______ _____ _____    ______ ____
ROOT
ATOM      1  C   UNL     1       1.359   8.162  20.381  0.00  0.00    +0.000 C 
ATOM      2  O   UNL     1       1.000   7.381  21.261  0.00  0.00    +0.000 OA
ATOM      3  N   UNL     1       1.177   9.547  20.492  0.00  0.00    +0.000 N 
ATOM      4  C   UNL     1       0.827  10.120  21.784  0.00  0.00    +0.000 C 
ATOM      5  C   UNL     1      -0.575  10.714  21.762  0.00  0.00    +0.000 C 
ATOM      6  C   UNL     1      -0.717  11.732  20.627  0.00  0.00    +0.000 C 
ATOM      7  C   UNL     1      -0.318  11.136  19.270  0.00  0.00    +0.000 C 
ATOM      8  C   UNL     1       1.069  10.467  19.351  0.00  0.00    +0.000 C 
ENDROOT
BRANCH   1   9
ATOM      9  C   UNL     1       2.178   7.674  19.167  0.00  0.00    +0.000 C 
BRANCH   9  10
ATOM     10  O   UNL     1       3.130   6.661  19.422  0.00  0.00    +0.000 OA
BRANCH  10  16
ATOM     11  C   UNL     1       3.940   5.020  17.703  0.00  0.00    +0.000 A 
ATOM     12  C   UNL     1       3.674   3.804  17.048  0.00  0.00    +0.000 A 
ATOM     13  C   UNL     1       2.492   3.110  17.290  0.00  0.00    +0.000 A 
ATOM     14  C   UNL     1       1.587   3.599  18.224  0.00  0.00    +0.000 A 
ATOM     15  C   UNL     1       1.871   4.780  18.921  0.00  0.00    +0.000 A 
ATOM     16  C   UNL     1       3.045   5.510  18.669  0.00  0.00    +0.000 A 
BRANCH  11  18
ATOM     17  C   UNL     1       5.030   6.622  16.342  0.00  0.00    +0.000 C 
ATOM     18  O   UNL     1       5.101   5.694  17.422  0.00  0.00    +0.000 OA
ENDBRANCH  11  18
ENDBRANCH  10  16
ENDBRANCH   9  10
ENDBRANCH   1   9
BRANCH   7  19
ATOM     19  O   UNL     1      -1.255  10.127  18.870  0.00  0.00    +0.000 OA
BRANCH  19  20
ATOM     20  C   UNL     1      -2.208  10.427  17.941  0.00  0.00    +0.000 A 
ATOM     21  C   UNL     1      -3.303  11.264  18.119  0.00  0.00    +0.000 A 
ATOM     22  C   UNL     1      -4.170  11.448  17.054  0.00  0.00    +0.000 A 
ATOM     23  N   UNL     1      -4.022  10.861  15.850  0.00  0.00    +0.000 NA
ATOM     24  C   UNL     1      -2.952  10.051  15.702  0.00  0.00    +0.000 A 
ATOM     25  C   UNL     1      -2.028   9.809  16.704  0.00  0.00    +0.000 A 
ENDBRANCH  19  20
ENDBRANCH   7  19
TORSDOF 6
ENDMDL
