MODEL 1
REMARK VINA RESULT:      -6.5      0.000      0.000
REMARK  Name = 
REMARK  6 active torsions:
REMARK  status: ('A' for Active; 'I' for Inactive)
REMARK    1  A    between atoms: C_1  and  C_2
REMARK    2  A    between atoms: C_5  and  C_6
REMARK    3  A    between atoms: C_6  and  N_7
REMARK    4  A    between atoms: C_8  and  C_10
REMARK    5  A    between atoms: C_10  and  S_11
REMARK    6  A    between atoms: S_11  and  C_12
REMARK                            x       y       z     vdW  Elec       q    Type
REMARK                         _______ _______ _______ _____ _____    ______ ____
ROOT
ATOM      1  N   UNL     1       4.438   2.884  17.416  0.00  0.00    +0.000 N 
ATOM      2  C   UNL     1       3.089   2.725  17.662  0.00  0.00    +0.000 C 
ATOM      3  O   UNL     1       2.216   3.166  16.917  0.00  0.00    +0.000 OA
ATOM      4  H   UNL     1       5.085   2.658  18.161  0.00  0.00    +0.000 HD
ENDROOT
BRANCH   1   5
ATOM      5  C   UNL     1       4.929   3.645  16.290  0.00  0.00    +0.000 C 
BRANCH   5  10
ATOM      6  C   UNL     1       8.099   8.204  18.064  0.00  0.00    +0.000 C 
ATOM      7  C   UNL     1       7.296   7.036  17.572  0.00  0.00    +0.000 A 
ATOM      8  C   UNL     1       6.197   7.219  16.727  0.00  0.00    +0.000 A 
ATOM      9  C   UNL     1       5.442   6.124  16.296  0.00  0.00    +0.000 A 
ATOM     10  C   UNL     1       5.768   4.825  16.709  0.00  0.00    +0.000 A 
ATOM     11  C   UNL     1       6.887   4.643  17.533  0.00  0.00    +0.000 A 
ATOM     12  C   UNL     1       7.640   5.738  17.966  0.00  0.00    +0.000 A 
ENDBRANCH   5  10
ENDBRANCH   1   5
BRANCH   2  13
ATOM     13  C   UNL     1       2.757   1.860  18.866  0.00  0.00    +0.000 C 
BRANCH  13  14
ATOM     14  S   UNL     1       3.494   2.544  20.379  0.00  0.00    +0.000 S 
BRANCH  14  15
ATOM     15  C   UNL     1       3.016   4.246  20.208  0.00  0.00    +0.000 A 
ATOM     16  N   UNL     1       3.807   5.086  19.518  0.00  0.00    +0.000 NA
ATOM     17  C   UNL     1       3.389   6.362  19.424  0.00  0.00    +0.000 A 
ATOM     18  C   UNL     1       2.218   6.821  19.976  0.00  0.00    +0.000 A 
ATOM     19  C   UNL     1       1.479   5.882  20.653  0.00  0.00    +0.000 A 
ATOM     20  N   UNL     1       1.851   4.595  20.782  0.00  0.00    +0.000 NA
ENDBRANCH  14  15
ENDBRANCH  13  14
ENDBRANCH   2  13
TORSDOF 5
ENDMDL
MODEL 2
REMARK VINA RESULT:      -6.4      2.943      5.911
REMARK  Name = 
REMARK  6 active torsions:
REMARK  status: ('A' for Active; 'I' for Inactive)
REMARK    1  A    between atoms: C_1  and  C_2
REMARK    2  A    between atoms: C_5  and  C_6
REMARK    3  A    between atoms: C_6  and  N_7
REMARK    4  A    between atoms: C_8  and  C_10
REMARK    5  A    between atoms: C_10  and  S_11
REMARK    6  A    between atoms: S_11  and  C_12
REMARK                            x       y       z     vdW  Elec       q    Type
REMARK                         _______ _______ _______ _____ _____    ______ ____
ROOT
ATOM      1  N   UNL     1       4.692   5.844  18.871  0.00  0.00    +0.000 N 
ATOM      2  C   UNL     1       5.603   4.832  19.095  0.00  0.00    +0.000 C 
ATOM      3  O   UNL     1       5.290   3.741  19.566  0.00  0.00    +0.000 OA
ATOM      4  H   UNL     1       5.051   6.766  18.658  0.00  0.00    +0.000 HD
ENDROOT
BRANCH   1   5
ATOM      5  C   UNL     1       3.301   5.721  19.239  0.00  0.00    +0.000 C 
BRANCH   5  10
ATOM      6  C   UNL     1       0.298  10.709  18.957  0.00  0.00    +0.000 C 
ATOM      7  C   UNL     1       1.102   9.445  19.025  0.00  0.00    +0.000 A 
ATOM      8  C   UNL     1       1.766   8.950  17.899  0.00  0.00    +0.000 A 
ATOM      9  C   UNL     1       2.493   7.757  17.969  0.00  0.00    +0.000 A 
ATOM     10  C   UNL     1       2.562   7.033  19.167  0.00  0.00    +0.000 A 
ATOM     11  C   UNL     1       1.919   7.547  20.301  0.00  0.00    +0.000 A 
ATOM     12  C   UNL     1       1.191   8.738  20.230  0.00  0.00    +0.000 A 
ENDBRANCH   5  10
ENDBRANCH   1   5
BRANCH   2  13
ATOM     13  C   UNL     1       7.013   5.122  18.607  0.00  0.00    +0.000 C 
BRANCH  13  14
ATOM     14  S   UNL     1       7.011   6.456  17.374  0.00  0.00    +0.000 S 
BRANCH  14  15
ATOM     15  C   UNL     1       6.702   5.511  15.903  0.00  0.00    +0.000 A 
ATOM     16  N   UNL     1       7.616   5.508  14.917  0.00  0.00    +0.000 NA
ATOM     17  C   UNL     1       7.323   4.771  13.829  0.00  0.00    +0.000 A 
ATOM     18  C   UNL     1       6.169   4.036  13.696  0.00  0.00    +0.000 A 
ATOM     19  C   UNL     1       5.305   4.101  14.762  0.00  0.00    +0.000 A 
ATOM     20  N   UNL     1       5.546   4.824  15.872  0.00  0.00    +0.000 NA
ENDBRANCH  14  15
ENDBRANCH  13  14
ENDBRANCH   2  13
TORSDOF 5
ENDMDL
MODEL 3
REMARK VINA RESULT:      -6.4      1.607      1.734
REMARK  Name = 
REMARK  6 active torsions:
REMARK  status: ('A' for Active; 'I' for Inactive)
REMARK    1  A    between atoms: C_1  and  C_2
REMARK    2  A    between atoms: C_5  and  C_6
REMARK    3  A    between atoms: C_6  and  N_7
REMARK    4  A    between atoms: C_8  and  C_10
REMARK    5  A    between atoms: C_10  and  S_11
REMARK    6  A    between atoms: S_11  and  C_12
REMARK                            x       y       z     vdW  Elec       q    Type
REMARK                         _______ _______ _______ _____ _____    ______ ____
ROOT
ATOM      1  N   UNL     1       4.896   3.418  19.326  0.00  0.00    +0.000 N 
ATOM      2  C   UNL     1       4.127   2.303  19.591  0.00  0.00    +0.000 C 
ATOM      3  O   UNL     1       3.928   1.415  18.765  0.00  0.00    +0.000 OA
ATOM      4  H   UNL     1       4.861   4.185  19.985  0.00  0.00    +0.000 HD
ENDROOT
BRANCH   1   5
ATOM      5  C   UNL     1       5.473   3.661  18.024  0.00  0.00    +0.000 C 
BRANCH   5  10
ATOM      6  C   UNL     1       8.236   8.793  17.887  0.00  0.00    +0.000 C 
ATOM      7  C   UNL     1       7.538   7.465  17.888  0.00  0.00    +0.000 A 
ATOM      8  C   UNL     1       6.435   7.228  17.061  0.00  0.00    +0.000 A 
ATOM      9  C   UNL     1       5.778   5.994  17.089  0.00  0.00    +0.000 A 
ATOM     10  C   UNL     1       6.207   4.976  17.951  0.00  0.00    +0.000 A 
ATOM     11  C   UNL     1       7.330   5.207  18.757  0.00  0.00    +0.000 A 
ATOM     12  C   UNL     1       7.985   6.442  18.732  0.00  0.00    +0.000 A 
ENDBRANCH   5  10
ENDBRANCH   1   5
BRANCH   2  13
ATOM     13  C   UNL     1       3.637   2.191  21.025  0.00  0.00    +0.000 C 
BRANCH  13  14
ATOM     14  S   UNL     1       1.990   2.935  21.208  0.00  0.00    +0.000 S 
BRANCH  14  15
ATOM     15  C   UNL     1       2.118   4.253  20.024  0.00  0.00    +0.000 A 
ATOM     16  N   UNL     1       2.676   5.419  20.394  0.00  0.00    +0.000 NA
ATOM     17  C   UNL     1       2.745   6.376  19.451  0.00  0.00    +0.000 A 
ATOM     18  C   UNL     1       2.293   6.211  18.164  0.00  0.00    +0.000 A 
ATOM     19  C   UNL     1       1.748   4.982  17.886  0.00  0.00    +0.000 A 
ATOM     20  N   UNL     1       1.650   3.990  18.791  0.00  0.00    +0.000 NA
ENDBRANCH  14  15
ENDBRANCH  13  14
ENDBRANCH   2  13
TORSDOF 5
ENDMDL
MODEL 4
REMARK VINA RESULT:      -6.4      3.000      5.948
REMARK  Name = 
REMARK  6 active torsions:
REMARK  status: ('A' for Active; 'I' for Inactive)
REMARK    1  A    between atoms: C_1  and  C_2
REMARK    2  A    between atoms: C_5  and  C_6
REMARK    3  A    between atoms: C_6  and  N_7
REMARK    4  A    between atoms: C_8  and  C_10
REMARK    5  A    between atoms: C_10  and  S_11
REMARK    6  A    between atoms: S_11  and  C_12
REMARK                            x       y       z     vdW  Elec       q    Type
REMARK                         _______ _______ _______ _____ _____    ______ ____
ROOT
ATOM      1  N   UNL     1       4.748   5.767  18.577  0.00  0.00    +0.000 N 
ATOM      2  C   UNL     1       5.709   4.845  18.942  0.00  0.00    +0.000 C 
ATOM      3  O   UNL     1       5.447   3.810  19.552  0.00  0.00    +0.000 OA
ATOM      4  H   UNL     1       5.060   6.671  18.246  0.00  0.00    +0.000 HD
ENDROOT
BRANCH   1   5
ATOM      5  C   UNL     1       3.359   5.616  18.946  0.00  0.00    +0.000 C 
BRANCH   5  10
ATOM      6  C   UNL     1       0.642  10.773  19.024  0.00  0.00    +0.000 C 
ATOM      7  C   UNL     1       1.308   9.429  19.008  0.00  0.00    +0.000 A 
ATOM      8  C   UNL     1       1.363   8.636  20.158  0.00  0.00    +0.000 A 
ATOM      9  C   UNL     1       2.008   7.395  20.137  0.00  0.00    +0.000 A 
ATOM     10  C   UNL     1       2.618   6.928  18.965  0.00  0.00    +0.000 A 
ATOM     11  C   UNL     1       2.536   7.713  17.806  0.00  0.00    +0.000 A 
ATOM     12  C   UNL     1       1.893   8.954  17.829  0.00  0.00    +0.000 A 
ENDBRANCH   5  10
ENDBRANCH   1   5
BRANCH   2  13
ATOM     13  C   UNL     1       7.108   5.145  18.431  0.00  0.00    +0.000 C 
BRANCH  13  14
ATOM     14  S   UNL     1       7.076   6.473  17.192  0.00  0.00    +0.000 S 
BRANCH  14  15
ATOM     15  C   UNL     1       6.773   5.515  15.727  0.00  0.00    +0.000 A 
ATOM     16  N   UNL     1       7.694   5.499  14.748  0.00  0.00    +0.000 NA
ATOM     17  C   UNL     1       7.406   4.752  13.666  0.00  0.00    +0.000 A 
ATOM     18  C   UNL     1       6.250   4.021  13.531  0.00  0.00    +0.000 A 
ATOM     19  C   UNL     1       5.379   4.099  14.590  0.00  0.00    +0.000 A 
ATOM     20  N   UNL     1       5.615   4.832  15.695  0.00  0.00    +0.000 NA
ENDBRANCH  14  15
ENDBRANCH  13  14
ENDBRANCH   2  13
TORSDOF 5
ENDMDL
MODEL 5
REMARK VINA RESULT:      -6.3      2.670      5.409
REMARK  Name = 
REMARK  6 active torsions:
REMARK  status: ('A' for Active; 'I' for Inactive)
REMARK    1  A    between atoms: C_1  and  C_2
REMARK    2  A    between atoms: C_5  and  C_6
REMARK    3  A    between atoms: C_6  and  N_7
REMARK    4  A    between atoms: C_8  and  C_10
REMARK    5  A    between atoms: C_10  and  S_11
REMARK    6  A    between atoms: S_11  and  C_12
REMARK                            x       y       z     vdW  Elec       q    Type
REMARK                         _______ _______ _______ _____ _____    ______ ____
ROOT
ATOM      1  N   UNL     1       3.452   6.780  18.117  0.00  0.00    +0.000 N 
ATOM      2  C   UNL     1       4.418   6.262  17.278  0.00  0.00    +0.000 C 
ATOM      3  O   UNL     1       4.791   6.830  16.254  0.00  0.00    +0.000 OA
ATOM      4  H   UNL     1       3.070   6.173  18.832  0.00  0.00    +0.000 HD
ENDROOT
BRANCH   1   5
ATOM      5  C   UNL     1       2.751   8.007  17.816  0.00  0.00    +0.000 C 
BRANCH   5  10
ATOM      6  C   UNL     1      -0.416   9.983  22.294  0.00  0.00    +0.000 C 
ATOM      7  C   UNL     1       0.375   9.445  21.138  0.00  0.00    +0.000 A 
ATOM      8  C   UNL     1       1.106   8.259  21.252  0.00  0.00    +0.000 A 
ATOM      9  C   UNL     1       1.859   7.781  20.175  0.00  0.00    +0.000 A 
ATOM     10  C   UNL     1       1.901   8.487  18.965  0.00  0.00    +0.000 A 
ATOM     11  C   UNL     1       1.145   9.660  18.845  0.00  0.00    +0.000 A 
ATOM     12  C   UNL     1       0.394  10.139  19.923  0.00  0.00    +0.000 A 
ENDBRANCH   5  10
ENDBRANCH   1   5
BRANCH   2  13
ATOM     13  C   UNL     1       5.078   4.986  17.775  0.00  0.00    +0.000 C 
BRANCH  13  14
ATOM     14  S   UNL     1       4.087   3.529  17.335  0.00  0.00    +0.000 S 
BRANCH  14  15
ATOM     15  C   UNL     1       2.942   3.517  18.693  0.00  0.00    +0.000 A 
ATOM     16  N   UNL     1       3.282   4.119  19.846  0.00  0.00    +0.000 NA
ATOM     17  C   UNL     1       2.370   4.076  20.836  0.00  0.00    +0.000 A 
ATOM     18  C   UNL     1       1.142   3.472  20.714  0.00  0.00    +0.000 A 
ATOM     19  C   UNL     1       0.890   2.894  19.494  0.00  0.00    +0.000 A 
ATOM     20  N   UNL     1       1.766   2.904  18.471  0.00  0.00    +0.000 NA
ENDBRANCH  14  15
ENDBRANCH  13  14
ENDBRANCH   2  13
TORSDOF 5
ENDMDL
MODEL 6
REMARK VINA RESULT:      -6.3      2.153      5.041
REMARK  Name = 
REMARK  6 active torsions:
REMARK  status: ('A' for Active; 'I' for Inactive)
REMARK    1  A    between atoms: C_1  and  C_2
REMARK    2  A    between atoms: C_5  and  C_6
REMARK    3  A    between atoms: C_6  and  N_7
REMARK    4  A    between atoms: C_8  and  C_10
REMARK    5  A    between atoms: C_10  and  S_11
REMARK    6  A    between atoms: S_11  and  C_12
REMARK                            x       y       z     vdW  Elec       q    Type
REMARK                         _______ _______ _______ _____ _____    ______ ____
ROOT
ATOM      1  N   UNL     1       3.211   4.580  19.962  0.00  0.00    +0.000 N 
ATOM      2  C   UNL     1       2.926   3.623  19.009  0.00  0.00    +0.000 C 
ATOM      3  O   UNL     1       1.780   3.349  18.657  0.00  0.00    +0.000 OA
ATOM      4  H   UNL     1       4.154   4.617  20.328  0.00  0.00    +0.000 HD
ENDROOT
BRANCH   1   5
ATOM      5  C   UNL     1       2.173   5.290  20.673  0.00  0.00    +0.000 C 
BRANCH   5  10
ATOM      6  C   UNL     1       1.162  10.638  18.584  0.00  0.00    +0.000 C 
ATOM      7  C   UNL     1       1.459   9.270  19.123  0.00  0.00    +0.000 A 
ATOM      8  C   UNL     1       2.154   8.327  18.359  0.00  0.00    +0.000 A 
ATOM      9  C   UNL     1       2.403   7.047  18.864  0.00  0.00    +0.000 A 
ATOM     10  C   UNL     1       1.954   6.683  20.141  0.00  0.00    +0.000 A 
ATOM     11  C   UNL     1       1.282   7.640  20.914  0.00  0.00    +0.000 A 
ATOM     12  C   UNL     1       1.031   8.918  20.408  0.00  0.00    +0.000 A 
ENDBRANCH   5  10
ENDBRANCH   1   5
BRANCH   2  13
ATOM     13  C   UNL     1       4.142   3.010  18.335  0.00  0.00    +0.000 C 
BRANCH  13  14
ATOM     14  S   UNL     1       4.601   3.946  16.848  0.00  0.00    +0.000 S 
BRANCH  14  15
ATOM     15  C   UNL     1       5.884   4.974  17.519  0.00  0.00    +0.000 A 
ATOM     16  N   UNL     1       6.391   5.969  16.771  0.00  0.00    +0.000 NA
ATOM     17  C   UNL     1       7.359   6.713  17.338  0.00  0.00    +0.000 A 
ATOM     18  C   UNL     1       7.826   6.510  18.615  0.00  0.00    +0.000 A 
ATOM     19  C   UNL     1       7.236   5.474  19.297  0.00  0.00    +0.000 A 
ATOM     20  N   UNL     1       6.268   4.697  18.778  0.00  0.00    +0.000 NA
ENDBRANCH  14  15
ENDBRANCH  13  14
ENDBRANCH   2  13
TORSDOF 5
ENDMDL
MODEL 7
REMARK VINA RESULT:      -6.2      2.930      4.467
REMARK  Name = 
REMARK  6 active torsions:
REMARK  status: ('A' for Active; 'I' for Inactive)
REMARK    1  A    between atoms: C_1  and  C_2
REMARK    2  A    between atoms: C_5  and  C_6
REMARK    3  A    between atoms: C_6  and  N_7
REMARK    4  A    between atoms: C_8  and  C_10
REMARK    5  A    between atoms: C_10  and  S_11
REMARK    6  A    between atoms: S_11  and  C_12
REMARK                            x       y       z     vdW  Elec       q    Type
REMARK                         _______ _______ _______ _____ _____    ______ ____
ROOT
ATOM      1  N   UNL     1       6.087   5.769  17.207  0.00  0.00    +0.000 N 
ATOM      2  C   UNL     1       6.252   5.222  18.463  0.00  0.00    +0.000 C 
ATOM      3  O   UNL     1       7.303   4.704  18.836  0.00  0.00    +0.000 OA
ATOM      4  H   UNL     1       5.148   6.007  16.913  0.00  0.00    +0.000 HD
ENDROOT
BRANCH   1   5
ATOM      5  C   UNL     1       7.124   5.715  16.203  0.00  0.00    +0.000 C 
BRANCH   5  10
ATOM      6  C   UNL     1       5.502   2.720  11.471  0.00  0.00    +0.000 C 
ATOM      7  C   UNL     1       5.913   3.523  12.670  0.00  0.00    +0.000 A 
ATOM      8  C   UNL     1       7.093   4.273  12.668  0.00  0.00    +0.000 A 
ATOM      9  C   UNL     1       7.478   4.997  13.801  0.00  0.00    +0.000 A 
ATOM     10  C   UNL     1       6.692   4.978  14.961  0.00  0.00    +0.000 A 
ATOM     11  C   UNL     1       5.495   4.249  14.950  0.00  0.00    +0.000 A 
ATOM     12  C   UNL     1       5.112   3.523  13.818  0.00  0.00    +0.000 A 
ENDBRANCH   5  10
ENDBRANCH   1   5
BRANCH   2  13
ATOM     13  C   UNL     1       5.072   5.410  19.402  0.00  0.00    +0.000 C 
BRANCH  13  14
ATOM     14  S   UNL     1       3.587   5.913  18.484  0.00  0.00    +0.000 S 
BRANCH  14  15
ATOM     15  C   UNL     1       2.611   4.439  18.651  0.00  0.00    +0.000 A 
ATOM     16  N   UNL     1       1.651   4.387  19.591  0.00  0.00    +0.000 NA
ATOM     17  C   UNL     1       0.946   3.243  19.665  0.00  0.00    +0.000 A 
ATOM     18  C   UNL     1       1.154   2.166  18.837  0.00  0.00    +0.000 A 
ATOM     19  C   UNL     1       2.151   2.324  17.907  0.00  0.00    +0.000 A 
ATOM     20  N   UNL     1       2.889   3.444  17.791  0.00  0.00    +0.000 NA
ENDBRANCH  14  15
ENDBRANCH  13  14
ENDBRANCH   2  13
TORSDOF 5
ENDMDL
MODEL 8
REMARK VINA RESULT:      -6.2      2.100      4.791
REMARK  Name = 
REMARK  6 active torsions:
REMARK  status: ('A' for Active; 'I' for Inactive)
REMARK    1  A    between atoms: C_1  and  C_2
REMARK    2  A    between atoms: C_5  and  C_6
REMARK    3  A    between atoms: C_6  and  N_7
REMARK    4  A    between atoms: C_8  and  C_10
REMARK    5  A    between atoms: C_10  and  S_11
REMARK    6  A    between atoms: S_11  and  C_12
REMARK                            x       y       z     vdW  Elec       q    Type
REMARK                         _______ _______ _______ _____ _____    ______ ____
ROOT
ATOM      1  N   UNL     1       2.730   4.096  20.136  0.00  0.00    +0.000 N 
ATOM      2  C   UNL     1       3.155   2.935  20.749  0.00  0.00    +0.000 C 
ATOM      3  O   UNL     1       2.829   2.624  21.892  0.00  0.00    +0.000 OA
ATOM      4  H   UNL     1       3.184   4.371  19.274  0.00  0.00    +0.000 HD
ENDROOT
BRANCH   1   5
ATOM      5  C   UNL     1       1.918   5.075  20.821  0.00  0.00    +0.000 C 
BRANCH   5  10
ATOM      6  C   UNL     1       1.730  10.229  18.105  0.00  0.00    +0.000 C 
ATOM      7  C   UNL     1       1.816   8.906  18.807  0.00  0.00    +0.000 A 
ATOM      8  C   UNL     1       2.400   7.797  18.188  0.00  0.00    +0.000 A 
ATOM      9  C   UNL     1       2.452   6.562  18.844  0.00  0.00    +0.000 A 
ATOM     10  C   UNL     1       1.912   6.413  20.128  0.00  0.00    +0.000 A 
ATOM     11  C   UNL     1       1.353   7.534  20.756  0.00  0.00    +0.000 A 
ATOM     12  C   UNL     1       1.299   8.767  20.100  0.00  0.00    +0.000 A 
ENDBRANCH   5  10
ENDBRANCH   1   5
BRANCH   2  13
ATOM     13  C   UNL     1       3.965   2.005  19.863  0.00  0.00    +0.000 C 
BRANCH  13  14
ATOM     14  S   UNL     1       3.604   2.302  18.107  0.00  0.00    +0.000 S 
BRANCH  14  15
ATOM     15  C   UNL     1       4.656   3.702  17.813  0.00  0.00    +0.000 A 
ATOM     16  N   UNL     1       5.604   4.016  18.714  0.00  0.00    +0.000 NA
ATOM     17  C   UNL     1       6.369   5.087  18.431  0.00  0.00    +0.000 A 
ATOM     18  C   UNL     1       6.231   5.841  17.291  0.00  0.00    +0.000 A 
ATOM     19  C   UNL     1       5.240   5.433  16.433  0.00  0.00    +0.000 A 
ATOM     20  N   UNL     1       4.444   4.372  16.667  0.00  0.00    +0.000 NA
ENDBRANCH  14  15
ENDBRANCH  13  14
ENDBRANCH   2  13
TORSDOF 5
ENDMDL
MODEL 9
REMARK VINA RESULT:      -6.2      3.070      6.463
REMARK  Name = 
REMARK  6 active torsions:
REMARK  status: ('A' for Active; 'I' for Inactive)
REMARK    1  A    between atoms: C_1  and  C_2
REMARK    2  A    between atoms: C_5  and  C_6
REMARK    3  A    between atoms: C_6  and  N_7
REMARK    4  A    between atoms: C_8  and  C_10
REMARK    5  A    between atoms: C_10  and  S_11
REMARK    6  A    between atoms: S_11  and  C_12
REMARK                            x       y       z     vdW  Elec       q    Type
REMARK                         _______ _______ _______ _____ _____    ______ ____
ROOT
ATOM      1  N   UNL     1       4.375   4.883  16.901  0.00  0.00    +0.000 N 
ATOM      2  C   UNL     1       4.690   6.220  17.035  0.00  0.00    +0.000 C 
ATOM      3  O   UNL     1       3.849   7.086  17.267  0.00  0.00    +0.000 OA
ATOM      4  H   UNL     1       5.084   4.263  16.530  0.00  0.00    +0.000 HD
ENDROOT
BRANCH   1   5
ATOM      5  C   UNL     1       3.013   4.405  16.956  0.00  0.00    +0.000 C 
BRANCH   5  10
ATOM      6  C   UNL     1       1.480   2.385  22.206  0.00  0.00    +0.000 C 
ATOM      7  C   UNL     1       1.874   2.940  20.869  0.00  0.00    +0.000 A 
ATOM      8  C   UNL     1       0.977   3.697  20.108  0.00  0.00    +0.000 A 
ATOM      9  C   UNL     1       1.349   4.188  18.852  0.00  0.00    +0.000 A 
ATOM     10  C   UNL     1       2.622   3.923  18.330  0.00  0.00    +0.000 A 
ATOM     11  C   UNL     1       3.527   3.188  19.108  0.00  0.00    +0.000 A 
ATOM     12  C   UNL     1       3.155   2.695  20.362  0.00  0.00    +0.000 A 
ENDBRANCH   5  10
ENDBRANCH   1   5
BRANCH   2  13
ATOM     13  C   UNL     1       6.176   6.533  16.991  0.00  0.00    +0.000 C 
BRANCH  13  14
ATOM     14  S   UNL     1       7.157   5.010  16.864  0.00  0.00    +0.000 S 
BRANCH  14  15
ATOM     15  C   UNL     1       7.053   4.726  15.114  0.00  0.00    +0.000 A 
ATOM     16  N   UNL     1       6.180   3.818  14.644  0.00  0.00    +0.000 NA
ATOM     17  C   UNL     1       6.149   3.651  13.308  0.00  0.00    +0.000 A 
ATOM     18  C   UNL     1       6.940   4.357  12.435  0.00  0.00    +0.000 A 
ATOM     19  C   UNL     1       7.791   5.265  13.015  0.00  0.00    +0.000 A 
ATOM     20  N   UNL     1       7.866   5.470  14.343  0.00  0.00    +0.000 NA
ENDBRANCH  14  15
ENDBRANCH  13  14
ENDBRANCH   2  13
TORSDOF 5
ENDMDL
