MODEL 1
REMARK VINA RESULT:      -7.1      0.000      0.000
REMARK  Name = 
REMARK  2 active torsions:
REMARK  status: ('A' for Active; 'I' for Inactive)
REMARK    1  A    between atoms: C_3  and  O_4
REMARK    2  A    between atoms: C_5  and  N_6
REMARK                            x       y       z     vdW  Elec       q    Type
REMARK                         _______ _______ _______ _____ _____    ______ ____
ROOT
ATOM      1  O   UNL     1       4.125   2.021  17.707  0.00  0.00    +0.000 OA
ATOM      2  C   UNL     1       4.064   3.244  17.773  0.00  0.00    +0.000 C 
ATOM      3  C   UNL     1       4.914   4.051  16.866  0.00  0.00    +0.000 C 
ATOM      4  C   UNL     1       4.849   5.384  16.941  0.00  0.00    +0.000 C 
ATOM      5  C   UNL     1       3.991   6.137  17.865  0.00  0.00    +0.000 C 
ATOM      6  O   UNL     1       3.952   7.359  17.913  0.00  0.00    +0.000 OA
ATOM      7  C   UNL     1       3.141   5.331  18.772  0.00  0.00    +0.000 A 
ATOM      8  C   UNL     1       2.291   5.971  19.686  0.00  0.00    +0.000 A 
ATOM      9  C   UNL     1       1.487   5.211  20.541  0.00  0.00    +0.000 A 
ATOM     10  C   UNL     1       1.538   3.823  20.484  0.00  0.00    +0.000 A 
ATOM     11  F   UNL     1       0.768   3.100  21.306  0.00  0.00    +0.000 F 
ATOM     12  C   UNL     1       2.375   3.174  19.584  0.00  0.00    +0.000 A 
ATOM     13  C   UNL     1       3.178   3.934  18.726  0.00  0.00    +0.000 A 
ENDROOT
BRANCH   4  14
ATOM     14  N   UNL     1       5.687   6.134  16.060  0.00  0.00    +0.000 N 
ATOM     15  O   UNL     1       5.131   6.719  15.122  0.00  0.00    +0.000 OA
ATOM     16  O   UNL     1       6.900   6.137  16.309  0.00  0.00    +0.000 OA
ENDBRANCH   4  14
BRANCH   3  17
ATOM     17  O   UNL     1       5.726   3.346  15.998  0.00  0.00    +0.000 OA
ATOM     18  H   UNL     1       6.640   3.680  16.149  0.00  0.00    +0.000 HD
ENDBRANCH   3  17
TORSDOF 2
ENDMDL
MODEL 2
REMARK VINA RESULT:      -7.0      3.425      5.612
REMARK  Name = 
REMARK  2 active torsions:
REMARK  status: ('A' for Active; 'I' for Inactive)
REMARK    1  A    between atoms: C_3  and  O_4
REMARK    2  A    between atoms: C_5  and  N_6
REMARK                            x       y       z     vdW  Elec       q    Type
REMARK                         _______ _______ _______ _____ _____    ______ ____
ROOT
ATOM      1  O   UNL     1       2.783   7.236  19.264  0.00  0.00    +0.000 OA
ATOM      2  C   UNL     1       2.992   6.032  19.168  0.00  0.00    +0.000 C 
ATOM      3  C   UNL     1       2.454   5.129  20.212  0.00  0.00    +0.000 C 
ATOM      4  C   UNL     1       2.684   3.816  20.108  0.00  0.00    +0.000 C 
ATOM      5  C   UNL     1       3.441   3.175  19.025  0.00  0.00    +0.000 C 
ATOM      6  O   UNL     1       3.637   1.969  18.955  0.00  0.00    +0.000 OA
ATOM      7  C   UNL     1       3.978   4.077  17.980  0.00  0.00    +0.000 A 
ATOM      8  C   UNL     1       4.713   3.547  16.909  0.00  0.00    +0.000 A 
ATOM      9  C   UNL     1       5.219   4.397  15.921  0.00  0.00    +0.000 A 
ATOM     10  C   UNL     1       4.994   5.766  16.008  0.00  0.00    +0.000 A 
ATOM     11  F   UNL     1       5.483   6.577  15.062  0.00  0.00    +0.000 F 
ATOM     12  C   UNL     1       4.269   6.307  17.063  0.00  0.00    +0.000 A 
ATOM     13  C   UNL     1       3.760   5.456  18.051  0.00  0.00    +0.000 A 
ENDROOT
BRANCH   4  14
ATOM     14  N   UNL     1       2.162   2.972  21.136  0.00  0.00    +0.000 N 
ATOM     15  O   UNL     1       0.941   2.767  21.125  0.00  0.00    +0.000 OA
ATOM     16  O   UNL     1       2.973   2.516  21.953  0.00  0.00    +0.000 OA
ENDBRANCH   4  14
BRANCH   3  17
ATOM     17  O   UNL     1       1.745   5.729  21.236  0.00  0.00    +0.000 OA
ATOM     18  H   UNL     1       0.797   5.690  20.969  0.00  0.00    +0.000 HD
ENDBRANCH   3  17
TORSDOF 2
ENDMDL
MODEL 3
REMARK VINA RESULT:      -6.9      2.223      3.155
REMARK  Name = 
REMARK  2 active torsions:
REMARK  status: ('A' for Active; 'I' for Inactive)
REMARK    1  A    between atoms: C_3  and  O_4
REMARK    2  A    between atoms: C_5  and  N_6
REMARK                            x       y       z     vdW  Elec       q    Type
REMARK                         _______ _______ _______ _____ _____    ______ ____
ROOT
ATOM      1  O   UNL     1       3.472   4.359  20.287  0.00  0.00    +0.000 OA
ATOM      2  C   UNL     1       3.873   4.938  19.283  0.00  0.00    +0.000 C 
ATOM      3  C   UNL     1       4.926   4.297  18.462  0.00  0.00    +0.000 C 
ATOM      4  C   UNL     1       5.363   4.930  17.369  0.00  0.00    +0.000 C 
ATOM      5  C   UNL     1       4.882   6.236  16.900  0.00  0.00    +0.000 C 
ATOM      6  O   UNL     1       5.301   6.794  15.895  0.00  0.00    +0.000 OA
ATOM      7  C   UNL     1       3.829   6.878  17.721  0.00  0.00    +0.000 A 
ATOM      8  C   UNL     1       3.312   8.127  17.344  0.00  0.00    +0.000 A 
ATOM      9  C   UNL     1       2.318   8.732  18.117  0.00  0.00    +0.000 A 
ATOM     10  C   UNL     1       1.847   8.094  19.259  0.00  0.00    +0.000 A 
ATOM     11  F   UNL     1       0.895   8.679  19.997  0.00  0.00    +0.000 F 
ATOM     12  C   UNL     1       2.348   6.857  19.646  0.00  0.00    +0.000 A 
ATOM     13  C   UNL     1       3.343   6.249  18.871  0.00  0.00    +0.000 A 
ENDROOT
BRANCH   4  14
ATOM     14  N   UNL     1       6.386   4.291  16.603  0.00  0.00    +0.000 N 
ATOM     15  O   UNL     1       7.557   4.545  16.911  0.00  0.00    +0.000 OA
ATOM     16  O   UNL     1       6.016   3.537  15.693  0.00  0.00    +0.000 OA
ENDBRANCH   4  14
BRANCH   3  17
ATOM     17  O   UNL     1       5.384   3.069  18.902  0.00  0.00    +0.000 OA
ATOM     18  H   UNL     1       4.820   2.394  18.460  0.00  0.00    +0.000 HD
ENDBRANCH   3  17
TORSDOF 2
ENDMDL
MODEL 4
REMARK VINA RESULT:      -6.8      1.222      1.222
REMARK  Name = 
REMARK  2 active torsions:
REMARK  status: ('A' for Active; 'I' for Inactive)
REMARK    1  A    between atoms: C_3  and  O_4
REMARK    2  A    between atoms: C_5  and  N_6
REMARK                            x       y       z     vdW  Elec       q    Type
REMARK                         _______ _______ _______ _____ _____    ______ ____
ROOT
ATOM      1  O   UNL     1       5.375   2.556  19.468  0.00  0.00    +0.000 OA
ATOM      2  C   UNL     1       4.877   3.628  19.141  0.00  0.00    +0.000 C 
ATOM      3  C   UNL     1       5.637   4.520  18.234  0.00  0.00    +0.000 C 
ATOM      4  C   UNL     1       5.095   5.689  17.879  0.00  0.00    +0.000 C 
ATOM      5  C   UNL     1       3.783   6.180  18.321  0.00  0.00    +0.000 C 
ATOM      6  O   UNL     1       3.312   7.257  17.981  0.00  0.00    +0.000 OA
ATOM      7  C   UNL     1       3.023   5.289  19.228  0.00  0.00    +0.000 A 
ATOM      8  C   UNL     1       1.760   5.681  19.696  0.00  0.00    +0.000 A 
ATOM      9  C   UNL     1       1.041   4.841  20.551  0.00  0.00    +0.000 A 
ATOM     10  C   UNL     1       1.584   3.620  20.935  0.00  0.00    +0.000 A 
ATOM     11  F   UNL     1       0.893   2.819  21.755  0.00  0.00    +0.000 F 
ATOM     12  C   UNL     1       2.834   3.217  20.479  0.00  0.00    +0.000 A 
ATOM     13  C   UNL     1       3.553   4.057  19.622  0.00  0.00    +0.000 A 
ENDROOT
BRANCH   4  14
ATOM     14  N   UNL     1       5.856   6.531  17.011  0.00  0.00    +0.000 N 
ATOM     15  O   UNL     1       5.645   6.420  15.797  0.00  0.00    +0.000 OA
ATOM     16  O   UNL     1       6.664   7.302  17.546  0.00  0.00    +0.000 OA
ENDBRANCH   4  14
BRANCH   3  17
ATOM     17  O   UNL     1       6.874   4.063  17.819  0.00  0.00    +0.000 OA
ATOM     18  H   UNL     1       6.746   3.119  17.569  0.00  0.00    +0.000 HD
ENDBRANCH   3  17
TORSDOF 2
ENDMDL
MODEL 5
REMARK VINA RESULT:      -6.8      2.818      4.197
REMARK  Name = 
REMARK  2 active torsions:
REMARK  status: ('A' for Active; 'I' for Inactive)
REMARK    1  A    between atoms: C_3  and  O_4
REMARK    2  A    between atoms: C_5  and  N_6
REMARK                            x       y       z     vdW  Elec       q    Type
REMARK                         _______ _______ _______ _____ _____    ______ ____
ROOT
ATOM      1  O   UNL     1       4.825   5.756  16.172  0.00  0.00    +0.000 OA
ATOM      2  C   UNL     1       4.304   5.418  17.229  0.00  0.00    +0.000 C 
ATOM      3  C   UNL     1       4.534   4.043  17.731  0.00  0.00    +0.000 C 
ATOM      4  C   UNL     1       3.964   3.674  18.882  0.00  0.00    +0.000 C 
ATOM      5  C   UNL     1       3.109   4.531  19.713  0.00  0.00    +0.000 C 
ATOM      6  O   UNL     1       2.598   4.167  20.764  0.00  0.00    +0.000 OA
ATOM      7  C   UNL     1       2.878   5.906  19.212  0.00  0.00    +0.000 A 
ATOM      8  C   UNL     1       2.073   6.791  19.946  0.00  0.00    +0.000 A 
ATOM      9  C   UNL     1       1.856   8.089  19.475  0.00  0.00    +0.000 A 
ATOM     10  C   UNL     1       2.437   8.496  18.280  0.00  0.00    +0.000 A 
ATOM     11  F   UNL     1       2.225   9.740  17.832  0.00  0.00    +0.000 F 
ATOM     12  C   UNL     1       3.237   7.631  17.542  0.00  0.00    +0.000 A 
ATOM     13  C   UNL     1       3.456   6.332  18.013  0.00  0.00    +0.000 A 
ENDROOT
BRANCH   4  14
ATOM     14  N   UNL     1       4.197   2.339  19.335  0.00  0.00    +0.000 N 
ATOM     15  O   UNL     1       5.001   2.195  20.265  0.00  0.00    +0.000 OA
ATOM     16  O   UNL     1       3.576   1.436  18.758  0.00  0.00    +0.000 OA
ENDBRANCH   4  14
BRANCH   3  17
ATOM     17  O   UNL     1       5.336   3.231  16.950  0.00  0.00    +0.000 OA
ATOM     18  H   UNL     1       6.250   3.330  17.304  0.00  0.00    +0.000 HD
ENDBRANCH   3  17
TORSDOF 2
ENDMDL
MODEL 6
REMARK VINA RESULT:      -6.8      2.717      4.088
REMARK  Name = 
REMARK  2 active torsions:
REMARK  status: ('A' for Active; 'I' for Inactive)
REMARK    1  A    between atoms: C_3  and  O_4
REMARK    2  A    between atoms: C_5  and  N_6
REMARK                            x       y       z     vdW  Elec       q    Type
REMARK                         _______ _______ _______ _____ _____    ______ ____
ROOT
ATOM      1  O   UNL     1       4.461   5.861  16.689  0.00  0.00    +0.000 OA
ATOM      2  C   UNL     1       4.010   5.357  17.712  0.00  0.00    +0.000 C 
ATOM      3  C   UNL     1       4.347   3.948  18.022  0.00  0.00    +0.000 C 
ATOM      4  C   UNL     1       3.852   3.399  19.136  0.00  0.00    +0.000 C 
ATOM      5  C   UNL     1       2.984   4.085  20.102  0.00  0.00    +0.000 C 
ATOM      6  O   UNL     1       2.544   3.556  21.114  0.00  0.00    +0.000 OA
ATOM      7  C   UNL     1       2.647   5.493  19.792  0.00  0.00    +0.000 A 
ATOM      8  C   UNL     1       1.822   6.222  20.663  0.00  0.00    +0.000 A 
ATOM      9  C   UNL     1       1.505   7.552  20.373  0.00  0.00    +0.000 A 
ATOM     10  C   UNL     1       2.006   8.146  19.220  0.00  0.00    +0.000 A 
ATOM     11  F   UNL     1       1.698   9.419  18.945  0.00  0.00    +0.000 F 
ATOM     12  C   UNL     1       2.823   7.437  18.347  0.00  0.00    +0.000 A 
ATOM     13  C   UNL     1       3.143   6.106  18.638  0.00  0.00    +0.000 A 
ENDROOT
BRANCH   4  14
ATOM     14  N   UNL     1       4.187   2.036  19.403  0.00  0.00    +0.000 N 
ATOM     15  O   UNL     1       3.668   1.179  18.676  0.00  0.00    +0.000 OA
ATOM     16  O   UNL     1       4.968   1.824  20.340  0.00  0.00    +0.000 OA
ENDBRANCH   4  14
BRANCH   3  17
ATOM     17  O   UNL     1       5.161   3.298  17.114  0.00  0.00    +0.000 OA
ATOM     18  H   UNL     1       4.649   3.254  16.273  0.00  0.00    +0.000 HD
ENDBRANCH   3  17
TORSDOF 2
ENDMDL
MODEL 7
REMARK VINA RESULT:      -6.7      1.640      2.175
REMARK  Name = 
REMARK  2 active torsions:
REMARK  status: ('A' for Active; 'I' for Inactive)
REMARK    1  A    between atoms: C_3  and  O_4
REMARK    2  A    between atoms: C_5  and  N_6
REMARK                            x       y       z     vdW  Elec       q    Type
REMARK                         _______ _______ _______ _____ _____    ______ ____
ROOT
ATOM      1  O   UNL     1       4.029   2.665  17.911  0.00  0.00    +0.000 OA
ATOM      2  C   UNL     1       4.317   3.734  17.382  0.00  0.00    +0.000 C 
ATOM      3  C   UNL     1       5.261   3.733  16.240  0.00  0.00    +0.000 C 
ATOM      4  C   UNL     1       5.575   4.899  15.666  0.00  0.00    +0.000 C 
ATOM      5  C   UNL     1       5.057   6.210  16.077  0.00  0.00    +0.000 C 
ATOM      6  O   UNL     1       5.364   7.262  15.534  0.00  0.00    +0.000 OA
ATOM      7  C   UNL     1       4.114   6.211  17.219  0.00  0.00    +0.000 A 
ATOM      8  C   UNL     1       3.571   7.421  17.676  0.00  0.00    +0.000 A 
ATOM      9  C   UNL     1       2.679   7.423  18.752  0.00  0.00    +0.000 A 
ATOM     10  C   UNL     1       2.336   6.224  19.367  0.00  0.00    +0.000 A 
ATOM     11  F   UNL     1       1.483   6.231  20.399  0.00  0.00    +0.000 F 
ATOM     12  C   UNL     1       2.866   5.017  18.926  0.00  0.00    +0.000 A 
ATOM     13  C   UNL     1       3.757   5.014  17.847  0.00  0.00    +0.000 A 
ENDROOT
BRANCH   4  14
ATOM     14  N   UNL     1       6.495   4.867  14.573  0.00  0.00    +0.000 N 
ATOM     15  O   UNL     1       6.116   4.305  13.538  0.00  0.00    +0.000 OA
ATOM     16  O   UNL     1       7.597   5.404  14.753  0.00  0.00    +0.000 OA
ENDBRANCH   4  14
BRANCH   3  17
ATOM     17  O   UNL     1       5.754   2.501  15.852  0.00  0.00    +0.000 OA
ATOM     18  H   UNL     1       6.102   2.078  16.671  0.00  0.00    +0.000 HD
ENDBRANCH   3  17
TORSDOF 2
ENDMDL
MODEL 8
REMARK VINA RESULT:      -6.6      1.358      3.057
REMARK  Name = 
REMARK  2 active torsions:
REMARK  status: ('A' for Active; 'I' for Inactive)
REMARK    1  A    between atoms: C_3  and  O_4
REMARK    2  A    between atoms: C_5  and  N_6
REMARK                            x       y       z     vdW  Elec       q    Type
REMARK                         _______ _______ _______ _____ _____    ______ ____
ROOT
ATOM      1  O   UNL     1       3.662   7.330  18.172  0.00  0.00    +0.000 OA
ATOM      2  C   UNL     1       4.031   6.253  17.715  0.00  0.00    +0.000 C 
ATOM      3  C   UNL     1       5.260   6.213  16.888  0.00  0.00    +0.000 C 
ATOM      4  C   UNL     1       5.660   5.040  16.389  0.00  0.00    +0.000 C 
ATOM      5  C   UNL     1       4.973   3.758  16.590  0.00  0.00    +0.000 C 
ATOM      6  O   UNL     1       5.362   2.697  16.119  0.00  0.00    +0.000 OA
ATOM      7  C   UNL     1       3.744   3.797  17.416  0.00  0.00    +0.000 A 
ATOM      8  C   UNL     1       3.027   2.616  17.659  0.00  0.00    +0.000 A 
ATOM      9  C   UNL     1       1.868   2.652  18.440  0.00  0.00    +0.000 A 
ATOM     10  C   UNL     1       1.430   3.860  18.970  0.00  0.00    +0.000 A 
ATOM     11  F   UNL     1       0.319   3.890  19.716  0.00  0.00    +0.000 F 
ATOM     12  C   UNL     1       2.130   5.039  18.739  0.00  0.00    +0.000 A 
ATOM     13  C   UNL     1       3.291   5.003  17.958  0.00  0.00    +0.000 A 
ENDROOT
BRANCH   4  14
ATOM     14  N   UNL     1       6.843   5.034  15.588  0.00  0.00    +0.000 N 
ATOM     15  O   UNL     1       7.867   4.571  16.105  0.00  0.00    +0.000 OA
ATOM     16  O   UNL     1       6.746   5.495  14.442  0.00  0.00    +0.000 OA
ENDBRANCH   4  14
BRANCH   3  17
ATOM     17  O   UNL     1       5.908   7.419  16.693  0.00  0.00    +0.000 OA
ATOM     18  H   UNL     1       5.234   8.032  16.319  0.00  0.00    +0.000 HD
ENDBRANCH   3  17
TORSDOF 2
ENDMDL
MODEL 9
REMARK VINA RESULT:      -6.6      3.405      4.875
REMARK  Name = 
REMARK  2 active torsions:
REMARK  status: ('A' for Active; 'I' for Inactive)
REMARK    1  A    between atoms: C_3  and  O_4
REMARK    2  A    between atoms: C_5  and  N_6
REMARK                            x       y       z     vdW  Elec       q    Type
REMARK                         _______ _______ _______ _____ _____    ______ ____
ROOT
ATOM      1  O   UNL     1       3.934   1.892  17.284  0.00  0.00    +0.000 OA
ATOM      2  C   UNL     1       3.690   2.993  17.767  0.00  0.00    +0.000 C 
ATOM      3  C   UNL     1       2.841   3.068  18.979  0.00  0.00    +0.000 C 
ATOM      4  C   UNL     1       2.575   4.269  19.503  0.00  0.00    +0.000 C 
ATOM      5  C   UNL     1       3.059   5.549  18.971  0.00  0.00    +0.000 C 
ATOM      6  O   UNL     1       2.798   6.635  19.472  0.00  0.00    +0.000 OA
ATOM      7  C   UNL     1       3.908   5.474  17.760  0.00  0.00    +0.000 A 
ATOM      8  C   UNL     1       4.414   6.651  17.187  0.00  0.00    +0.000 A 
ATOM      9  C   UNL     1       5.217   6.581  16.045  0.00  0.00    +0.000 A 
ATOM     10  C   UNL     1       5.508   5.345  15.480  0.00  0.00    +0.000 A 
ATOM     11  F   UNL     1       6.275   5.283  14.385  0.00  0.00    +0.000 F 
ATOM     12  C   UNL     1       5.014   4.170  16.036  0.00  0.00    +0.000 A 
ATOM     13  C   UNL     1       4.212   4.238  17.181  0.00  0.00    +0.000 A 
ENDROOT
BRANCH   4  14
ATOM     14  N   UNL     1       1.745   4.310  20.666  0.00  0.00    +0.000 N 
ATOM     15  O   UNL     1       0.528   4.439  20.481  0.00  0.00    +0.000 OA
ATOM     16  O   UNL     1       2.312   4.213  21.763  0.00  0.00    +0.000 OA
ENDBRANCH   4  14
BRANCH   3  17
ATOM     17  O   UNL     1       2.380   1.865  19.481  0.00  0.00    +0.000 OA
ATOM     18  H   UNL     1       3.110   1.218  19.350  0.00  0.00    +0.000 HD
ENDBRANCH   3  17
TORSDOF 2
ENDMDL
