MODEL 1
REMARK VINA RESULT:      -5.6      0.000      0.000
REMARK  Name = 
REMARK  1 active torsions:
REMARK  status: ('A' for Active; 'I' for Inactive)
REMARK    1  A    between atoms: N_1  and  C_2
REMARK                            x       y       z     vdW  Elec       q    Type
REMARK                         _______ _______ _______ _____ _____    ______ ____
ROOT
ATOM      1  C   UNL     1       6.589   6.141  16.806  0.00  0.00    +0.000 C 
ATOM      2  C   UNL     1       7.324   6.874  17.926  0.00  0.00    +0.000 C 
ATOM      3  C   UNL     1       7.800   5.861  18.953  0.00  0.00    +0.000 C 
ATOM      4  O   UNL     1       6.700   5.207  19.594  0.00  0.00    +0.000 OA
ATOM      5  C   UNL     1       5.738   4.742  18.735  0.00  0.00    +0.000 A 
ATOM      6  C   UNL     1       4.821   3.844  19.283  0.00  0.00    +0.000 A 
ATOM      7  C   UNL     1       3.790   3.327  18.501  0.00  0.00    +0.000 A 
ATOM      8  C   UNL     1       3.667   3.718  17.169  0.00  0.00    +0.000 A 
ATOM      9  C   UNL     1       4.574   4.627  16.622  0.00  0.00    +0.000 A 
ATOM     10  C   UNL     1       5.619   5.152  17.401  0.00  0.00    +0.000 A 
ENDROOT
BRANCH   1  11
ATOM     11  N   UNL     1       7.552   5.464  15.932  0.00  0.00    +0.000 NA
ATOM     12  H   UNL     1       7.234   5.519  14.967  0.00  0.00    +0.000 HD
ATOM     13  H   UNL     1       7.587   4.476  16.173  0.00  0.00    +0.000 HD
ENDBRANCH   1  11
TORSDOF 1
ENDMDL
MODEL 2
REMARK VINA RESULT:      -5.6      2.449      3.324
REMARK  Name = 
REMARK  1 active torsions:
REMARK  status: ('A' for Active; 'I' for Inactive)
REMARK    1  A    between atoms: N_1  and  C_2
REMARK                            x       y       z     vdW  Elec       q    Type
REMARK                         _______ _______ _______ _____ _____    ______ ____
ROOT
ATOM      1  C   UNL     1       3.779   4.080  17.240  0.00  0.00    +0.000 C 
ATOM      2  C   UNL     1       4.549   5.389  17.398  0.00  0.00    +0.000 C 
ATOM      3  C   UNL     1       5.036   5.507  18.832  0.00  0.00    +0.000 C 
ATOM      4  O   UNL     1       3.944   5.603  19.752  0.00  0.00    +0.000 OA
ATOM      5  C   UNL     1       2.956   4.672  19.558  0.00  0.00    +0.000 A 
ATOM      6  C   UNL     1       2.040   4.535  20.602  0.00  0.00    +0.000 A 
ATOM      7  C   UNL     1       0.985   3.631  20.498  0.00  0.00    +0.000 A 
ATOM      8  C   UNL     1       0.836   2.869  19.340  0.00  0.00    +0.000 A 
ATOM      9  C   UNL     1       1.742   3.015  18.288  0.00  0.00    +0.000 A 
ATOM     10  C   UNL     1       2.811   3.920  18.384  0.00  0.00    +0.000 A 
ENDROOT
BRANCH   1  11
ATOM     11  N   UNL     1       4.713   2.951  17.187  0.00  0.00    +0.000 NA
ATOM     12  H   UNL     1       4.214   2.107  16.916  0.00  0.00    +0.000 HD
ATOM     13  H   UNL     1       5.089   2.781  18.118  0.00  0.00    +0.000 HD
ENDBRANCH   1  11
TORSDOF 1
ENDMDL
MODEL 3
REMARK VINA RESULT:      -5.5      2.363      3.060
REMARK  Name = 
REMARK  1 active torsions:
REMARK  status: ('A' for Active; 'I' for Inactive)
REMARK    1  A    between atoms: N_1  and  C_2
REMARK                            x       y       z     vdW  Elec       q    Type
REMARK                         _______ _______ _______ _____ _____    ______ ____
ROOT
ATOM      1  C   UNL     1       5.181   4.070  17.125  0.00  0.00    +0.000 C 
ATOM      2  C   UNL     1       5.144   5.484  16.551  0.00  0.00    +0.000 C 
ATOM      3  C   UNL     1       4.410   6.393  17.521  0.00  0.00    +0.000 C 
ATOM      4  O   UNL     1       3.037   6.012  17.663  0.00  0.00    +0.000 OA
ATOM      5  C   UNL     1       2.840   4.672  17.874  0.00  0.00    +0.000 A 
ATOM      6  C   UNL     1       1.567   4.310  18.317  0.00  0.00    +0.000 A 
ATOM      7  C   UNL     1       1.256   2.970  18.543  0.00  0.00    +0.000 A 
ATOM      8  C   UNL     1       2.216   1.987  18.313  0.00  0.00    +0.000 A 
ATOM      9  C   UNL     1       3.486   2.344  17.856  0.00  0.00    +0.000 A 
ATOM     10  C   UNL     1       3.811   3.692  17.629  0.00  0.00    +0.000 A 
ENDROOT
BRANCH   1  11
ATOM     11  N   UNL     1       6.172   3.990  18.203  0.00  0.00    +0.000 NA
ATOM     12  H   UNL     1       7.013   3.533  17.861  0.00  0.00    +0.000 HD
ATOM     13  H   UNL     1       5.806   3.406  18.953  0.00  0.00    +0.000 HD
ENDBRANCH   1  11
TORSDOF 1
ENDMDL
MODEL 4
REMARK VINA RESULT:      -5.5      1.684      3.633
REMARK  Name = 
REMARK  1 active torsions:
REMARK  status: ('A' for Active; 'I' for Inactive)
REMARK    1  A    between atoms: N_1  and  C_2
REMARK                            x       y       z     vdW  Elec       q    Type
REMARK                         _______ _______ _______ _____ _____    ______ ____
ROOT
ATOM      1  C   UNL     1       4.185   5.183  17.308  0.00  0.00    +0.000 C 
ATOM      2  C   UNL     1       4.095   3.735  17.782  0.00  0.00    +0.000 C 
ATOM      3  C   UNL     1       4.549   3.659  19.230  0.00  0.00    +0.000 C 
ATOM      4  O   UNL     1       5.930   4.012  19.367  0.00  0.00    +0.000 OA
ATOM      5  C   UNL     1       6.288   5.164  18.715  0.00  0.00    +0.000 A 
ATOM      6  C   UNL     1       7.526   5.700  19.070  0.00  0.00    +0.000 A 
ATOM      7  C   UNL     1       7.994   6.858  18.451  0.00  0.00    +0.000 A 
ATOM      8  C   UNL     1       7.228   7.476  17.465  0.00  0.00    +0.000 A 
ATOM      9  C   UNL     1       5.995   6.934  17.097  0.00  0.00    +0.000 A 
ATOM     10  C   UNL     1       5.512   5.769  17.717  0.00  0.00    +0.000 A 
ENDROOT
BRANCH   1  11
ATOM     11  N   UNL     1       3.077   5.965  17.866  0.00  0.00    +0.000 NA
ATOM     12  H   UNL     1       2.231   5.401  17.874  0.00  0.00    +0.000 HD
ATOM     13  H   UNL     1       2.890   6.763  17.262  0.00  0.00    +0.000 HD
ENDBRANCH   1  11
TORSDOF 1
ENDMDL
MODEL 5
REMARK VINA RESULT:      -5.5      2.032      4.121
REMARK  Name = 
REMARK  1 active torsions:
REMARK  status: ('A' for Active; 'I' for Inactive)
REMARK    1  A    between atoms: N_1  and  C_2
REMARK                            x       y       z     vdW  Elec       q    Type
REMARK                         _______ _______ _______ _____ _____    ______ ____
ROOT
ATOM      1  C   UNL     1       4.811   4.354  19.506  0.00  0.00    +0.000 C 
ATOM      2  C   UNL     1       3.368   4.635  19.093  0.00  0.00    +0.000 C 
ATOM      3  C   UNL     1       3.310   4.812  17.586  0.00  0.00    +0.000 C 
ATOM      4  O   UNL     1       4.050   5.962  17.163  0.00  0.00    +0.000 OA
ATOM      5  C   UNL     1       5.307   6.057  17.702  0.00  0.00    +0.000 A 
ATOM      6  C   UNL     1       6.160   6.977  17.090  0.00  0.00    +0.000 A 
ATOM      7  C   UNL     1       7.453   7.166  17.574  0.00  0.00    +0.000 A 
ATOM      8  C   UNL     1       7.892   6.442  18.680  0.00  0.00    +0.000 A 
ATOM      9  C   UNL     1       7.037   5.532  19.304  0.00  0.00    +0.000 A 
ATOM     10  C   UNL     1       5.733   5.331  18.822  0.00  0.00    +0.000 A 
ENDROOT
BRANCH   1  11
ATOM     11  N   UNL     1       5.172   2.974  19.167  0.00  0.00    +0.000 NA
ATOM     12  H   UNL     1       5.007   2.371  19.969  0.00  0.00    +0.000 HD
ATOM     13  H   UNL     1       6.169   2.927  18.966  0.00  0.00    +0.000 HD
ENDBRANCH   1  11
TORSDOF 1
ENDMDL
MODEL 6
REMARK VINA RESULT:      -5.4      2.669      3.828
REMARK  Name = 
REMARK  1 active torsions:
REMARK  status: ('A' for Active; 'I' for Inactive)
REMARK    1  A    between atoms: N_1  and  C_2
REMARK                            x       y       z     vdW  Elec       q    Type
REMARK                         _______ _______ _______ _____ _____    ______ ____
ROOT
ATOM      1  C   UNL     1       4.612   3.591  18.234  0.00  0.00    +0.000 C 
ATOM      2  C   UNL     1       4.227   4.512  17.078  0.00  0.00    +0.000 C 
ATOM      3  C   UNL     1       3.757   5.843  17.640  0.00  0.00    +0.000 C 
ATOM      4  O   UNL     1       2.563   5.695  18.414  0.00  0.00    +0.000 OA
ATOM      5  C   UNL     1       2.601   4.670  19.325  0.00  0.00    +0.000 A 
ATOM      6  C   UNL     1       1.597   4.686  20.295  0.00  0.00    +0.000 A 
ATOM      7  C   UNL     1       1.532   3.678  21.256  0.00  0.00    +0.000 A 
ATOM      8  C   UNL     1       2.467   2.645  21.241  0.00  0.00    +0.000 A 
ATOM      9  C   UNL     1       3.463   2.618  20.263  0.00  0.00    +0.000 A 
ATOM     10  C   UNL     1       3.540   3.631  19.292  0.00  0.00    +0.000 A 
ENDROOT
BRANCH   1  11
ATOM     11  N   UNL     1       5.907   3.998  18.789  0.00  0.00    +0.000 NA
ATOM     12  H   UNL     1       5.779   4.800  19.402  0.00  0.00    +0.000 HD
ATOM     13  H   UNL     1       6.517   4.302  18.033  0.00  0.00    +0.000 HD
ENDBRANCH   1  11
TORSDOF 1
ENDMDL
MODEL 7
REMARK VINA RESULT:      -5.4      2.816      3.807
REMARK  Name = 
REMARK  1 active torsions:
REMARK  status: ('A' for Active; 'I' for Inactive)
REMARK    1  A    between atoms: N_1  and  C_2
REMARK                            x       y       z     vdW  Elec       q    Type
REMARK                         _______ _______ _______ _____ _____    ______ ____
ROOT
ATOM      1  C   UNL     1       4.425   2.924  18.775  0.00  0.00    +0.000 C 
ATOM      2  C   UNL     1       5.283   4.071  18.246  0.00  0.00    +0.000 C 
ATOM      3  C   UNL     1       5.367   5.156  19.306  0.00  0.00    +0.000 C 
ATOM      4  O   UNL     1       4.085   5.737  19.566  0.00  0.00    +0.000 OA
ATOM      5  C   UNL     1       3.077   4.827  19.758  0.00  0.00    +0.000 A 
ATOM      6  C   UNL     1       1.900   5.334  20.309  0.00  0.00    +0.000 A 
ATOM      7  C   UNL     1       0.807   4.497  20.525  0.00  0.00    +0.000 A 
ATOM      8  C   UNL     1       0.887   3.149  20.179  0.00  0.00    +0.000 A 
ATOM      9  C   UNL     1       2.058   2.642  19.613  0.00  0.00    +0.000 A 
ATOM     10  C   UNL     1       3.167   3.476  19.395  0.00  0.00    +0.000 A 
ENDROOT
BRANCH   1  11
ATOM     11  N   UNL     1       5.184   2.137  19.752  0.00  0.00    +0.000 NA
ATOM     12  H   UNL     1       4.783   2.263  20.678  0.00  0.00    +0.000 HD
ATOM     13  H   UNL     1       6.139   2.488  19.797  0.00  0.00    +0.000 HD
ENDBRANCH   1  11
TORSDOF 1
ENDMDL
MODEL 8
REMARK VINA RESULT:      -5.4      2.745      3.854
REMARK  Name = 
REMARK  1 active torsions:
REMARK  status: ('A' for Active; 'I' for Inactive)
REMARK    1  A    between atoms: N_1  and  C_2
REMARK                            x       y       z     vdW  Elec       q    Type
REMARK                         _______ _______ _______ _____ _____    ______ ____
ROOT
ATOM      1  C   UNL     1       3.452   2.761  17.566  0.00  0.00    +0.000 C 
ATOM      2  C   UNL     1       4.540   3.663  16.988  0.00  0.00    +0.000 C 
ATOM      3  C   UNL     1       5.321   4.292  18.128  0.00  0.00    +0.000 C 
ATOM      4  O   UNL     1       4.497   5.158  18.916  0.00  0.00    +0.000 OA
ATOM      5  C   UNL     1       3.290   4.617  19.278  0.00  0.00    +0.000 A 
ATOM      6  C   UNL     1       2.601   5.296  20.284  0.00  0.00    +0.000 A 
ATOM      7  C   UNL     1       1.355   4.841  20.712  0.00  0.00    +0.000 A 
ATOM      8  C   UNL     1       0.790   3.711  20.125  0.00  0.00    +0.000 A 
ATOM      9  C   UNL     1       1.470   3.039  19.108  0.00  0.00    +0.000 A 
ATOM     10  C   UNL     1       2.728   3.486  18.672  0.00  0.00    +0.000 A 
ENDROOT
BRANCH   1  11
ATOM     11  N   UNL     1       4.045   1.515  18.063  0.00  0.00    +0.000 NA
ATOM     12  H   UNL     1       5.059   1.577  18.019  0.00  0.00    +0.000 HD
ATOM     13  H   UNL     1       3.772   0.747  17.452  0.00  0.00    +0.000 HD
ENDBRANCH   1  11
TORSDOF 1
ENDMDL
MODEL 9
REMARK VINA RESULT:      -5.3      1.554      1.554
REMARK  Name = 
REMARK  1 active torsions:
REMARK  status: ('A' for Active; 'I' for Inactive)
REMARK    1  A    between atoms: N_1  and  C_2
REMARK                            x       y       z     vdW  Elec       q    Type
REMARK                         _______ _______ _______ _____ _____    ______ ____
ROOT
ATOM      1  C   UNL     1       5.919   6.710  17.052  0.00  0.00    +0.000 C 
ATOM      2  C   UNL     1       7.305   6.357  17.588  0.00  0.00    +0.000 C 
ATOM      3  C   UNL     1       7.410   4.848  17.733  0.00  0.00    +0.000 C 
ATOM      4  O   UNL     1       6.492   4.349  18.711  0.00  0.00    +0.000 OA
ATOM      5  C   UNL     1       5.212   4.824  18.583  0.00  0.00    +0.000 A 
ATOM      6  C   UNL     1       4.237   4.139  19.309  0.00  0.00    +0.000 A 
ATOM      7  C   UNL     1       2.907   4.553  19.264  0.00  0.00    +0.000 A 
ATOM      8  C   UNL     1       2.551   5.663  18.501  0.00  0.00    +0.000 A 
ATOM      9  C   UNL     1       3.527   6.359  17.785  0.00  0.00    +0.000 A 
ATOM     10  C   UNL     1       4.870   5.948  17.820  0.00  0.00    +0.000 A 
ENDROOT
BRANCH   1  11
ATOM     11  N   UNL     1       5.841   6.405  15.620  0.00  0.00    +0.000 NA
ATOM     12  H   UNL     1       4.913   6.056  15.395  0.00  0.00    +0.000 HD
ATOM     13  H   UNL     1       6.496   5.656  15.400  0.00  0.00    +0.000 HD
ENDBRANCH   1  11
TORSDOF 1
ENDMDL
