MODEL 1
REMARK VINA RESULT:     -10.0      0.000      0.000
REMARK  Name = 
REMARK  6 active torsions:
REMARK  status: ('A' for Active; 'I' for Inactive)
REMARK    1  A    between atoms: C_1  and  C_2
REMARK    2  A    between atoms: C_2  and  C_3
REMARK    3  A    between atoms: C_2  and  C_4
REMARK    4  A    between atoms: C_9  and  N_10
REMARK    5  A    between atoms: C_11  and  C_13
REMARK    6  A    between atoms: C_19  and  O_20
REMARK                            x       y       z     vdW  Elec       q    Type
REMARK                         _______ _______ _______ _____ _____    ______ ____
ROOT
ATOM      1  C   UNL     1       5.968   4.689  16.771  0.00  0.00    +0.000 A 
ATOM      2  C   UNL     1       5.681   3.857  15.755  0.00  0.00    +0.000 A 
ATOM      3  C   UNL     1       6.265   4.060  14.441  0.00  0.00    +0.000 A 
ATOM      4  C   UNL     1       5.774   3.392  13.312  0.00  0.00    +0.000 A 
ATOM      5  C   UNL     1       6.317   3.665  12.052  0.00  0.00    +0.000 A 
ATOM      6  C   UNL     1       7.385   4.556  11.922  0.00  0.00    +0.000 A 
ATOM      7  C   UNL     1       7.885   5.201  13.053  0.00  0.00    +0.000 A 
ATOM      8  C   UNL     1       7.296   4.979  14.296  0.00  0.00    +0.000 A 
ATOM      9  O   UNL     1       7.702   5.762  15.400  0.00  0.00    +0.000 OA
ATOM     10  C   UNL     1       6.957   5.759  16.567  0.00  0.00    +0.000 A 
ATOM     11  N   UNL     1       7.195   6.700  17.421  0.00  0.00    +0.000 NA
ATOM     12  H   UNL     1       7.936   7.278  16.994  0.00  0.00    +0.000 HD
ENDROOT
BRANCH   1  14
ATOM     13  N   UNL     1       3.805   4.461  17.892  0.00  0.00    +0.000 N 
ATOM     14  C   UNL     1       5.185   4.464  18.029  0.00  0.00    +0.000 C 
ATOM     15  O   UNL     1       5.795   4.283  19.080  0.00  0.00    +0.000 OA
ATOM     16  H   UNL     1       3.443   4.822  17.012  0.00  0.00    +0.000 HD
BRANCH  13  22
ATOM     17  C   UNL     1       2.197   5.023  19.696  0.00  0.00    +0.000 A 
ATOM     18  C   UNL     1       1.230   4.567  20.628  0.00  0.00    +0.000 A 
ATOM     19  C   UNL     1       0.946   3.215  20.790  0.00  0.00    +0.000 A 
ATOM     20  C   UNL     1       1.610   2.284  20.010  0.00  0.00    +0.000 A 
ATOM     21  C   UNL     1       2.547   2.710  19.070  0.00  0.00    +0.000 A 
ATOM     22  C   UNL     1       2.866   4.067  18.890  0.00  0.00    +0.000 A 
BRANCH  17  24
ATOM     23  C   UNL     1       2.325   7.147  18.287  0.00  0.00    +0.000 C 
ATOM     24  C   UNL     1       2.445   6.525  19.682  0.00  0.00    +0.000 C 
ATOM     25  C   UNL     1       1.661   7.253  20.777  0.00  0.00    +0.000 C 
ENDBRANCH  17  24
ENDBRANCH  13  22
ENDBRANCH   1  14
BRANCH   7  26
ATOM     26  O   UNL     1       8.934   6.069  12.945  0.00  0.00    +0.000 OA
ATOM     27  H   UNL     1       8.624   6.963  13.165  0.00  0.00    +0.000 HD
ENDBRANCH   7  26
TORSDOF 4
ENDMDL
MODEL 2
REMARK VINA RESULT:      -9.2      1.079      2.483
REMARK  Name = 
REMARK  6 active torsions:
REMARK  status: ('A' for Active; 'I' for Inactive)
REMARK    1  A    between atoms: C_1  and  C_2
REMARK    2  A    between atoms: C_2  and  C_3
REMARK    3  A    between atoms: C_2  and  C_4
REMARK    4  A    between atoms: C_9  and  N_10
REMARK    5  A    between atoms: C_11  and  C_13
REMARK    6  A    between atoms: C_19  and  O_20
REMARK                            x       y       z     vdW  Elec       q    Type
REMARK                         _______ _______ _______ _____ _____    ______ ____
ROOT
ATOM      1  C   UNL     1       5.885   5.070  16.846  0.00  0.00    +0.000 A 
ATOM      2  C   UNL     1       5.547   4.172  15.904  0.00  0.00    +0.000 A 
ATOM      3  C   UNL     1       6.138   4.227  14.579  0.00  0.00    +0.000 A 
ATOM      4  C   UNL     1       5.604   3.495  13.510  0.00  0.00    +0.000 A 
ATOM      5  C   UNL     1       6.159   3.627  12.233  0.00  0.00    +0.000 A 
ATOM      6  C   UNL     1       7.278   4.439  12.029  0.00  0.00    +0.000 A 
ATOM      7  C   UNL     1       7.819   5.147  13.102  0.00  0.00    +0.000 A 
ATOM      8  C   UNL     1       7.222   5.068  14.359  0.00  0.00    +0.000 A 
ATOM      9  O   UNL     1       7.676   5.916  15.393  0.00  0.00    +0.000 OA
ATOM     10  C   UNL     1       6.936   6.057  16.553  0.00  0.00    +0.000 A 
ATOM     11  N   UNL     1       7.232   7.052  17.324  0.00  0.00    +0.000 NA
ATOM     12  H   UNL     1       8.005   7.546  16.851  0.00  0.00    +0.000 HD
ENDROOT
BRANCH   1  14
ATOM     13  N   UNL     1       3.835   4.427  18.017  0.00  0.00    +0.000 N 
ATOM     14  C   UNL     1       5.094   5.000  18.117  0.00  0.00    +0.000 C 
ATOM     15  O   UNL     1       5.600   5.428  19.152  0.00  0.00    +0.000 OA
ATOM     16  H   UNL     1       3.474   4.307  17.073  0.00  0.00    +0.000 HD
BRANCH  13  22
ATOM     17  C   UNL     1       3.273   2.939  19.921  0.00  0.00    +0.000 A 
ATOM     18  C   UNL     1       2.427   2.671  21.027  0.00  0.00    +0.000 A 
ATOM     19  C   UNL     1       1.318   3.463  21.312  0.00  0.00    +0.000 A 
ATOM     20  C   UNL     1       1.039   4.554  20.509  0.00  0.00    +0.000 A 
ATOM     21  C   UNL     1       1.871   4.852  19.430  0.00  0.00    +0.000 A 
ATOM     22  C   UNL     1       2.991   4.066  19.108  0.00  0.00    +0.000 A 
BRANCH  17  24
ATOM     23  C   UNL     1       4.943   1.339  20.998  0.00  0.00    +0.000 C 
ATOM     24  C   UNL     1       4.405   1.945  19.699  0.00  0.00    +0.000 C 
ATOM     25  C   UNL     1       4.075   0.926  18.605  0.00  0.00    +0.000 C 
ENDBRANCH  17  24
ENDBRANCH  13  22
ENDBRANCH   1  14
BRANCH   7  26
ATOM     26  O   UNL     1       8.917   5.938  12.923  0.00  0.00    +0.000 OA
ATOM     27  H   UNL     1       9.440   5.584  12.183  0.00  0.00    +0.000 HD
ENDBRANCH   7  26
TORSDOF 4
ENDMDL
MODEL 3
REMARK VINA RESULT:      -9.1      0.814      2.258
REMARK  Name = 
REMARK  6 active torsions:
REMARK  status: ('A' for Active; 'I' for Inactive)
REMARK    1  A    between atoms: C_1  and  C_2
REMARK    2  A    between atoms: C_2  and  C_3
REMARK    3  A    between atoms: C_2  and  C_4
REMARK    4  A    between atoms: C_9  and  N_10
REMARK    5  A    between atoms: C_11  and  C_13
REMARK    6  A    between atoms: C_19  and  O_20
REMARK                            x       y       z     vdW  Elec       q    Type
REMARK                         _______ _______ _______ _____ _____    ______ ____
ROOT
ATOM      1  C   UNL     1       6.034   4.795  16.861  0.00  0.00    +0.000 A 
ATOM      2  C   UNL     1       5.720   3.934  15.878  0.00  0.00    +0.000 A 
ATOM      3  C   UNL     1       6.261   4.105  14.541  0.00  0.00    +0.000 A 
ATOM      4  C   UNL     1       5.738   3.404  13.447  0.00  0.00    +0.000 A 
ATOM      5  C   UNL     1       6.241   3.646  12.163  0.00  0.00    +0.000 A 
ATOM      6  C   UNL     1       7.300   4.537  11.976  0.00  0.00    +0.000 A 
ATOM      7  C   UNL     1       7.832   5.214  13.073  0.00  0.00    +0.000 A 
ATOM      8  C   UNL     1       7.283   5.024  14.340  0.00  0.00    +0.000 A 
ATOM      9  O   UNL     1       7.719   5.837  15.409  0.00  0.00    +0.000 OA
ATOM     10  C   UNL     1       7.011   5.863  16.598  0.00  0.00    +0.000 A 
ATOM     11  N   UNL     1       7.271   6.827  17.419  0.00  0.00    +0.000 NA
ATOM     12  H   UNL     1       7.995   7.396  16.953  0.00  0.00    +0.000 HD
ENDROOT
BRANCH   1  14
ATOM     13  N   UNL     1       3.910   4.703  18.075  0.00  0.00    +0.000 N 
ATOM     14  C   UNL     1       5.292   4.601  18.149  0.00  0.00    +0.000 C 
ATOM     15  O   UNL     1       5.931   4.352  19.168  0.00  0.00    +0.000 OA
ATOM     16  H   UNL     1       3.539   5.109  17.219  0.00  0.00    +0.000 HD
BRANCH  13  22
ATOM     17  C   UNL     1       2.470   3.044  19.228  0.00  0.00    +0.000 A 
ATOM     18  C   UNL     1       1.605   2.753  20.313  0.00  0.00    +0.000 A 
ATOM     19  C   UNL     1       1.232   3.725  21.236  0.00  0.00    +0.000 A 
ATOM     20  C   UNL     1       1.730   5.010  21.107  0.00  0.00    +0.000 A 
ATOM     21  C   UNL     1       2.602   5.314  20.062  0.00  0.00    +0.000 A 
ATOM     22  C   UNL     1       2.988   4.358  19.106  0.00  0.00    +0.000 A 
BRANCH  17  24
ATOM     23  C   UNL     1       2.599   2.293  16.792  0.00  0.00    +0.000 C 
ATOM     24  C   UNL     1       2.732   1.893  18.265  0.00  0.00    +0.000 C 
ATOM     25  C   UNL     1       4.013   1.129  18.608  0.00  0.00    +0.000 C 
ENDBRANCH  17  24
ENDBRANCH  13  22
ENDBRANCH   1  14
BRANCH   7  26
ATOM     26  O   UNL     1       8.873   6.083  12.910  0.00  0.00    +0.000 OA
ATOM     27  H   UNL     1       8.576   6.825  12.357  0.00  0.00    +0.000 HD
ENDBRANCH   7  26
TORSDOF 4
ENDMDL
MODEL 4
REMARK VINA RESULT:      -8.9      0.947      1.189
REMARK  Name = 
REMARK  6 active torsions:
REMARK  status: ('A' for Active; 'I' for Inactive)
REMARK    1  A    between atoms: C_1  and  C_2
REMARK    2  A    between atoms: C_2  and  C_3
REMARK    3  A    between atoms: C_2  and  C_4
REMARK    4  A    between atoms: C_9  and  N_10
REMARK    5  A    between atoms: C_11  and  C_13
REMARK    6  A    between atoms: C_19  and  O_20
REMARK                            x       y       z     vdW  Elec       q    Type
REMARK                         _______ _______ _______ _____ _____    ______ ____
ROOT
ATOM      1  C   UNL     1       6.014   4.954  17.012  0.00  0.00    +0.000 A 
ATOM      2  C   UNL     1       5.653   4.059  16.075  0.00  0.00    +0.000 A 
ATOM      3  C   UNL     1       6.175   4.147  14.724  0.00  0.00    +0.000 A 
ATOM      4  C   UNL     1       5.609   3.415  13.672  0.00  0.00    +0.000 A 
ATOM      5  C   UNL     1       6.096   3.578  12.371  0.00  0.00    +0.000 A 
ATOM      6  C   UNL     1       7.182   4.422  12.124  0.00  0.00    +0.000 A 
ATOM      7  C   UNL     1       7.756   5.131  13.179  0.00  0.00    +0.000 A 
ATOM      8  C   UNL     1       7.225   5.020  14.462  0.00  0.00    +0.000 A 
ATOM      9  O   UNL     1       7.707   5.866  15.485  0.00  0.00    +0.000 OA
ATOM     10  C   UNL     1       7.022   5.973  16.682  0.00  0.00    +0.000 A 
ATOM     11  N   UNL     1       7.330   6.965  17.452  0.00  0.00    +0.000 NA
ATOM     12  H   UNL     1       8.065   7.486  16.948  0.00  0.00    +0.000 HD
ENDROOT
BRANCH   1  14
ATOM     13  N   UNL     1       4.200   3.987  18.341  0.00  0.00    +0.000 N 
ATOM     14  C   UNL     1       5.289   4.846  18.319  0.00  0.00    +0.000 C 
ATOM     15  O   UNL     1       5.700   5.495  19.278  0.00  0.00    +0.000 OA
ATOM     16  H   UNL     1       3.858   3.678  17.433  0.00  0.00    +0.000 HD
BRANCH  13  22
ATOM     17  C   UNL     1       2.294   4.207  19.914  0.00  0.00    +0.000 A 
ATOM     18  C   UNL     1       1.604   3.698  21.043  0.00  0.00    +0.000 A 
ATOM     19  C   UNL     1       2.084   2.611  21.769  0.00  0.00    +0.000 A 
ATOM     20  C   UNL     1       3.257   1.994  21.371  0.00  0.00    +0.000 A 
ATOM     21  C   UNL     1       3.940   2.462  20.249  0.00  0.00    +0.000 A 
ATOM     22  C   UNL     1       3.489   3.565  19.502  0.00  0.00    +0.000 A 
BRANCH  17  24
ATOM     23  C   UNL     1       2.384   6.744  19.659  0.00  0.00    +0.000 C 
ATOM     24  C   UNL     1       1.681   5.441  19.266  0.00  0.00    +0.000 C 
ATOM     25  C   UNL     1       1.463   5.259  17.762  0.00  0.00    +0.000 C 
ENDBRANCH  17  24
ENDBRANCH  13  22
ENDBRANCH   1  14
BRANCH   7  26
ATOM     26  O   UNL     1       8.823   5.954  12.957  0.00  0.00    +0.000 OA
ATOM     27  H   UNL     1       9.154   6.274  13.814  0.00  0.00    +0.000 HD
ENDBRANCH   7  26
TORSDOF 4
ENDMDL
MODEL 5
REMARK VINA RESULT:      -8.7      1.170      1.183
REMARK  Name = 
REMARK  6 active torsions:
REMARK  status: ('A' for Active; 'I' for Inactive)
REMARK    1  A    between atoms: C_1  and  C_2
REMARK    2  A    between atoms: C_2  and  C_3
REMARK    3  A    between atoms: C_2  and  C_4
REMARK    4  A    between atoms: C_9  and  N_10
REMARK    5  A    between atoms: C_11  and  C_13
REMARK    6  A    between atoms: C_19  and  O_20
REMARK                            x       y       z     vdW  Elec       q    Type
REMARK                         _______ _______ _______ _____ _____    ______ ____
ROOT
ATOM      1  C   UNL     1       5.317   4.188  16.192  0.00  0.00    +0.000 A 
ATOM      2  C   UNL     1       5.312   3.517  15.027  0.00  0.00    +0.000 A 
ATOM      3  C   UNL     1       6.168   3.930  13.929  0.00  0.00    +0.000 A 
ATOM      4  C   UNL     1       5.981   3.435  12.632  0.00  0.00    +0.000 A 
ATOM      5  C   UNL     1       6.782   3.909  11.587  0.00  0.00    +0.000 A 
ATOM      6  C   UNL     1       7.805   4.826  11.840  0.00  0.00    +0.000 A 
ATOM      7  C   UNL     1       8.001   5.297  13.138  0.00  0.00    +0.000 A 
ATOM      8  C   UNL     1       7.157   4.877  14.165  0.00  0.00    +0.000 A 
ATOM      9  O   UNL     1       7.260   5.486  15.435  0.00  0.00    +0.000 OA
ATOM     10  C   UNL     1       6.271   5.292  16.383  0.00  0.00    +0.000 A 
ATOM     11  N   UNL     1       6.260   6.093  17.397  0.00  0.00    +0.000 NA
ATOM     12  H   UNL     1       7.048   6.742  17.243  0.00  0.00    +0.000 HD
ENDROOT
BRANCH   1  14
ATOM     13  N   UNL     1       4.578   4.010  18.519  0.00  0.00    +0.000 N 
ATOM     14  C   UNL     1       4.281   3.759  17.187  0.00  0.00    +0.000 C 
ATOM     15  O   UNL     1       3.247   3.239  16.776  0.00  0.00    +0.000 OA
ATOM     16  H   UNL     1       5.545   4.256  18.721  0.00  0.00    +0.000 HD
BRANCH  13  22
ATOM     17  C   UNL     1       2.808   4.943  19.985  0.00  0.00    +0.000 A 
ATOM     18  C   UNL     1       1.893   4.731  21.047  0.00  0.00    +0.000 A 
ATOM     19  C   UNL     1       1.848   3.530  21.749  0.00  0.00    +0.000 A 
ATOM     20  C   UNL     1       2.706   2.504  21.394  0.00  0.00    +0.000 A 
ATOM     21  C   UNL     1       3.597   2.681  20.337  0.00  0.00    +0.000 A 
ATOM     22  C   UNL     1       3.676   3.885  19.616  0.00  0.00    +0.000 A 
BRANCH  17  24
ATOM     23  C   UNL     1       2.287   6.334  17.910  0.00  0.00    +0.000 C 
ATOM     24  C   UNL     1       2.783   6.331  19.359  0.00  0.00    +0.000 C 
ATOM     25  C   UNL     1       2.114   7.366  20.267  0.00  0.00    +0.000 C 
ENDBRANCH  17  24
ENDBRANCH  13  22
ENDBRANCH   1  14
BRANCH   7  26
ATOM     26  O   UNL     1       9.001   6.187  13.406  0.00  0.00    +0.000 OA
ATOM     27  H   UNL     1       8.788   7.034  12.980  0.00  0.00    +0.000 HD
ENDBRANCH   7  26
TORSDOF 4
ENDMDL
MODEL 6
REMARK VINA RESULT:      -8.6      0.783      2.247
REMARK  Name = 
REMARK  6 active torsions:
REMARK  status: ('A' for Active; 'I' for Inactive)
REMARK    1  A    between atoms: C_1  and  C_2
REMARK    2  A    between atoms: C_2  and  C_3
REMARK    3  A    between atoms: C_2  and  C_4
REMARK    4  A    between atoms: C_9  and  N_10
REMARK    5  A    between atoms: C_11  and  C_13
REMARK    6  A    between atoms: C_19  and  O_20
REMARK                            x       y       z     vdW  Elec       q    Type
REMARK                         _______ _______ _______ _____ _____    ______ ____
ROOT
ATOM      1  C   UNL     1       5.884   5.390  16.807  0.00  0.00    +0.000 A 
ATOM      2  C   UNL     1       5.468   4.463  15.927  0.00  0.00    +0.000 A 
ATOM      3  C   UNL     1       6.062   4.374  14.606  0.00  0.00    +0.000 A 
ATOM      4  C   UNL     1       5.467   3.620  13.586  0.00  0.00    +0.000 A 
ATOM      5  C   UNL     1       6.032   3.614  12.306  0.00  0.00    +0.000 A 
ATOM      6  C   UNL     1       7.218   4.308  12.055  0.00  0.00    +0.000 A 
ATOM      7  C   UNL     1       7.819   5.038  13.080  0.00  0.00    +0.000 A 
ATOM      8  C   UNL     1       7.217   5.099  14.335  0.00  0.00    +0.000 A 
ATOM      9  O   UNL     1       7.743   5.973  15.312  0.00  0.00    +0.000 OA
ATOM     10  C   UNL     1       7.018   6.259  16.455  0.00  0.00    +0.000 A 
ATOM     11  N   UNL     1       7.401   7.274  17.158  0.00  0.00    +0.000 NA
ATOM     12  H   UNL     1       8.214   7.664  16.657  0.00  0.00    +0.000 HD
ENDROOT
BRANCH   1  14
ATOM     13  N   UNL     1       3.735   5.740  17.925  0.00  0.00    +0.000 N 
ATOM     14  C   UNL     1       5.089   5.478  18.075  0.00  0.00    +0.000 C 
ATOM     15  O   UNL     1       5.664   5.301  19.146  0.00  0.00    +0.000 OA
ATOM     16  H   UNL     1       3.443   6.062  17.005  0.00  0.00    +0.000 HD
BRANCH  13  22
ATOM     17  C   UNL     1       2.125   4.439  19.293  0.00  0.00    +0.000 A 
ATOM     18  C   UNL     1       1.198   4.424  20.365  0.00  0.00    +0.000 A 
ATOM     19  C   UNL     1       0.866   5.580  21.066  0.00  0.00    +0.000 A 
ATOM     20  C   UNL     1       1.468   6.778  20.723  0.00  0.00    +0.000 A 
ATOM     21  C   UNL     1       2.402   6.813  19.687  0.00  0.00    +0.000 A 
ATOM     22  C   UNL     1       2.749   5.666  18.952  0.00  0.00    +0.000 A 
BRANCH  17  24
ATOM     23  C   UNL     1       3.594   2.369  19.036  0.00  0.00    +0.000 C 
ATOM     24  C   UNL     1       2.334   3.109  18.581  0.00  0.00    +0.000 C 
ATOM     25  C   UNL     1       1.062   2.257  18.560  0.00  0.00    +0.000 C 
ENDBRANCH  17  24
ENDBRANCH  13  22
ENDBRANCH   1  14
BRANCH   7  26
ATOM     26  O   UNL     1       8.983   5.715  12.854  0.00  0.00    +0.000 OA
ATOM     27  H   UNL     1       9.561   5.610  13.629  0.00  0.00    +0.000 HD
ENDBRANCH   7  26
TORSDOF 4
ENDMDL
MODEL 7
REMARK VINA RESULT:      -8.5      3.101      7.863
REMARK  Name = 
REMARK  6 active torsions:
REMARK  status: ('A' for Active; 'I' for Inactive)
REMARK    1  A    between atoms: C_1  and  C_2
REMARK    2  A    between atoms: C_2  and  C_3
REMARK    3  A    between atoms: C_2  and  C_4
REMARK    4  A    between atoms: C_9  and  N_10
REMARK    5  A    between atoms: C_11  and  C_13
REMARK    6  A    between atoms: C_19  and  O_20
REMARK                            x       y       z     vdW  Elec       q    Type
REMARK                         _______ _______ _______ _____ _____    ______ ____
ROOT
ATOM      1  C   UNL     1       2.558   7.007  18.921  0.00  0.00    +0.000 A 
ATOM      2  C   UNL     1       2.230   8.157  18.306  0.00  0.00    +0.000 A 
ATOM      3  C   UNL     1       1.335   9.109  18.939  0.00  0.00    +0.000 A 
ATOM      4  C   UNL     1       0.760  10.163  18.217  0.00  0.00    +0.000 A 
ATOM      5  C   UNL     1      -0.151  11.019  18.846  0.00  0.00    +0.000 A 
ATOM      6  C   UNL     1      -0.444  10.864  20.203  0.00  0.00    +0.000 A 
ATOM      7  C   UNL     1       0.149   9.828  20.922  0.00  0.00    +0.000 A 
ATOM      8  C   UNL     1       1.003   8.934  20.277  0.00  0.00    +0.000 A 
ATOM      9  O   UNL     1       1.463   7.795  20.974  0.00  0.00    +0.000 OA
ATOM     10  C   UNL     1       2.078   6.761  20.289  0.00  0.00    +0.000 A 
ATOM     11  N   UNL     1       2.207   5.636  20.913  0.00  0.00    +0.000 NA
ATOM     12  H   UNL     1       1.782   5.786  21.841  0.00  0.00    +0.000 HD
ENDROOT
BRANCH   1  14
ATOM     13  N   UNL     1       4.209   6.609  17.159  0.00  0.00    +0.000 N 
ATOM     14  C   UNL     1       3.362   6.044  18.101  0.00  0.00    +0.000 C 
ATOM     15  O   UNL     1       3.241   4.840  18.316  0.00  0.00    +0.000 OA
ATOM     16  H   UNL     1       4.055   7.594  16.955  0.00  0.00    +0.000 HD
BRANCH  13  22
ATOM     17  C   UNL     1       6.563   5.893  16.840  0.00  0.00    +0.000 A 
ATOM     18  C   UNL     1       7.497   5.139  16.086  0.00  0.00    +0.000 A 
ATOM     19  C   UNL     1       7.129   4.456  14.931  0.00  0.00    +0.000 A 
ATOM     20  C   UNL     1       5.811   4.495  14.511  0.00  0.00    +0.000 A 
ATOM     21  C   UNL     1       4.869   5.209  15.250  0.00  0.00    +0.000 A 
ATOM     22  C   UNL     1       5.211   5.920  16.414  0.00  0.00    +0.000 A 
BRANCH  17  24
ATOM     23  C   UNL     1       7.924   5.742  18.993  0.00  0.00    +0.000 C 
ATOM     24  C   UNL     1       7.131   6.640  18.040  0.00  0.00    +0.000 C 
ATOM     25  C   UNL     1       7.845   7.932  17.634  0.00  0.00    +0.000 C 
ENDBRANCH  17  24
ENDBRANCH  13  22
ENDBRANCH   1  14
BRANCH   7  26
ATOM     26  O   UNL     1      -0.119   9.667  22.251  0.00  0.00    +0.000 OA
ATOM     27  H   UNL     1       0.197   8.792  22.530  0.00  0.00    +0.000 HD
ENDBRANCH   7  26
TORSDOF 4
ENDMDL
MODEL 8
REMARK VINA RESULT:      -8.5      3.720      8.577
REMARK  Name = 
REMARK  6 active torsions:
REMARK  status: ('A' for Active; 'I' for Inactive)
REMARK    1  A    between atoms: C_1  and  C_2
REMARK    2  A    between atoms: C_2  and  C_3
REMARK    3  A    between atoms: C_2  and  C_4
REMARK    4  A    between atoms: C_9  and  N_10
REMARK    5  A    between atoms: C_11  and  C_13
REMARK    6  A    between atoms: C_19  and  O_20
REMARK                            x       y       z     vdW  Elec       q    Type
REMARK                         _______ _______ _______ _____ _____    ______ ____
ROOT
ATOM      1  C   UNL     1       1.847   8.419  19.430  0.00  0.00    +0.000 A 
ATOM      2  C   UNL     1       1.322   9.648  19.282  0.00  0.00    +0.000 A 
ATOM      3  C   UNL     1       0.509  10.239  20.330  0.00  0.00    +0.000 A 
ATOM      4  C   UNL     1      -0.272  11.378  20.094  0.00  0.00    +0.000 A 
ATOM      5  C   UNL     1      -1.096  11.877  21.109  0.00  0.00    +0.000 A 
ATOM      6  C   UNL     1      -1.099  11.283  22.372  0.00  0.00    +0.000 A 
ATOM      7  C   UNL     1      -0.301  10.163  22.608  0.00  0.00    +0.000 A 
ATOM      8  C   UNL     1       0.465   9.626  21.576  0.00  0.00    +0.000 A 
ATOM      9  O   UNL     1       1.135   8.399  21.781  0.00  0.00    +0.000 OA
ATOM     10  C   UNL     1       1.670   7.710  20.706  0.00  0.00    +0.000 A 
ATOM     11  N   UNL     1       2.000   6.476  20.903  0.00  0.00    +0.000 NA
ATOM     12  H   UNL     1       1.762   6.281  21.888  0.00  0.00    +0.000 HD
ENDROOT
BRANCH   1  14
ATOM     13  N   UNL     1       3.490   6.886  18.461  0.00  0.00    +0.000 N 
ATOM     14  C   UNL     1       2.535   7.863  18.220  0.00  0.00    +0.000 C 
ATOM     15  O   UNL     1       2.209   8.280  17.111  0.00  0.00    +0.000 OA
ATOM     16  H   UNL     1       3.795   6.790  19.427  0.00  0.00    +0.000 HD
BRANCH  13  22
ATOM     17  C   UNL     1       3.847   4.684  17.376  0.00  0.00    +0.000 A 
ATOM     18  C   UNL     1       4.462   3.944  16.335  0.00  0.00    +0.000 A 
ATOM     19  C   UNL     1       5.344   4.534  15.435  0.00  0.00    +0.000 A 
ATOM     20  C   UNL     1       5.619   5.887  15.543  0.00  0.00    +0.000 A 
ATOM     21  C   UNL     1       5.007   6.641  16.544  0.00  0.00    +0.000 A 
ATOM     22  C   UNL     1       4.121   6.071  17.476  0.00  0.00    +0.000 A 
BRANCH  17  24
ATOM     23  C   UNL     1       1.467   4.012  18.005  0.00  0.00    +0.000 C 
ATOM     24  C   UNL     1       2.960   3.884  18.321  0.00  0.00    +0.000 C 
ATOM     25  C   UNL     1       3.456   2.447  18.504  0.00  0.00    +0.000 C 
ENDBRANCH  17  24
ENDBRANCH  13  22
ENDBRANCH   1  14
BRANCH   7  26
ATOM     26  O   UNL     1      -0.285   9.575  23.840  0.00  0.00    +0.000 OA
ATOM     27  H   UNL     1      -0.602   8.660  23.754  0.00  0.00    +0.000 HD
ENDBRANCH   7  26
TORSDOF 4
ENDMDL
MODEL 9
REMARK VINA RESULT:      -8.5      4.301      8.569
REMARK  Name = 
REMARK  6 active torsions:
REMARK  status: ('A' for Active; 'I' for Inactive)
REMARK    1  A    between atoms: C_1  and  C_2
REMARK    2  A    between atoms: C_2  and  C_3
REMARK    3  A    between atoms: C_2  and  C_4
REMARK    4  A    between atoms: C_9  and  N_10
REMARK    5  A    between atoms: C_11  and  C_13
REMARK    6  A    between atoms: C_19  and  O_20
REMARK                            x       y       z     vdW  Elec       q    Type
REMARK                         _______ _______ _______ _____ _____    ______ ____
ROOT
ATOM      1  C   UNL     1       1.477   9.224  19.044  0.00  0.00    +0.000 A 
ATOM      2  C   UNL     1       0.896   8.721  20.147  0.00  0.00    +0.000 A 
ATOM      3  C   UNL     1       0.209   9.588  21.086  0.00  0.00    +0.000 A 
ATOM      4  C   UNL     1      -0.153   9.141  22.364  0.00  0.00    +0.000 A 
ATOM      5  C   UNL     1      -0.753  10.028  23.265  0.00  0.00    +0.000 A 
ATOM      6  C   UNL     1      -1.047  11.337  22.878  0.00  0.00    +0.000 A 
ATOM      7  C   UNL     1      -0.705  11.770  21.597  0.00  0.00    +0.000 A 
ATOM      8  C   UNL     1      -0.045  10.906  20.725  0.00  0.00    +0.000 A 
ATOM      9  O   UNL     1       0.442  11.405  19.497  0.00  0.00    +0.000 OA
ATOM     10  C   UNL     1       1.329  10.656  18.743  0.00  0.00    +0.000 A 
ATOM     11  N   UNL     1       1.964  11.269  17.799  0.00  0.00    +0.000 NA
ATOM     12  H   UNL     1       1.640  12.248  17.840  0.00  0.00    +0.000 HD
ENDROOT
BRANCH   1  14
ATOM     13  N   UNL     1       2.631   7.072  18.882  0.00  0.00    +0.000 N 
ATOM     14  C   UNL     1       2.284   8.251  18.239  0.00  0.00    +0.000 C 
ATOM     15  O   UNL     1       2.570   8.537  17.079  0.00  0.00    +0.000 OA
ATOM     16  H   UNL     1       2.503   7.061  19.892  0.00  0.00    +0.000 HD
BRANCH  13  22
ATOM     17  C   UNL     1       2.675   4.625  18.476  0.00  0.00    +0.000 A 
ATOM     18  C   UNL     1       3.259   3.532  17.788  0.00  0.00    +0.000 A 
ATOM     19  C   UNL     1       4.354   3.696  16.943  0.00  0.00    +0.000 A 
ATOM     20  C   UNL     1       4.879   4.962  16.753  0.00  0.00    +0.000 A 
ATOM     21  C   UNL     1       4.306   6.056  17.400  0.00  0.00    +0.000 A 
ATOM     22  C   UNL     1       3.208   5.922  18.269  0.00  0.00    +0.000 A 
BRANCH  17  24
ATOM     23  C   UNL     1       0.846   2.948  19.074  0.00  0.00    +0.000 C 
ATOM     24  C   UNL     1       1.528   4.276  19.416  0.00  0.00    +0.000 C 
ATOM     25  C   UNL     1       1.914   4.438  20.888  0.00  0.00    +0.000 C 
ENDBRANCH  17  24
ENDBRANCH  13  22
ENDBRANCH   1  14
BRANCH   7  26
ATOM     26  O   UNL     1      -0.993  13.044  21.199  0.00  0.00    +0.000 OA
ATOM     27  H   UNL     1      -1.274  13.557  21.975  0.00  0.00    +0.000 HD
ENDBRANCH   7  26
TORSDOF 4
ENDMDL
