MODEL 1
REMARK VINA RESULT:      -9.7      0.000      0.000
REMARK  Name = 
REMARK  8 active torsions:
REMARK  status: ('A' for Active; 'I' for Inactive)
REMARK    1  A    between atoms: C_1  and  C_2
REMARK    2  A    between atoms: C_2  and  N_3
REMARK    3  A    between atoms: C_5  and  C_6
REMARK    4  A    between atoms: C_6  and  C_8
REMARK    5  A    between atoms: C_12  and  N_13
REMARK    6  A    between atoms: C_14  and  C_16
REMARK    7  A    between atoms: C_20  and  O_21
REMARK    8  A    between atoms: O_21  and  C_22
REMARK                            x       y       z     vdW  Elec       q    Type
REMARK                         _______ _______ _______ _____ _____    ______ ____
ROOT
ATOM      1  C   UNL     1      -0.584  11.321  21.105  0.00  0.00    +0.000 A 
ATOM      2  C   UNL     1      -0.748  11.283  22.481  0.00  0.00    +0.000 A 
ATOM      3  N   UNL     1      -0.224  10.331  23.277  0.00  0.00    +0.000 NA
ATOM      4  C   UNL     1       0.470   9.343  22.657  0.00  0.00    +0.000 A 
ATOM      5  C   UNL     1       0.666   9.249  21.279  0.00  0.00    +0.000 A 
ATOM      6  C   UNL     1       0.121  10.272  20.491  0.00  0.00    +0.000 A 
ENDROOT
BRANCH   5   7
ATOM      7  N   UNL     1       1.372   8.193  20.646  0.00  0.00    +0.000 N 
ATOM      8  C   UNL     1       1.852   8.234  19.341  0.00  0.00    +0.000 C 
ATOM      9  O   UNL     1       1.749   9.180  18.567  0.00  0.00    +0.000 OA
ATOM     10  H   UNL     1       1.596   7.389  21.215  0.00  0.00    +0.000 HD
BRANCH   8  11
ATOM     11  C   UNL     1       2.577   7.037  18.849  0.00  0.00    +0.000 A 
ATOM     12  C   UNL     1       3.488   7.223  17.796  0.00  0.00    +0.000 A 
ATOM     13  C   UNL     1       4.151   6.135  17.241  0.00  0.00    +0.000 A 
ATOM     14  C   UNL     1       3.919   4.859  17.750  0.00  0.00    +0.000 A 
ATOM     15  C   UNL     1       3.028   4.663  18.812  0.00  0.00    +0.000 A 
ATOM     16  C   UNL     1       2.324   5.750  19.334  0.00  0.00    +0.000 A 
BRANCH  15  17
ATOM     17  O   UNL     1       2.870   3.362  19.186  0.00  0.00    +0.000 OA
BRANCH  17  18
ATOM     18  C   UNL     1       1.965   2.532  18.472  0.00  0.00    +0.000 C 
ATOM     19  F   UNL     1       2.505   1.927  17.391  0.00  0.00    +0.000 F 
ATOM     20  F   UNL     1       1.491   1.580  19.304  0.00  0.00    +0.000 F 
ATOM     21  F   UNL     1       0.927   3.284  18.050  0.00  0.00    +0.000 F 
ENDBRANCH  17  18
ENDBRANCH  15  17
ENDBRANCH   8  11
ENDBRANCH   5   7
BRANCH   1  22
ATOM     22  C   UNL     1      -1.191  12.410  20.301  0.00  0.00    +0.000 C 
ATOM     23  O   UNL     1      -0.557  13.448  20.145  0.00  0.00    +0.000 OA
BRANCH  22  26
ATOM     24  N   UNL     1      -4.744  12.117  19.398  0.00  0.00    +0.000 N 
ATOM     25  C   UNL     1      -3.741  12.484  20.271  0.00  0.00    +0.000 A 
ATOM     26  C   UNL     1      -2.509  12.214  19.693  0.00  0.00    +0.000 A 
ATOM     27  C   UNL     1      -2.786  11.728  18.380  0.00  0.00    +0.000 A 
ATOM     28  C   UNL     1      -2.023  11.277  17.302  0.00  0.00    +0.000 A 
ATOM     29  N   UNL     1      -2.638  10.855  16.174  0.00  0.00    +0.000 NA
ATOM     30  C   UNL     1      -3.982  10.895  16.137  0.00  0.00    +0.000 A 
ATOM     31  N   UNL     1      -4.815  11.296  17.108  0.00  0.00    +0.000 NA
ATOM     32  C   UNL     1      -4.167  11.697  18.217  0.00  0.00    +0.000 A 
BRANCH  24  34
ATOM     33  C   UNL     1      -7.023  13.102  18.923  0.00  0.00    +0.000 C 
ATOM     34  C   UNL     1      -6.166  12.131  19.729  0.00  0.00    +0.000 C 
ATOM     35  C   UNL     1      -6.799  10.727  19.873  0.00  0.00    +0.000 C 
ATOM     36  O   UNL     1      -7.340  11.069  21.177  0.00  0.00    +0.000 OA
ATOM     37  C   UNL     1      -6.434  12.199  21.254  0.00  0.00    +0.000 C 
ENDBRANCH  24  34
ENDBRANCH  22  26
ENDBRANCH   1  22
TORSDOF 7
ENDMDL
MODEL 2
REMARK VINA RESULT:      -9.3      1.026      1.348
REMARK  Name = 
REMARK  8 active torsions:
REMARK  status: ('A' for Active; 'I' for Inactive)
REMARK    1  A    between atoms: C_1  and  C_2
REMARK    2  A    between atoms: C_2  and  N_3
REMARK    3  A    between atoms: C_5  and  C_6
REMARK    4  A    between atoms: C_6  and  C_8
REMARK    5  A    between atoms: C_12  and  N_13
REMARK    6  A    between atoms: C_14  and  C_16
REMARK    7  A    between atoms: C_20  and  O_21
REMARK    8  A    between atoms: O_21  and  C_22
REMARK                            x       y       z     vdW  Elec       q    Type
REMARK                         _______ _______ _______ _____ _____    ______ ____
ROOT
ATOM      1  C   UNL     1       0.016  10.671  20.227  0.00  0.00    +0.000 A 
ATOM      2  C   UNL     1      -0.336  10.463  21.552  0.00  0.00    +0.000 A 
ATOM      3  N   UNL     1       0.113   9.437  22.300  0.00  0.00    +0.000 NA
ATOM      4  C   UNL     1       0.928   8.548  21.675  0.00  0.00    +0.000 A 
ATOM      5  C   UNL     1       1.316   8.626  20.337  0.00  0.00    +0.000 A 
ATOM      6  C   UNL     1       0.843   9.722  19.604  0.00  0.00    +0.000 A 
ENDROOT
BRANCH   5   7
ATOM      7  N   UNL     1       2.147   7.672  19.694  0.00  0.00    +0.000 N 
ATOM      8  C   UNL     1       2.566   7.754  18.369  0.00  0.00    +0.000 C 
ATOM      9  O   UNL     1       2.293   8.656  17.585  0.00  0.00    +0.000 OA
ATOM     10  H   UNL     1       2.511   6.923  20.266  0.00  0.00    +0.000 HD
BRANCH   8  11
ATOM     11  C   UNL     1       3.442   6.667  17.869  0.00  0.00    +0.000 A 
ATOM     12  C   UNL     1       4.274   6.962  16.775  0.00  0.00    +0.000 A 
ATOM     13  C   UNL     1       5.069   5.972  16.212  0.00  0.00    +0.000 A 
ATOM     14  C   UNL     1       5.050   4.687  16.752  0.00  0.00    +0.000 A 
ATOM     15  C   UNL     1       4.240   4.385  17.854  0.00  0.00    +0.000 A 
ATOM     16  C   UNL     1       3.403   5.368  18.385  0.00  0.00    +0.000 A 
BRANCH  15  17
ATOM     17  O   UNL     1       4.293   3.085  18.256  0.00  0.00    +0.000 OA
BRANCH  17  18
ATOM     18  C   UNL     1       3.114   2.293  18.224  0.00  0.00    +0.000 C 
ATOM     19  F   UNL     1       2.267   2.520  19.251  0.00  0.00    +0.000 F 
ATOM     20  F   UNL     1       2.458   2.526  17.067  0.00  0.00    +0.000 F 
ATOM     21  F   UNL     1       3.467   0.990  18.258  0.00  0.00    +0.000 F 
ENDBRANCH  17  18
ENDBRANCH  15  17
ENDBRANCH   8  11
ENDBRANCH   5   7
BRANCH   1  22
ATOM     22  C   UNL     1      -0.520  11.833  19.476  0.00  0.00    +0.000 C 
ATOM     23  O   UNL     1       0.247  12.741  19.174  0.00  0.00    +0.000 OA
BRANCH  22  26
ATOM     24  N   UNL     1      -4.168  12.156  19.144  0.00  0.00    +0.000 N 
ATOM     25  C   UNL     1      -2.990  12.366  19.829  0.00  0.00    +0.000 A 
ATOM     26  C   UNL     1      -1.933  11.857  19.089  0.00  0.00    +0.000 A 
ATOM     27  C   UNL     1      -2.497  11.382  17.868  0.00  0.00    +0.000 A 
ATOM     28  C   UNL     1      -2.007  10.763  16.717  0.00  0.00    +0.000 A 
ATOM     29  N   UNL     1      -2.859  10.419  15.725  0.00  0.00    +0.000 NA
ATOM     30  C   UNL     1      -4.164  10.701  15.890  0.00  0.00    +0.000 A 
ATOM     31  N   UNL     1      -4.748  11.280  16.949  0.00  0.00    +0.000 NA
ATOM     32  C   UNL     1      -3.870  11.596  17.918  0.00  0.00    +0.000 A 
BRANCH  24  34
ATOM     33  C   UNL     1      -6.233  13.611  19.048  0.00  0.00    +0.000 C 
ATOM     34  C   UNL     1      -5.494  12.438  19.686  0.00  0.00    +0.000 C 
ATOM     35  C   UNL     1      -6.382  11.186  19.882  0.00  0.00    +0.000 C 
ATOM     36  O   UNL     1      -6.649  11.552  21.262  0.00  0.00    +0.000 OA
ATOM     37  C   UNL     1      -5.524  12.466  21.236  0.00  0.00    +0.000 C 
ENDBRANCH  24  34
ENDBRANCH  22  26
ENDBRANCH   1  22
TORSDOF 7
ENDMDL
MODEL 3
REMARK VINA RESULT:      -9.3      2.246      2.728
REMARK  Name = 
REMARK  8 active torsions:
REMARK  status: ('A' for Active; 'I' for Inactive)
REMARK    1  A    between atoms: C_1  and  C_2
REMARK    2  A    between atoms: C_2  and  N_3
REMARK    3  A    between atoms: C_5  and  C_6
REMARK    4  A    between atoms: C_6  and  C_8
REMARK    5  A    between atoms: C_12  and  N_13
REMARK    6  A    between atoms: C_14  and  C_16
REMARK    7  A    between atoms: C_20  and  O_21
REMARK    8  A    between atoms: O_21  and  C_22
REMARK                            x       y       z     vdW  Elec       q    Type
REMARK                         _______ _______ _______ _____ _____    ______ ____
ROOT
ATOM      1  C   UNL     1       0.141  10.916  20.477  0.00  0.00    +0.000 A 
ATOM      2  C   UNL     1       0.058  10.877  21.861  0.00  0.00    +0.000 A 
ATOM      3  N   UNL     1       0.566   9.887  22.620  0.00  0.00    +0.000 NA
ATOM      4  C   UNL     1       1.155   8.860  21.954  0.00  0.00    +0.000 A 
ATOM      5  C   UNL     1       1.259   8.765  20.565  0.00  0.00    +0.000 A 
ATOM      6  C   UNL     1       0.736   9.828  19.817  0.00  0.00    +0.000 A 
ENDROOT
BRANCH   5   7
ATOM      7  N   UNL     1       1.854   7.670  19.886  0.00  0.00    +0.000 N 
ATOM      8  C   UNL     1       2.429   7.743  18.622  0.00  0.00    +0.000 C 
ATOM      9  O   UNL     1       2.517   8.751  17.930  0.00  0.00    +0.000 OA
ATOM     10  H   UNL     1       1.921   6.799  20.394  0.00  0.00    +0.000 HD
BRANCH   8  11
ATOM     11  C   UNL     1       3.013   6.495  18.071  0.00  0.00    +0.000 A 
ATOM     12  C   UNL     1       2.195   5.353  18.056  0.00  0.00    +0.000 A 
ATOM     13  C   UNL     1       2.700   4.134  17.618  0.00  0.00    +0.000 A 
ATOM     14  C   UNL     1       4.020   4.058  17.176  0.00  0.00    +0.000 A 
ATOM     15  C   UNL     1       4.839   5.194  17.168  0.00  0.00    +0.000 A 
ATOM     16  C   UNL     1       4.346   6.405  17.657  0.00  0.00    +0.000 A 
BRANCH  15  17
ATOM     17  O   UNL     1       6.114   4.969  16.745  0.00  0.00    +0.000 OA
BRANCH  17  18
ATOM     18  C   UNL     1       7.188   5.064  17.671  0.00  0.00    +0.000 C 
ATOM     19  F   UNL     1       8.172   4.160  17.471  0.00  0.00    +0.000 F 
ATOM     20  F   UNL     1       7.722   6.302  17.600  0.00  0.00    +0.000 F 
ATOM     21  F   UNL     1       6.703   4.880  18.917  0.00  0.00    +0.000 F 
ENDBRANCH  17  18
ENDBRANCH  15  17
ENDBRANCH   8  11
ENDBRANCH   5   7
BRANCH   1  22
ATOM     22  C   UNL     1      -0.442  12.049  19.717  0.00  0.00    +0.000 C 
ATOM     23  O   UNL     1       0.308  12.932  19.314  0.00  0.00    +0.000 OA
BRANCH  22  26
ATOM     24  N   UNL     1      -4.107  12.337  19.683  0.00  0.00    +0.000 N 
ATOM     25  C   UNL     1      -2.882  12.526  20.287  0.00  0.00    +0.000 A 
ATOM     26  C   UNL     1      -1.880  12.074  19.441  0.00  0.00    +0.000 A 
ATOM     27  C   UNL     1      -2.531  11.660  18.241  0.00  0.00    +0.000 A 
ATOM     28  C   UNL     1      -2.126  11.113  17.023  0.00  0.00    +0.000 A 
ATOM     29  N   UNL     1      -3.048  10.813  16.081  0.00  0.00    +0.000 NA
ATOM     30  C   UNL     1      -4.339  11.066  16.361  0.00  0.00    +0.000 A 
ATOM     31  N   UNL     1      -4.845  11.576  17.492  0.00  0.00    +0.000 NA
ATOM     32  C   UNL     1      -3.899  11.851  18.408  0.00  0.00    +0.000 A 
BRANCH  24  34
ATOM     33  C   UNL     1      -6.407  11.437  20.225  0.00  0.00    +0.000 C 
ATOM     34  C   UNL     1      -5.390  12.570  20.340  0.00  0.00    +0.000 C 
ATOM     35  C   UNL     1      -5.278  13.151  21.769  0.00  0.00    +0.000 C 
ATOM     36  O   UNL     1      -6.191  14.229  21.437  0.00  0.00    +0.000 OA
ATOM     37  C   UNL     1      -5.990  13.965  20.026  0.00  0.00    +0.000 C 
ENDBRANCH  24  34
ENDBRANCH  22  26
ENDBRANCH   1  22
TORSDOF 7
ENDMDL
MODEL 4
REMARK VINA RESULT:      -9.2      2.345      2.797
REMARK  Name = 
REMARK  8 active torsions:
REMARK  status: ('A' for Active; 'I' for Inactive)
REMARK    1  A    between atoms: C_1  and  C_2
REMARK    2  A    between atoms: C_2  and  N_3
REMARK    3  A    between atoms: C_5  and  C_6
REMARK    4  A    between atoms: C_6  and  C_8
REMARK    5  A    between atoms: C_12  and  N_13
REMARK    6  A    between atoms: C_14  and  C_16
REMARK    7  A    between atoms: C_20  and  O_21
REMARK    8  A    between atoms: O_21  and  C_22
REMARK                            x       y       z     vdW  Elec       q    Type
REMARK                         _______ _______ _______ _____ _____    ______ ____
ROOT
ATOM      1  C   UNL     1       0.066  10.848  20.197  0.00  0.00    +0.000 A 
ATOM      2  C   UNL     1      -0.148  10.707  21.560  0.00  0.00    +0.000 A 
ATOM      3  N   UNL     1       0.358   9.704  22.303  0.00  0.00    +0.000 NA
ATOM      4  C   UNL     1       1.086   8.770  21.638  0.00  0.00    +0.000 A 
ATOM      5  C   UNL     1       1.332   8.780  20.264  0.00  0.00    +0.000 A 
ATOM      6  C   UNL     1       0.804   9.853  19.535  0.00  0.00    +0.000 A 
ENDROOT
BRANCH   5   7
ATOM      7  N   UNL     1       2.072   7.780  19.582  0.00  0.00    +0.000 N 
ATOM      8  C   UNL     1       2.081   6.431  19.926  0.00  0.00    +0.000 C 
ATOM      9  O   UNL     1       1.447   5.920  20.842  0.00  0.00    +0.000 OA
ATOM     10  H   UNL     1       2.568   8.066  18.750  0.00  0.00    +0.000 HD
BRANCH   8  11
ATOM     11  C   UNL     1       2.908   5.526  19.091  0.00  0.00    +0.000 A 
ATOM     12  C   UNL     1       2.254   4.802  18.080  0.00  0.00    +0.000 A 
ATOM     13  C   UNL     1       2.956   3.885  17.307  0.00  0.00    +0.000 A 
ATOM     14  C   UNL     1       4.320   3.703  17.529  0.00  0.00    +0.000 A 
ATOM     15  C   UNL     1       4.987   4.432  18.521  0.00  0.00    +0.000 A 
ATOM     16  C   UNL     1       4.270   5.314  19.331  0.00  0.00    +0.000 A 
BRANCH  15  17
ATOM     17  O   UNL     1       6.309   4.130  18.653  0.00  0.00    +0.000 OA
BRANCH  17  18
ATOM     18  C   UNL     1       7.269   4.826  17.871  0.00  0.00    +0.000 C 
ATOM     19  F   UNL     1       6.987   6.134  17.684  0.00  0.00    +0.000 F 
ATOM     20  F   UNL     1       8.476   4.730  18.468  0.00  0.00    +0.000 F 
ATOM     21  F   UNL     1       7.347   4.241  16.657  0.00  0.00    +0.000 F 
ENDBRANCH  17  18
ENDBRANCH  15  17
ENDBRANCH   8  11
ENDBRANCH   5   7
BRANCH   1  22
ATOM     22  C   UNL     1      -0.525  11.988  19.453  0.00  0.00    +0.000 C 
ATOM     23  O   UNL     1       0.208  12.913  19.118  0.00  0.00    +0.000 OA
BRANCH  22  26
ATOM     24  N   UNL     1      -4.191  12.190  19.248  0.00  0.00    +0.000 N 
ATOM     25  C   UNL     1      -2.999  12.425  19.900  0.00  0.00    +0.000 A 
ATOM     26  C   UNL     1      -1.950  11.972  19.113  0.00  0.00    +0.000 A 
ATOM     27  C   UNL     1      -2.537  11.507  17.899  0.00  0.00    +0.000 A 
ATOM     28  C   UNL     1      -2.066  10.933  16.718  0.00  0.00    +0.000 A 
ATOM     29  N   UNL     1      -2.937  10.583  15.746  0.00  0.00    +0.000 NA
ATOM     30  C   UNL     1      -4.245  10.814  15.960  0.00  0.00    +0.000 A 
ATOM     31  N   UNL     1      -4.813  11.347  17.052  0.00  0.00    +0.000 NA
ATOM     32  C   UNL     1      -3.915  11.671  17.999  0.00  0.00    +0.000 A 
BRANCH  24  34
ATOM     33  C   UNL     1      -6.467  11.228  19.781  0.00  0.00    +0.000 C 
ATOM     34  C   UNL     1      -5.507  12.413  19.839  0.00  0.00    +0.000 C 
ATOM     35  C   UNL     1      -5.475  13.110  21.220  0.00  0.00    +0.000 C 
ATOM     36  O   UNL     1      -6.423  14.115  20.771  0.00  0.00    +0.000 OA
ATOM     37  C   UNL     1      -6.156  13.749  19.394  0.00  0.00    +0.000 C 
ENDBRANCH  24  34
ENDBRANCH  22  26
ENDBRANCH   1  22
TORSDOF 7
ENDMDL
MODEL 5
REMARK VINA RESULT:      -9.2      1.050      1.353
REMARK  Name = 
REMARK  8 active torsions:
REMARK  status: ('A' for Active; 'I' for Inactive)
REMARK    1  A    between atoms: C_1  and  C_2
REMARK    2  A    between atoms: C_2  and  N_3
REMARK    3  A    between atoms: C_5  and  C_6
REMARK    4  A    between atoms: C_6  and  C_8
REMARK    5  A    between atoms: C_12  and  N_13
REMARK    6  A    between atoms: C_14  and  C_16
REMARK    7  A    between atoms: C_20  and  O_21
REMARK    8  A    between atoms: O_21  and  C_22
REMARK                            x       y       z     vdW  Elec       q    Type
REMARK                         _______ _______ _______ _____ _____    ______ ____
ROOT
ATOM      1  C   UNL     1      -0.078  11.041  20.623  0.00  0.00    +0.000 A 
ATOM      2  C   UNL     1      -0.231  10.936  21.997  0.00  0.00    +0.000 A 
ATOM      3  N   UNL     1       0.284   9.936  22.740  0.00  0.00    +0.000 NA
ATOM      4  C   UNL     1       0.955   8.968  22.063  0.00  0.00    +0.000 A 
ATOM      5  C   UNL     1       1.136   8.941  20.680  0.00  0.00    +0.000 A 
ATOM      6  C   UNL     1       0.602  10.012  19.951  0.00  0.00    +0.000 A 
ENDROOT
BRANCH   5   7
ATOM      7  N   UNL     1       1.817   7.907  19.988  0.00  0.00    +0.000 N 
ATOM      8  C   UNL     1       2.229   7.982  18.661  0.00  0.00    +0.000 C 
ATOM      9  O   UNL     1       2.078   8.943  17.915  0.00  0.00    +0.000 OA
ATOM     10  H   UNL     1       2.078   7.092  20.526  0.00  0.00    +0.000 HD
BRANCH   8  11
ATOM     11  C   UNL     1       2.938   6.803  18.105  0.00  0.00    +0.000 A 
ATOM     12  C   UNL     1       4.141   7.039  17.419  0.00  0.00    +0.000 A 
ATOM     13  C   UNL     1       4.822   5.990  16.814  0.00  0.00    +0.000 A 
ATOM     14  C   UNL     1       4.311   4.696  16.909  0.00  0.00    +0.000 A 
ATOM     15  C   UNL     1       3.123   4.445  17.607  0.00  0.00    +0.000 A 
ATOM     16  C   UNL     1       2.414   5.508  18.169  0.00  0.00    +0.000 A 
BRANCH  15  17
ATOM     17  O   UNL     1       2.721   3.144  17.591  0.00  0.00    +0.000 OA
BRANCH  17  18
ATOM     18  C   UNL     1       2.888   2.344  18.754  0.00  0.00    +0.000 C 
ATOM     19  F   UNL     1       3.789   2.831  19.635  0.00  0.00    +0.000 F 
ATOM     20  F   UNL     1       1.698   2.224  19.379  0.00  0.00    +0.000 F 
ATOM     21  F   UNL     1       3.298   1.114  18.379  0.00  0.00    +0.000 F 
ENDBRANCH  17  18
ENDBRANCH  15  17
ENDBRANCH   8  11
ENDBRANCH   5   7
BRANCH   1  22
ATOM     22  C   UNL     1      -0.673  12.180  19.882  0.00  0.00    +0.000 C 
ATOM     23  O   UNL     1       0.039  13.141  19.612  0.00  0.00    +0.000 OA
BRANCH  22  26
ATOM     24  N   UNL     1      -4.328  12.269  19.482  0.00  0.00    +0.000 N 
ATOM     25  C   UNL     1      -3.179  12.539  20.197  0.00  0.00    +0.000 A 
ATOM     26  C   UNL     1      -2.077  12.120  19.466  0.00  0.00    +0.000 A 
ATOM     27  C   UNL     1      -2.584  11.641  18.222  0.00  0.00    +0.000 A 
ATOM     28  C   UNL     1      -2.033  11.085  17.067  0.00  0.00    +0.000 A 
ATOM     29  N   UNL     1      -2.841  10.711  16.050  0.00  0.00    +0.000 NA
ATOM     30  C   UNL     1      -4.165  10.901  16.194  0.00  0.00    +0.000 A 
ATOM     31  N   UNL     1      -4.806  11.413  17.255  0.00  0.00    +0.000 NA
ATOM     32  C   UNL     1      -3.970  11.762  18.249  0.00  0.00    +0.000 A 
BRANCH  24  34
ATOM     33  C   UNL     1      -6.585  11.223  19.931  0.00  0.00    +0.000 C 
ATOM     34  C   UNL     1      -5.680  12.449  20.003  0.00  0.00    +0.000 C 
ATOM     35  C   UNL     1      -5.745  13.181  21.365  0.00  0.00    +0.000 C 
ATOM     36  O   UNL     1      -6.711  14.132  20.844  0.00  0.00    +0.000 OA
ATOM     37  C   UNL     1      -6.361  13.744  19.491  0.00  0.00    +0.000 C 
ENDBRANCH  24  34
ENDBRANCH  22  26
ENDBRANCH   1  22
TORSDOF 7
ENDMDL
MODEL 6
REMARK VINA RESULT:      -8.9      1.873      2.411
REMARK  Name = 
REMARK  8 active torsions:
REMARK  status: ('A' for Active; 'I' for Inactive)
REMARK    1  A    between atoms: C_1  and  C_2
REMARK    2  A    between atoms: C_2  and  N_3
REMARK    3  A    between atoms: C_5  and  C_6
REMARK    4  A    between atoms: C_6  and  C_8
REMARK    5  A    between atoms: C_12  and  N_13
REMARK    6  A    between atoms: C_14  and  C_16
REMARK    7  A    between atoms: C_20  and  O_21
REMARK    8  A    between atoms: O_21  and  C_22
REMARK                            x       y       z     vdW  Elec       q    Type
REMARK                         _______ _______ _______ _____ _____    ______ ____
ROOT
ATOM      1  C   UNL     1       0.216  10.688  20.293  0.00  0.00    +0.000 A 
ATOM      2  C   UNL     1      -0.116  10.795  21.635  0.00  0.00    +0.000 A 
ATOM      3  N   UNL     1       0.296   9.933  22.585  0.00  0.00    +0.000 NA
ATOM      4  C   UNL     1       1.050   8.886  22.161  0.00  0.00    +0.000 A 
ATOM      5  C   UNL     1       1.411   8.648  20.835  0.00  0.00    +0.000 A 
ATOM      6  C   UNL     1       0.978   9.581  19.884  0.00  0.00    +0.000 A 
ENDROOT
BRANCH   5   7
ATOM      7  N   UNL     1       2.177   7.532  20.407  0.00  0.00    +0.000 N 
ATOM      8  C   UNL     1       1.754   6.209  20.482  0.00  0.00    +0.000 C 
ATOM      9  O   UNL     1       0.671   5.824  20.906  0.00  0.00    +0.000 OA
ATOM     10  H   UNL     1       3.059   7.729  19.956  0.00  0.00    +0.000 HD
BRANCH   8  11
ATOM     11  C   UNL     1       2.687   5.171  19.978  0.00  0.00    +0.000 A 
ATOM     12  C   UNL     1       2.579   3.884  20.530  0.00  0.00    +0.000 A 
ATOM     13  C   UNL     1       3.466   2.882  20.154  0.00  0.00    +0.000 A 
ATOM     14  C   UNL     1       4.453   3.160  19.210  0.00  0.00    +0.000 A 
ATOM     15  C   UNL     1       4.560   4.434  18.638  0.00  0.00    +0.000 A 
ATOM     16  C   UNL     1       3.701   5.453  19.056  0.00  0.00    +0.000 A 
BRANCH  15  17
ATOM     17  O   UNL     1       5.589   4.576  17.758  0.00  0.00    +0.000 OA
BRANCH  17  18
ATOM     18  C   UNL     1       5.332   4.512  16.362  0.00  0.00    +0.000 C 
ATOM     19  F   UNL     1       6.271   3.845  15.656  0.00  0.00    +0.000 F 
ATOM     20  F   UNL     1       4.139   3.913  16.161  0.00  0.00    +0.000 F 
ATOM     21  F   UNL     1       5.264   5.770  15.876  0.00  0.00    +0.000 F 
ENDBRANCH  17  18
ENDBRANCH  15  17
ENDBRANCH   8  11
ENDBRANCH   5   7
BRANCH   1  22
ATOM     22  C   UNL     1      -0.277  11.685  19.311  0.00  0.00    +0.000 C 
ATOM     23  O   UNL     1       0.542  12.388  18.727  0.00  0.00    +0.000 OA
BRANCH  22  26
ATOM     24  N   UNL     1      -3.914  12.225  19.273  0.00  0.00    +0.000 N 
ATOM     25  C   UNL     1      -2.673  12.374  19.855  0.00  0.00    +0.000 A 
ATOM     26  C   UNL     1      -1.713  11.789  19.041  0.00  0.00    +0.000 A 
ATOM     27  C   UNL     1      -2.404  11.330  17.881  0.00  0.00    +0.000 A 
ATOM     28  C   UNL     1      -2.050  10.663  16.707  0.00  0.00    +0.000 A 
ATOM     29  N   UNL     1      -3.000  10.355  15.796  0.00  0.00    +0.000 NA
ATOM     30  C   UNL     1      -4.268  10.719  16.062  0.00  0.00    +0.000 A 
ATOM     31  N   UNL     1      -4.726  11.350  17.153  0.00  0.00    +0.000 NA
ATOM     32  C   UNL     1      -3.753  11.628  18.039  0.00  0.00    +0.000 A 
BRANCH  24  34
ATOM     33  C   UNL     1      -5.876  13.819  19.333  0.00  0.00    +0.000 C 
ATOM     34  C   UNL     1      -5.171  12.597  19.916  0.00  0.00    +0.000 C 
ATOM     35  C   UNL     1      -6.124  11.409  20.185  0.00  0.00    +0.000 C 
ATOM     36  O   UNL     1      -6.257  11.790  21.580  0.00  0.00    +0.000 OA
ATOM     37  C   UNL     1      -5.078  12.625  21.463  0.00  0.00    +0.000 C 
ENDBRANCH  24  34
ENDBRANCH  22  26
ENDBRANCH   1  22
TORSDOF 7
ENDMDL
MODEL 7
REMARK VINA RESULT:      -8.9      3.814      4.888
REMARK  Name = 
REMARK  8 active torsions:
REMARK  status: ('A' for Active; 'I' for Inactive)
REMARK    1  A    between atoms: C_1  and  C_2
REMARK    2  A    between atoms: C_2  and  N_3
REMARK    3  A    between atoms: C_5  and  C_6
REMARK    4  A    between atoms: C_6  and  C_8
REMARK    5  A    between atoms: C_12  and  N_13
REMARK    6  A    between atoms: C_14  and  C_16
REMARK    7  A    between atoms: C_20  and  O_21
REMARK    8  A    between atoms: O_21  and  C_22
REMARK                            x       y       z     vdW  Elec       q    Type
REMARK                         _______ _______ _______ _____ _____    ______ ____
ROOT
ATOM      1  C   UNL     1      -0.103  10.591  20.350  0.00  0.00    +0.000 A 
ATOM      2  C   UNL     1      -0.126  10.574  21.736  0.00  0.00    +0.000 A 
ATOM      3  N   UNL     1       0.588   9.719  22.493  0.00  0.00    +0.000 NA
ATOM      4  C   UNL     1       1.338   8.805  21.823  0.00  0.00    +0.000 A 
ATOM      5  C   UNL     1       1.408   8.695  20.434  0.00  0.00    +0.000 A 
ATOM      6  C   UNL     1       0.665   9.619  19.687  0.00  0.00    +0.000 A 
ENDROOT
BRANCH   5   7
ATOM      7  N   UNL     1       2.176   7.716  19.752  0.00  0.00    +0.000 N 
ATOM      8  C   UNL     1       2.085   6.345  19.974  0.00  0.00    +0.000 C 
ATOM      9  O   UNL     1       1.328   5.795  20.766  0.00  0.00    +0.000 OA
ATOM     10  H   UNL     1       2.777   8.042  19.008  0.00  0.00    +0.000 HD
BRANCH   8  11
ATOM     11  C   UNL     1       2.961   5.469  19.159  0.00  0.00    +0.000 A 
ATOM     12  C   UNL     1       2.351   4.704  18.150  0.00  0.00    +0.000 A 
ATOM     13  C   UNL     1       3.101   3.811  17.396  0.00  0.00    +0.000 A 
ATOM     14  C   UNL     1       4.469   3.692  17.635  0.00  0.00    +0.000 A 
ATOM     15  C   UNL     1       5.093   4.462  18.624  0.00  0.00    +0.000 A 
ATOM     16  C   UNL     1       4.328   5.320  19.416  0.00  0.00    +0.000 A 
BRANCH  15  17
ATOM     17  O   UNL     1       6.425   4.220  18.774  0.00  0.00    +0.000 OA
BRANCH  17  18
ATOM     18  C   UNL     1       7.366   5.009  18.060  0.00  0.00    +0.000 C 
ATOM     19  F   UNL     1       6.810   5.968  17.287  0.00  0.00    +0.000 F 
ATOM     20  F   UNL     1       8.203   5.600  18.939  0.00  0.00    +0.000 F 
ATOM     21  F   UNL     1       8.091   4.200  17.258  0.00  0.00    +0.000 F 
ENDBRANCH  17  18
ENDBRANCH  15  17
ENDBRANCH   8  11
ENDBRANCH   5   7
BRANCH   1  22
ATOM     22  C   UNL     1      -0.918  11.573  19.592  0.00  0.00    +0.000 C 
ATOM     23  O   UNL     1      -1.974  11.197  19.094  0.00  0.00    +0.000 OA
BRANCH  22  26
ATOM     24  N   UNL     1      -0.419  15.215  19.537  0.00  0.00    +0.000 N 
ATOM     25  C   UNL     1      -1.168  14.099  19.843  0.00  0.00    +0.000 A 
ATOM     26  C   UNL     1      -0.464  12.960  19.481  0.00  0.00    +0.000 A 
ATOM     27  C   UNL     1       0.800  13.414  18.998  0.00  0.00    +0.000 A 
ATOM     28  C   UNL     1       1.947  12.809  18.482  0.00  0.00    +0.000 A 
ATOM     29  N   UNL     1       2.991  13.573  18.089  0.00  0.00    +0.000 NA
ATOM     30  C   UNL     1       2.880  14.907  18.223  0.00  0.00    +0.000 A 
ATOM     31  N   UNL     1       1.831  15.597  18.693  0.00  0.00    +0.000 NA
ATOM     32  C   UNL     1       0.810  14.804  19.062  0.00  0.00    +0.000 A 
BRANCH  24  34
ATOM     33  C   UNL     1      -0.988  17.373  18.348  0.00  0.00    +0.000 C 
ATOM     34  C   UNL     1      -0.905  16.587  19.654  0.00  0.00    +0.000 C 
ATOM     35  C   UNL     1      -2.159  16.744  20.546  0.00  0.00    +0.000 C 
ATOM     36  O   UNL     1      -1.514  17.785  21.326  0.00  0.00    +0.000 OA
ATOM     37  C   UNL     1      -0.225  17.377  20.801  0.00  0.00    +0.000 C 
ENDBRANCH  24  34
ENDBRANCH  22  26
ENDBRANCH   1  22
TORSDOF 7
ENDMDL
MODEL 8
REMARK VINA RESULT:      -8.9      2.508      3.504
REMARK  Name = 
REMARK  8 active torsions:
REMARK  status: ('A' for Active; 'I' for Inactive)
REMARK    1  A    between atoms: C_1  and  C_2
REMARK    2  A    between atoms: C_2  and  N_3
REMARK    3  A    between atoms: C_5  and  C_6
REMARK    4  A    between atoms: C_6  and  C_8
REMARK    5  A    between atoms: C_12  and  N_13
REMARK    6  A    between atoms: C_14  and  C_16
REMARK    7  A    between atoms: C_20  and  O_21
REMARK    8  A    between atoms: O_21  and  C_22
REMARK                            x       y       z     vdW  Elec       q    Type
REMARK                         _______ _______ _______ _____ _____    ______ ____
ROOT
ATOM      1  C   UNL     1       0.298  10.870  20.505  0.00  0.00    +0.000 A 
ATOM      2  C   UNL     1       0.122  10.746  21.875  0.00  0.00    +0.000 A 
ATOM      3  N   UNL     1       0.644   9.749  22.615  0.00  0.00    +0.000 NA
ATOM      4  C   UNL     1       1.347   8.803  21.940  0.00  0.00    +0.000 A 
ATOM      5  C   UNL     1       1.553   8.796  20.560  0.00  0.00    +0.000 A 
ATOM      6  C   UNL     1       1.011   9.864  19.833  0.00  0.00    +0.000 A 
ENDROOT
BRANCH   5   7
ATOM      7  N   UNL     1       2.268   7.784  19.868  0.00  0.00    +0.000 N 
ATOM      8  C   UNL     1       2.020   6.420  19.987  0.00  0.00    +0.000 C 
ATOM      9  O   UNL     1       1.151   5.906  20.682  0.00  0.00    +0.000 OA
ATOM     10  H   UNL     1       2.956   8.089  19.195  0.00  0.00    +0.000 HD
BRANCH   8  11
ATOM     11  C   UNL     1       2.864   5.506  19.178  0.00  0.00    +0.000 A 
ATOM     12  C   UNL     1       2.223   4.746  18.185  0.00  0.00    +0.000 A 
ATOM     13  C   UNL     1       2.940   3.820  17.438  0.00  0.00    +0.000 A 
ATOM     14  C   UNL     1       4.306   3.664  17.668  0.00  0.00    +0.000 A 
ATOM     15  C   UNL     1       4.960   4.429  18.641  0.00  0.00    +0.000 A 
ATOM     16  C   UNL     1       4.228   5.321  19.427  0.00  0.00    +0.000 A 
BRANCH  15  17
ATOM     17  O   UNL     1       6.286   4.150  18.784  0.00  0.00    +0.000 OA
BRANCH  17  18
ATOM     18  C   UNL     1       7.250   4.984  18.156  0.00  0.00    +0.000 C 
ATOM     19  F   UNL     1       6.776   5.677  17.097  0.00  0.00    +0.000 F 
ATOM     20  F   UNL     1       7.729   5.862  19.063  0.00  0.00    +0.000 F 
ATOM     21  F   UNL     1       8.273   4.216  17.725  0.00  0.00    +0.000 F 
ENDBRANCH  17  18
ENDBRANCH  15  17
ENDBRANCH   8  11
ENDBRANCH   5   7
BRANCH   1  22
ATOM     22  C   UNL     1      -0.308  12.005  19.766  0.00  0.00    +0.000 C 
ATOM     23  O   UNL     1       0.435  12.849  19.275  0.00  0.00    +0.000 OA
BRANCH  22  26
ATOM     24  N   UNL     1      -3.847  11.869  18.775  0.00  0.00    +0.000 N 
ATOM     25  C   UNL     1      -2.520  11.544  18.582  0.00  0.00    +0.000 A 
ATOM     26  C   UNL     1      -1.763  12.078  19.614  0.00  0.00    +0.000 A 
ATOM     27  C   UNL     1      -2.689  12.693  20.508  0.00  0.00    +0.000 A 
ATOM     28  C   UNL     1      -2.599  13.401  21.707  0.00  0.00    +0.000 A 
ATOM     29  N   UNL     1      -3.721  13.875  22.294  0.00  0.00    +0.000 NA
ATOM     30  C   UNL     1      -4.898  13.634  21.688  0.00  0.00    +0.000 A 
ATOM     31  N   UNL     1      -5.106  12.979  20.537  0.00  0.00    +0.000 NA
ATOM     32  C   UNL     1      -3.966  12.533  19.979  0.00  0.00    +0.000 A 
BRANCH  24  34
ATOM     33  C   UNL     1      -4.446  11.114  16.438  0.00  0.00    +0.000 C 
ATOM     34  C   UNL     1      -4.908  11.591  17.812  0.00  0.00    +0.000 C 
ATOM     35  C   UNL     1      -6.086  10.766  18.384  0.00  0.00    +0.000 C 
ATOM     36  O   UNL     1      -7.045  11.746  17.906  0.00  0.00    +0.000 OA
ATOM     37  C   UNL     1      -5.976  12.712  17.744  0.00  0.00    +0.000 C 
ENDBRANCH  24  34
ENDBRANCH  22  26
ENDBRANCH   1  22
TORSDOF 7
ENDMDL
MODEL 9
REMARK VINA RESULT:      -8.9      1.545      2.736
REMARK  Name = 
REMARK  8 active torsions:
REMARK  status: ('A' for Active; 'I' for Inactive)
REMARK    1  A    between atoms: C_1  and  C_2
REMARK    2  A    between atoms: C_2  and  N_3
REMARK    3  A    between atoms: C_5  and  C_6
REMARK    4  A    between atoms: C_6  and  C_8
REMARK    5  A    between atoms: C_12  and  N_13
REMARK    6  A    between atoms: C_14  and  C_16
REMARK    7  A    between atoms: C_20  and  O_21
REMARK    8  A    between atoms: O_21  and  C_22
REMARK                            x       y       z     vdW  Elec       q    Type
REMARK                         _______ _______ _______ _____ _____    ______ ____
ROOT
ATOM      1  C   UNL     1      -0.232  11.160  20.763  0.00  0.00    +0.000 A 
ATOM      2  C   UNL     1      -0.225  11.144  22.149  0.00  0.00    +0.000 A 
ATOM      3  N   UNL     1       0.380  10.197  22.891  0.00  0.00    +0.000 NA
ATOM      4  C   UNL     1       0.979   9.188  22.205  0.00  0.00    +0.000 A 
ATOM      5  C   UNL     1       1.000   9.071  20.815  0.00  0.00    +0.000 A 
ATOM      6  C   UNL     1       0.377  10.091  20.085  0.00  0.00    +0.000 A 
ENDROOT
BRANCH   5   7
ATOM      7  N   UNL     1       1.608   7.995  20.118  0.00  0.00    +0.000 N 
ATOM      8  C   UNL     1       2.144   8.085  18.837  0.00  0.00    +0.000 C 
ATOM      9  O   UNL     1       2.182   9.096  18.145  0.00  0.00    +0.000 OA
ATOM     10  H   UNL     1       1.715   7.126  20.622  0.00  0.00    +0.000 HD
BRANCH   8  11
ATOM     11  C   UNL     1       2.749   6.856  18.268  0.00  0.00    +0.000 A 
ATOM     12  C   UNL     1       3.967   6.994  17.583  0.00  0.00    +0.000 A 
ATOM     13  C   UNL     1       4.554   5.896  16.966  0.00  0.00    +0.000 A 
ATOM     14  C   UNL     1       3.934   4.651  17.049  0.00  0.00    +0.000 A 
ATOM     15  C   UNL     1       2.729   4.496  17.746  0.00  0.00    +0.000 A 
ATOM     16  C   UNL     1       2.115   5.610  18.320  0.00  0.00    +0.000 A 
BRANCH  15  17
ATOM     17  O   UNL     1       2.217   3.234  17.717  0.00  0.00    +0.000 OA
BRANCH  17  18
ATOM     18  C   UNL     1       2.658   2.277  18.671  0.00  0.00    +0.000 C 
ATOM     19  F   UNL     1       3.421   2.792  19.660  0.00  0.00    +0.000 F 
ATOM     20  F   UNL     1       1.581   1.682  19.227  0.00  0.00    +0.000 F 
ATOM     21  F   UNL     1       3.385   1.334  18.035  0.00  0.00    +0.000 F 
ENDBRANCH  17  18
ENDBRANCH  15  17
ENDBRANCH   8  11
ENDBRANCH   5   7
BRANCH   1  22
ATOM     22  C   UNL     1      -0.920  12.246  20.022  0.00  0.00    +0.000 C 
ATOM     23  O   UNL     1      -0.241  13.033  19.370  0.00  0.00    +0.000 OA
BRANCH  22  26
ATOM     24  N   UNL     1      -4.556  12.215  19.476  0.00  0.00    +0.000 N 
ATOM     25  C   UNL     1      -3.269  11.904  19.089  0.00  0.00    +0.000 A 
ATOM     26  C   UNL     1      -2.381  12.339  20.062  0.00  0.00    +0.000 A 
ATOM     27  C   UNL     1      -3.179  12.873  21.117  0.00  0.00    +0.000 A 
ATOM     28  C   UNL     1      -2.929  13.468  22.354  0.00  0.00    +0.000 A 
ATOM     29  N   UNL     1      -3.962  13.893  23.117  0.00  0.00    +0.000 NA
ATOM     30  C   UNL     1      -5.208  13.712  22.645  0.00  0.00    +0.000 A 
ATOM     31  N   UNL     1      -5.568  13.165  21.474  0.00  0.00    +0.000 NA
ATOM     32  C   UNL     1      -4.514  12.767  20.740  0.00  0.00    +0.000 A 
BRANCH  24  34
ATOM     33  C   UNL     1      -6.675  10.905  19.051  0.00  0.00    +0.000 C 
ATOM     34  C   UNL     1      -5.733  12.030  18.633  0.00  0.00    +0.000 C 
ATOM     35  C   UNL     1      -6.468  13.342  18.268  0.00  0.00    +0.000 C 
ATOM     36  O   UNL     1      -6.428  13.009  16.855  0.00  0.00    +0.000 OA
ATOM     37  C   UNL     1      -5.401  12.020  17.118  0.00  0.00    +0.000 C 
ENDBRANCH  24  34
ENDBRANCH  22  26
ENDBRANCH   1  22
TORSDOF 7
ENDMDL
