MODEL 1
REMARK VINA RESULT:      -8.5      0.000      0.000
REMARK  Name = 
REMARK  6 active torsions:
REMARK  status: ('A' for Active; 'I' for Inactive)
REMARK    1  A    between atoms: C_1  and  O_2
REMARK    2  A    between atoms: O_2  and  C_3
REMARK    3  A    between atoms: C_8  and  N_9
REMARK    4  A    between atoms: N_12  and  C_13
REMARK    5  A    between atoms: N_21  and  C_22
REMARK    6  A    between atoms: C_26  and  C_27
REMARK                            x       y       z     vdW  Elec       q    Type
REMARK                         _______ _______ _______ _____ _____    ______ ____
ROOT
ATOM      1  C   UNL     1       0.819  10.260  19.741  0.00  0.00    +0.000 A 
ATOM      2  N   UNL     1       0.709  11.265  18.833  0.00  0.00    +0.000 NA
ATOM      3  C   UNL     1       0.031  12.378  19.157  0.00  0.00    +0.000 A 
ATOM      4  N   UNL     1      -0.568  12.662  20.314  0.00  0.00    +0.000 NA
ATOM      5  C   UNL     1      -0.417  11.680  21.226  0.00  0.00    +0.000 A 
ATOM      6  C   UNL     1       0.267  10.489  21.015  0.00  0.00    +0.000 A 
ATOM      7  C   UNL     1       0.206   9.837  22.259  0.00  0.00    +0.000 A 
ATOM      8  N   UNL     1      -0.469  10.517  23.185  0.00  0.00    +0.000 NA
ATOM      9  N   UNL     1      -0.896  11.640  22.535  0.00  0.00    +0.000 N 
ENDROOT
BRANCH   9  10
ATOM     10  C   UNL     1      -1.743  12.568  23.212  0.00  0.00    +0.000 A 
ATOM     11  C   UNL     1      -1.228  13.816  23.596  0.00  0.00    +0.000 A 
ATOM     12  C   UNL     1      -2.030  14.728  24.286  0.00  0.00    +0.000 A 
ATOM     13  C   UNL     1      -3.341  14.398  24.616  0.00  0.00    +0.000 A 
ATOM     14  C   UNL     1      -3.869  13.157  24.250  0.00  0.00    +0.000 A 
ATOM     15  C   UNL     1      -5.260  12.756  24.640  0.00  0.00    +0.000 C 
ATOM     16  C   UNL     1      -3.069  12.251  23.537  0.00  0.00    +0.000 A 
ENDBRANCH   9  10
BRANCH   1  20
ATOM     17  N   UNL     1       2.784   6.729  18.546  0.00  0.00    +0.000 N 
ATOM     18  C   UNL     1       2.930   7.958  17.748  0.00  0.00    +0.000 C 
ATOM     19  C   UNL     1       1.660   8.821  17.895  0.00  0.00    +0.000 C 
ATOM     20  N   UNL     1       1.396   9.088  19.309  0.00  0.00    +0.000 N 
ATOM     21  C   UNL     1       1.343   7.907  20.193  0.00  0.00    +0.000 C 
ATOM     22  C   UNL     1       2.577   6.993  19.983  0.00  0.00    +0.000 C 
BRANCH  17  28
ATOM     23  C   UNL     1       4.534   5.105  17.912  0.00  0.00    +0.000 A 
ATOM     24  C   UNL     1       4.864   3.786  17.550  0.00  0.00    +0.000 A 
ATOM     25  C   UNL     1       3.872   2.850  17.270  0.00  0.00    +0.000 A 
ATOM     26  C   UNL     1       2.542   3.223  17.345  0.00  0.00    +0.000 A 
ATOM     27  C   UNL     1       2.207   4.523  17.733  0.00  0.00    +0.000 A 
ATOM     28  C   UNL     1       3.180   5.493  18.055  0.00  0.00    +0.000 A 
BRANCH  23  30
ATOM     29  C   UNL     1       6.502   5.492  19.158  0.00  0.00    +0.000 C 
ATOM     30  O   UNL     1       5.524   6.003  18.254  0.00  0.00    +0.000 OA
ENDBRANCH  23  30
ENDBRANCH  17  28
ENDBRANCH   1  20
TORSDOF 4
ENDMDL
MODEL 2
REMARK VINA RESULT:      -8.4      0.989      1.611
REMARK  Name = 
REMARK  6 active torsions:
REMARK  status: ('A' for Active; 'I' for Inactive)
REMARK    1  A    between atoms: C_1  and  O_2
REMARK    2  A    between atoms: O_2  and  C_3
REMARK    3  A    between atoms: C_8  and  N_9
REMARK    4  A    between atoms: N_12  and  C_13
REMARK    5  A    between atoms: N_21  and  C_22
REMARK    6  A    between atoms: C_26  and  C_27
REMARK                            x       y       z     vdW  Elec       q    Type
REMARK                         _______ _______ _______ _____ _____    ______ ____
ROOT
ATOM      1  C   UNL     1       0.807  10.221  19.644  0.00  0.00    +0.000 A 
ATOM      2  N   UNL     1       0.581  11.182  18.710  0.00  0.00    +0.000 NA
ATOM      3  C   UNL     1      -0.157  12.257  19.032  0.00  0.00    +0.000 A 
ATOM      4  N   UNL     1      -0.717  12.540  20.209  0.00  0.00    +0.000 NA
ATOM      5  C   UNL     1      -0.453  11.605  21.143  0.00  0.00    +0.000 A 
ATOM      6  C   UNL     1       0.303  10.457  20.936  0.00  0.00    +0.000 A 
ATOM      7  C   UNL     1       0.348   9.847  22.201  0.00  0.00    +0.000 A 
ATOM      8  N   UNL     1      -0.326  10.511  23.138  0.00  0.00    +0.000 NA
ATOM      9  N   UNL     1      -0.863  11.578  22.476  0.00  0.00    +0.000 N 
ENDROOT
BRANCH   9  10
ATOM     10  C   UNL     1      -1.740  12.468  23.164  0.00  0.00    +0.000 A 
ATOM     11  C   UNL     1      -1.280  13.745  23.526  0.00  0.00    +0.000 A 
ATOM     12  C   UNL     1      -2.110  14.622  24.228  0.00  0.00    +0.000 A 
ATOM     13  C   UNL     1      -3.395  14.229  24.591  0.00  0.00    +0.000 A 
ATOM     14  C   UNL     1      -3.869  12.961  24.248  0.00  0.00    +0.000 A 
ATOM     15  C   UNL     1      -5.229  12.494  24.673  0.00  0.00    +0.000 C 
ATOM     16  C   UNL     1      -3.041  12.089  23.523  0.00  0.00    +0.000 A 
ENDBRANCH   9  10
BRANCH   1  20
ATOM     17  N   UNL     1       2.947   6.780  18.487  0.00  0.00    +0.000 N 
ATOM     18  C   UNL     1       3.087   8.027  17.716  0.00  0.00    +0.000 C 
ATOM     19  C   UNL     1       1.782   8.843  17.816  0.00  0.00    +0.000 C 
ATOM     20  N   UNL     1       1.444   9.077  19.220  0.00  0.00    +0.000 N 
ATOM     21  C   UNL     1       1.391   7.880  20.083  0.00  0.00    +0.000 C 
ATOM     22  C   UNL     1       2.664   7.012  19.916  0.00  0.00    +0.000 C 
BRANCH  17  28
ATOM     23  C   UNL     1       2.618   4.393  17.943  0.00  0.00    +0.000 A 
ATOM     24  C   UNL     1       3.097   3.239  17.296  0.00  0.00    +0.000 A 
ATOM     25  C   UNL     1       4.374   3.204  16.744  0.00  0.00    +0.000 A 
ATOM     26  C   UNL     1       5.186   4.321  16.835  0.00  0.00    +0.000 A 
ATOM     27  C   UNL     1       4.706   5.480  17.450  0.00  0.00    +0.000 A 
ATOM     28  C   UNL     1       3.407   5.567  17.995  0.00  0.00    +0.000 A 
BRANCH  23  30
ATOM     29  C   UNL     1       1.082   3.592  19.547  0.00  0.00    +0.000 C 
ATOM     30  O   UNL     1       1.326   4.438  18.424  0.00  0.00    +0.000 OA
ENDBRANCH  23  30
ENDBRANCH  17  28
ENDBRANCH   1  20
TORSDOF 4
ENDMDL
MODEL 3
REMARK VINA RESULT:      -8.4      0.458      1.342
REMARK  Name = 
REMARK  6 active torsions:
REMARK  status: ('A' for Active; 'I' for Inactive)
REMARK    1  A    between atoms: C_1  and  O_2
REMARK    2  A    between atoms: O_2  and  C_3
REMARK    3  A    between atoms: C_8  and  N_9
REMARK    4  A    between atoms: N_12  and  C_13
REMARK    5  A    between atoms: N_21  and  C_22
REMARK    6  A    between atoms: C_26  and  C_27
REMARK                            x       y       z     vdW  Elec       q    Type
REMARK                         _______ _______ _______ _____ _____    ______ ____
ROOT
ATOM      1  C   UNL     1       0.799  10.485  19.868  0.00  0.00    +0.000 A 
ATOM      2  N   UNL     1       0.801  11.519  18.986  0.00  0.00    +0.000 NA
ATOM      3  C   UNL     1       0.191  12.669  19.314  0.00  0.00    +0.000 A 
ATOM      4  N   UNL     1      -0.439  12.964  20.452  0.00  0.00    +0.000 NA
ATOM      5  C   UNL     1      -0.400  11.950  21.339  0.00  0.00    +0.000 A 
ATOM      6  C   UNL     1       0.207  10.719  21.123  0.00  0.00    +0.000 A 
ATOM      7  C   UNL     1       0.043  10.039  22.342  0.00  0.00    +0.000 A 
ATOM      8  N   UNL     1      -0.623  10.741  23.258  0.00  0.00    +0.000 NA
ATOM      9  N   UNL     1      -0.940  11.909  22.625  0.00  0.00    +0.000 N 
ENDROOT
BRANCH   9  10
ATOM     10  C   UNL     1      -1.749  12.877  23.292  0.00  0.00    +0.000 A 
ATOM     11  C   UNL     1      -3.101  12.591  23.537  0.00  0.00    +0.000 A 
ATOM     12  C   UNL     1      -3.920  13.535  24.162  0.00  0.00    +0.000 A 
ATOM     13  C   UNL     1      -3.405  14.775  24.527  0.00  0.00    +0.000 A 
ATOM     14  C   UNL     1      -2.064  15.082  24.284  0.00  0.00    +0.000 A 
ATOM     15  C   UNL     1      -1.499  16.430  24.618  0.00  0.00    +0.000 C 
ATOM     16  C   UNL     1      -1.238  14.123  23.677  0.00  0.00    +0.000 A 
ENDBRANCH   9  10
BRANCH   1  20
ATOM     17  N   UNL     1       2.570   6.864  18.638  0.00  0.00    +0.000 N 
ATOM     18  C   UNL     1       2.749   8.083  17.830  0.00  0.00    +0.000 C 
ATOM     19  C   UNL     1       1.524   9.002  18.007  0.00  0.00    +0.000 C 
ATOM     20  N   UNL     1       1.311   9.287  19.426  0.00  0.00    +0.000 N 
ATOM     21  C   UNL     1       1.229   8.112  20.318  0.00  0.00    +0.000 C 
ATOM     22  C   UNL     1       2.414   7.143  20.079  0.00  0.00    +0.000 C 
BRANCH  17  28
ATOM     23  C   UNL     1       4.226   5.150  17.993  0.00  0.00    +0.000 A 
ATOM     24  C   UNL     1       4.483   3.816  17.627  0.00  0.00    +0.000 A 
ATOM     25  C   UNL     1       3.442   2.935  17.349  0.00  0.00    +0.000 A 
ATOM     26  C   UNL     1       2.133   3.380  17.431  0.00  0.00    +0.000 A 
ATOM     27  C   UNL     1       1.871   4.695  17.822  0.00  0.00    +0.000 A 
ATOM     28  C   UNL     1       2.896   5.610  18.143  0.00  0.00    +0.000 A 
BRANCH  23  30
ATOM     29  C   UNL     1       6.269   5.396  19.152  0.00  0.00    +0.000 C 
ATOM     30  O   UNL     1       5.265   5.992  18.332  0.00  0.00    +0.000 OA
ENDBRANCH  23  30
ENDBRANCH  17  28
ENDBRANCH   1  20
TORSDOF 4
ENDMDL
MODEL 4
REMARK VINA RESULT:      -8.2      1.035      2.034
REMARK  Name = 
REMARK  6 active torsions:
REMARK  status: ('A' for Active; 'I' for Inactive)
REMARK    1  A    between atoms: C_1  and  O_2
REMARK    2  A    between atoms: O_2  and  C_3
REMARK    3  A    between atoms: C_8  and  N_9
REMARK    4  A    between atoms: N_12  and  C_13
REMARK    5  A    between atoms: N_21  and  C_22
REMARK    6  A    between atoms: C_26  and  C_27
REMARK                            x       y       z     vdW  Elec       q    Type
REMARK                         _______ _______ _______ _____ _____    ______ ____
ROOT
ATOM      1  C   UNL     1       0.764  10.290  19.718  0.00  0.00    +0.000 A 
ATOM      2  N   UNL     1       0.553  11.262  18.792  0.00  0.00    +0.000 NA
ATOM      3  C   UNL     1      -0.170  12.343  19.122  0.00  0.00    +0.000 A 
ATOM      4  N   UNL     1      -0.728  12.625  20.300  0.00  0.00    +0.000 NA
ATOM      5  C   UNL     1      -0.478  11.679  21.227  0.00  0.00    +0.000 A 
ATOM      6  C   UNL     1       0.263  10.523  21.012  0.00  0.00    +0.000 A 
ATOM      7  C   UNL     1       0.299   9.902  22.272  0.00  0.00    +0.000 A 
ATOM      8  N   UNL     1      -0.367  10.568  23.214  0.00  0.00    +0.000 NA
ATOM      9  N   UNL     1      -0.889  11.648  22.559  0.00  0.00    +0.000 N 
ENDROOT
BRANCH   9  10
ATOM     10  C   UNL     1      -1.753  12.545  23.255  0.00  0.00    +0.000 A 
ATOM     11  C   UNL     1      -3.066  12.144  23.552  0.00  0.00    +0.000 A 
ATOM     12  C   UNL     1      -3.940  13.017  24.206  0.00  0.00    +0.000 A 
ATOM     13  C   UNL     1      -3.521  14.299  24.549  0.00  0.00    +0.000 A 
ATOM     14  C   UNL     1      -2.222  14.720  24.254  0.00  0.00    +0.000 A 
ATOM     15  C   UNL     1      -1.763  16.113  24.565  0.00  0.00    +0.000 C 
ATOM     16  C   UNL     1      -1.338  13.833  23.618  0.00  0.00    +0.000 A 
ENDBRANCH   9  10
BRANCH   1  20
ATOM     17  N   UNL     1       2.860   6.833  18.529  0.00  0.00    +0.000 N 
ATOM     18  C   UNL     1       2.987   8.074  17.748  0.00  0.00    +0.000 C 
ATOM     19  C   UNL     1       1.689   8.897  17.875  0.00  0.00    +0.000 C 
ATOM     20  N   UNL     1       1.386   9.141  19.286  0.00  0.00    +0.000 N 
ATOM     21  C   UNL     1       1.349   7.949  20.157  0.00  0.00    +0.000 C 
ATOM     22  C   UNL     1       2.614   7.074  19.964  0.00  0.00    +0.000 C 
BRANCH  17  28
ATOM     23  C   UNL     1       2.530   4.429  18.065  0.00  0.00    +0.000 A 
ATOM     24  C   UNL     1       2.980   3.267  17.413  0.00  0.00    +0.000 A 
ATOM     25  C   UNL     1       4.214   3.236  16.771  0.00  0.00    +0.000 A 
ATOM     26  C   UNL     1       5.014   4.366  16.779  0.00  0.00    +0.000 A 
ATOM     27  C   UNL     1       4.561   5.532  17.400  0.00  0.00    +0.000 A 
ATOM     28  C   UNL     1       3.303   5.615  18.034  0.00  0.00    +0.000 A 
BRANCH  23  30
ATOM     29  C   UNL     1       1.107   3.598  19.756  0.00  0.00    +0.000 C 
ATOM     30  O   UNL     1       1.275   4.467  18.637  0.00  0.00    +0.000 OA
ENDBRANCH  23  30
ENDBRANCH  17  28
ENDBRANCH   1  20
TORSDOF 4
ENDMDL
MODEL 5
REMARK VINA RESULT:      -8.1      0.980      1.911
REMARK  Name = 
REMARK  6 active torsions:
REMARK  status: ('A' for Active; 'I' for Inactive)
REMARK    1  A    between atoms: C_1  and  O_2
REMARK    2  A    between atoms: O_2  and  C_3
REMARK    3  A    between atoms: C_8  and  N_9
REMARK    4  A    between atoms: N_12  and  C_13
REMARK    5  A    between atoms: N_21  and  C_22
REMARK    6  A    between atoms: C_26  and  C_27
REMARK                            x       y       z     vdW  Elec       q    Type
REMARK                         _______ _______ _______ _____ _____    ______ ____
ROOT
ATOM      1  C   UNL     1       0.801  10.225  19.743  0.00  0.00    +0.000 A 
ATOM      2  N   UNL     1       0.556  11.159  18.787  0.00  0.00    +0.000 NA
ATOM      3  C   UNL     1      -0.208  12.223  19.083  0.00  0.00    +0.000 A 
ATOM      4  N   UNL     1      -0.779  12.519  20.251  0.00  0.00    +0.000 NA
ATOM      5  C   UNL     1      -0.496  11.612  21.207  0.00  0.00    +0.000 A 
ATOM      6  C   UNL     1       0.288  10.478  21.028  0.00  0.00    +0.000 A 
ATOM      7  C   UNL     1       0.345   9.898  22.307  0.00  0.00    +0.000 A 
ATOM      8  N   UNL     1      -0.349  10.567  23.227  0.00  0.00    +0.000 NA
ATOM      9  N   UNL     1      -0.909  11.606  22.539  0.00  0.00    +0.000 N 
ENDROOT
BRANCH   9  10
ATOM     10  C   UNL     1      -1.808  12.490  23.205  0.00  0.00    +0.000 A 
ATOM     11  C   UNL     1      -1.368  13.772  23.573  0.00  0.00    +0.000 A 
ATOM     12  C   UNL     1      -2.222  14.644  24.253  0.00  0.00    +0.000 A 
ATOM     13  C   UNL     1      -3.510  14.241  24.589  0.00  0.00    +0.000 A 
ATOM     14  C   UNL     1      -3.965  12.967  24.239  0.00  0.00    +0.000 A 
ATOM     15  C   UNL     1      -5.330  12.489  24.636  0.00  0.00    +0.000 C 
ATOM     16  C   UNL     1      -3.113  12.101  23.536  0.00  0.00    +0.000 A 
ENDBRANCH   9  10
BRANCH   1  20
ATOM     17  N   UNL     1       2.635   6.670  18.418  0.00  0.00    +0.000 N 
ATOM     18  C   UNL     1       1.923   6.694  19.707  0.00  0.00    +0.000 C 
ATOM     19  C   UNL     1       1.991   8.114  20.305  0.00  0.00    +0.000 C 
ATOM     20  N   UNL     1       1.467   9.087  19.347  0.00  0.00    +0.000 N 
ATOM     21  C   UNL     1       2.059   9.050  17.995  0.00  0.00    +0.000 C 
ATOM     22  C   UNL     1       2.072   7.608  17.428  0.00  0.00    +0.000 C 
BRANCH  17  28
ATOM     23  C   UNL     1       3.008   4.360  17.627  0.00  0.00    +0.000 A 
ATOM     24  C   UNL     1       3.911   3.392  17.150  0.00  0.00    +0.000 A 
ATOM     25  C   UNL     1       5.282   3.627  17.155  0.00  0.00    +0.000 A 
ATOM     26  C   UNL     1       5.766   4.830  17.640  0.00  0.00    +0.000 A 
ATOM     27  C   UNL     1       4.872   5.807  18.088  0.00  0.00    +0.000 A 
ATOM     28  C   UNL     1       3.474   5.620  18.071  0.00  0.00    +0.000 A 
BRANCH  23  30
ATOM     29  C   UNL     1       1.148   3.187  18.488  0.00  0.00    +0.000 C 
ATOM     30  O   UNL     1       1.647   4.141  17.553  0.00  0.00    +0.000 OA
ENDBRANCH  23  30
ENDBRANCH  17  28
ENDBRANCH   1  20
TORSDOF 4
ENDMDL
MODEL 6
REMARK VINA RESULT:      -8.0      1.129      1.453
REMARK  Name = 
REMARK  6 active torsions:
REMARK  status: ('A' for Active; 'I' for Inactive)
REMARK    1  A    between atoms: C_1  and  O_2
REMARK    2  A    between atoms: O_2  and  C_3
REMARK    3  A    between atoms: C_8  and  N_9
REMARK    4  A    between atoms: N_12  and  C_13
REMARK    5  A    between atoms: N_21  and  C_22
REMARK    6  A    between atoms: C_26  and  C_27
REMARK                            x       y       z     vdW  Elec       q    Type
REMARK                         _______ _______ _______ _____ _____    ______ ____
ROOT
ATOM      1  C   UNL     1       0.981   9.560  20.185  0.00  0.00    +0.000 A 
ATOM      2  N   UNL     1       1.116  10.472  19.187  0.00  0.00    +0.000 NA
ATOM      3  C   UNL     1       0.550  11.682  19.316  0.00  0.00    +0.000 A 
ATOM      4  N   UNL     1      -0.152  12.150  20.350  0.00  0.00    +0.000 NA
ATOM      5  C   UNL     1      -0.245  11.256  21.355  0.00  0.00    +0.000 A 
ATOM      6  C   UNL     1       0.304   9.980  21.345  0.00  0.00    +0.000 A 
ATOM      7  C   UNL     1       0.002   9.470  22.620  0.00  0.00    +0.000 A 
ATOM      8  N   UNL     1      -0.694  10.313  23.380  0.00  0.00    +0.000 NA
ATOM      9  N   UNL     1      -0.888  11.406  22.583  0.00  0.00    +0.000 N 
ENDROOT
BRANCH   9  10
ATOM     10  C   UNL     1      -1.690  12.488  23.052  0.00  0.00    +0.000 A 
ATOM     11  C   UNL     1      -1.075  13.702  23.395  0.00  0.00    +0.000 A 
ATOM     12  C   UNL     1      -1.837  14.766  23.885  0.00  0.00    +0.000 A 
ATOM     13  C   UNL     1      -3.210  14.622  24.056  0.00  0.00    +0.000 A 
ATOM     14  C   UNL     1      -3.841  13.419  23.730  0.00  0.00    +0.000 A 
ATOM     15  C   UNL     1      -5.309  13.221  23.956  0.00  0.00    +0.000 C 
ATOM     16  C   UNL     1      -3.076  12.359  23.215  0.00  0.00    +0.000 A 
ENDBRANCH   9  10
BRANCH   1  20
ATOM     17  N   UNL     1       2.244   5.641  19.287  0.00  0.00    +0.000 N 
ATOM     18  C   UNL     1       1.334   5.879  20.421  0.00  0.00    +0.000 C 
ATOM     19  C   UNL     1       1.587   7.287  20.997  0.00  0.00    +0.000 C 
ATOM     20  N   UNL     1       1.456   8.291  19.940  0.00  0.00    +0.000 N 
ATOM     21  C   UNL     1       2.259   8.061  18.723  0.00  0.00    +0.000 C 
ATOM     22  C   UNL     1       2.073   6.617  18.194  0.00  0.00    +0.000 C 
BRANCH  17  28
ATOM     23  C   UNL     1       4.282   4.247  19.340  0.00  0.00    +0.000 A 
ATOM     24  C   UNL     1       4.850   2.960  19.300  0.00  0.00    +0.000 A 
ATOM     25  C   UNL     1       4.077   1.845  18.989  0.00  0.00    +0.000 A 
ATOM     26  C   UNL     1       2.730   2.004  18.713  0.00  0.00    +0.000 A 
ATOM     27  C   UNL     1       2.155   3.276  18.781  0.00  0.00    +0.000 A 
ATOM     28  C   UNL     1       2.895   4.427  19.122  0.00  0.00    +0.000 A 
BRANCH  23  30
ATOM     29  C   UNL     1       6.343   5.379  19.129  0.00  0.00    +0.000 C 
ATOM     30  O   UNL     1       5.044   5.334  19.717  0.00  0.00    +0.000 OA
ENDBRANCH  23  30
ENDBRANCH  17  28
ENDBRANCH   1  20
TORSDOF 4
ENDMDL
MODEL 7
REMARK VINA RESULT:      -8.0      3.363      9.949
REMARK  Name = 
REMARK  6 active torsions:
REMARK  status: ('A' for Active; 'I' for Inactive)
REMARK    1  A    between atoms: C_1  and  O_2
REMARK    2  A    between atoms: O_2  and  C_3
REMARK    3  A    between atoms: C_8  and  N_9
REMARK    4  A    between atoms: N_12  and  C_13
REMARK    5  A    between atoms: N_21  and  C_22
REMARK    6  A    between atoms: C_26  and  C_27
REMARK                            x       y       z     vdW  Elec       q    Type
REMARK                         _______ _______ _______ _____ _____    ______ ____
ROOT
ATOM      1  C   UNL     1       1.011  10.285  20.148  0.00  0.00    +0.000 A 
ATOM      2  N   UNL     1       0.802   9.736  21.374  0.00  0.00    +0.000 NA
ATOM      3  C   UNL     1       1.077   8.437  21.572  0.00  0.00    +0.000 A 
ATOM      4  N   UNL     1       1.571   7.563  20.693  0.00  0.00    +0.000 NA
ATOM      5  C   UNL     1       1.817   8.124  19.493  0.00  0.00    +0.000 A 
ATOM      6  C   UNL     1       1.585   9.455  19.167  0.00  0.00    +0.000 A 
ATOM      7  C   UNL     1       2.057   9.570  17.848  0.00  0.00    +0.000 A 
ATOM      8  N   UNL     1       2.529   8.429  17.349  0.00  0.00    +0.000 NA
ATOM      9  N   UNL     1       2.340   7.518  18.350  0.00  0.00    +0.000 N 
ENDROOT
BRANCH   9  10
ATOM     10  C   UNL     1       2.654   6.145  18.124  0.00  0.00    +0.000 A 
ATOM     11  C   UNL     1       3.859   5.811  17.486  0.00  0.00    +0.000 A 
ATOM     12  C   UNL     1       4.173   4.474  17.226  0.00  0.00    +0.000 A 
ATOM     13  C   UNL     1       3.283   3.465  17.581  0.00  0.00    +0.000 A 
ATOM     14  C   UNL     1       2.074   3.778  18.209  0.00  0.00    +0.000 A 
ATOM     15  C   UNL     1       1.075   2.714  18.553  0.00  0.00    +0.000 C 
ATOM     16  C   UNL     1       1.772   5.120  18.490  0.00  0.00    +0.000 A 
ENDBRANCH   9  10
BRANCH   1  20
ATOM     17  N   UNL     1      -0.199  14.244  19.361  0.00  0.00    +0.000 N 
ATOM     18  C   UNL     1       1.067  13.989  20.068  0.00  0.00    +0.000 C 
ATOM     19  C   UNL     1       0.959  12.669  20.858  0.00  0.00    +0.000 C 
ATOM     20  N   UNL     1       0.578  11.577  19.961  0.00  0.00    +0.000 N 
ATOM     21  C   UNL     1      -0.626  11.806  19.136  0.00  0.00    +0.000 C 
ATOM     22  C   UNL     1      -0.557  13.173  18.411  0.00  0.00    +0.000 C 
BRANCH  17  28
ATOM     23  C   UNL     1      -1.714  15.972  20.266  0.00  0.00    +0.000 A 
ATOM     24  C   UNL     1      -2.136  17.314  20.255  0.00  0.00    +0.000 A 
ATOM     25  C   UNL     1      -1.677  18.202  19.287  0.00  0.00    +0.000 A 
ATOM     26  C   UNL     1      -0.796  17.757  18.317  0.00  0.00    +0.000 A 
ATOM     27  C   UNL     1      -0.351  16.433  18.340  0.00  0.00    +0.000 A 
ATOM     28  C   UNL     1      -0.766  15.509  19.322  0.00  0.00    +0.000 A 
BRANCH  23  30
ATOM     29  C   UNL     1      -3.363  14.461  21.024  0.00  0.00    +0.000 C 
ATOM     30  O   UNL     1      -2.123  15.120  21.272  0.00  0.00    +0.000 OA
ENDBRANCH  23  30
ENDBRANCH  17  28
ENDBRANCH   1  20
TORSDOF 4
ENDMDL
MODEL 8
REMARK VINA RESULT:      -7.9      2.620      9.950
REMARK  Name = 
REMARK  6 active torsions:
REMARK  status: ('A' for Active; 'I' for Inactive)
REMARK    1  A    between atoms: C_1  and  O_2
REMARK    2  A    between atoms: O_2  and  C_3
REMARK    3  A    between atoms: C_8  and  N_9
REMARK    4  A    between atoms: N_12  and  C_13
REMARK    5  A    between atoms: N_21  and  C_22
REMARK    6  A    between atoms: C_26  and  C_27
REMARK                            x       y       z     vdW  Elec       q    Type
REMARK                         _______ _______ _______ _____ _____    ______ ____
ROOT
ATOM      1  C   UNL     1       0.836   9.826  19.788  0.00  0.00    +0.000 A 
ATOM      2  N   UNL     1       1.248  10.316  18.589  0.00  0.00    +0.000 NA
ATOM      3  C   UNL     1       2.039   9.566  17.806  0.00  0.00    +0.000 A 
ATOM      4  N   UNL     1       2.491   8.334  18.041  0.00  0.00    +0.000 NA
ATOM      5  C   UNL     1       2.044   7.837  19.212  0.00  0.00    +0.000 A 
ATOM      6  C   UNL     1       1.215   8.508  20.103  0.00  0.00    +0.000 A 
ATOM      7  C   UNL     1       0.976   7.569  21.120  0.00  0.00    +0.000 A 
ATOM      8  N   UNL     1       1.602   6.408  20.931  0.00  0.00    +0.000 NA
ATOM      9  N   UNL     1       2.302   6.586  19.771  0.00  0.00    +0.000 N 
ENDROOT
BRANCH   9  10
ATOM     10  C   UNL     1       3.174   5.556  19.309  0.00  0.00    +0.000 A 
ATOM     11  C   UNL     1       4.562   5.766  19.338  0.00  0.00    +0.000 A 
ATOM     12  C   UNL     1       5.434   4.783  18.862  0.00  0.00    +0.000 A 
ATOM     13  C   UNL     1       4.932   3.597  18.336  0.00  0.00    +0.000 A 
ATOM     14  C   UNL     1       3.554   3.373  18.290  0.00  0.00    +0.000 A 
ATOM     15  C   UNL     1       2.986   2.127  17.679  0.00  0.00    +0.000 C 
ATOM     16  C   UNL     1       2.680   4.352  18.790  0.00  0.00    +0.000 A 
ENDBRANCH   9  10
BRANCH   1  20
ATOM     17  N   UNL     1      -1.441  12.297  22.332  0.00  0.00    +0.000 N 
ATOM     18  C   UNL     1      -1.658  12.342  20.876  0.00  0.00    +0.000 C 
ATOM     19  C   UNL     1      -0.345  11.987  20.149  0.00  0.00    +0.000 C 
ATOM     20  N   UNL     1       0.149  10.689  20.611  0.00  0.00    +0.000 N 
ATOM     21  C   UNL     1       0.289  10.531  22.073  0.00  0.00    +0.000 C 
ATOM     22  C   UNL     1      -1.000  10.973  22.810  0.00  0.00    +0.000 C 
BRANCH  17  28
ATOM     23  C   UNL     1      -3.317  13.311  23.578  0.00  0.00    +0.000 A 
ATOM     24  C   UNL     1      -3.744  14.234  24.550  0.00  0.00    +0.000 A 
ATOM     25  C   UNL     1      -2.862  15.163  25.094  0.00  0.00    +0.000 A 
ATOM     26  C   UNL     1      -1.544  15.180  24.670  0.00  0.00    +0.000 A 
ATOM     27  C   UNL     1      -1.107  14.247  23.727  0.00  0.00    +0.000 A 
ATOM     28  C   UNL     1      -1.961  13.270  23.174  0.00  0.00    +0.000 A 
BRANCH  23  30
ATOM     29  C   UNL     1      -5.277  12.866  22.339  0.00  0.00    +0.000 C 
ATOM     30  O   UNL     1      -4.185  12.351  23.098  0.00  0.00    +0.000 OA
ENDBRANCH  23  30
ENDBRANCH  17  28
ENDBRANCH   1  20
TORSDOF 4
ENDMDL
MODEL 9
REMARK VINA RESULT:      -7.9      1.023      2.273
REMARK  Name = 
REMARK  6 active torsions:
REMARK  status: ('A' for Active; 'I' for Inactive)
REMARK    1  A    between atoms: C_1  and  O_2
REMARK    2  A    between atoms: O_2  and  C_3
REMARK    3  A    between atoms: C_8  and  N_9
REMARK    4  A    between atoms: N_12  and  C_13
REMARK    5  A    between atoms: N_21  and  C_22
REMARK    6  A    between atoms: C_26  and  C_27
REMARK                            x       y       z     vdW  Elec       q    Type
REMARK                         _______ _______ _______ _____ _____    ______ ____
ROOT
ATOM      1  C   UNL     1       0.726  10.329  19.797  0.00  0.00    +0.000 A 
ATOM      2  N   UNL     1       0.472  11.270  18.850  0.00  0.00    +0.000 NA
ATOM      3  C   UNL     1      -0.296  12.327  19.159  0.00  0.00    +0.000 A 
ATOM      4  N   UNL     1      -0.864  12.609  20.332  0.00  0.00    +0.000 NA
ATOM      5  C   UNL     1      -0.573  11.695  21.279  0.00  0.00    +0.000 A 
ATOM      6  C   UNL     1       0.216  10.567  21.087  0.00  0.00    +0.000 A 
ATOM      7  C   UNL     1       0.280   9.976  22.360  0.00  0.00    +0.000 A 
ATOM      8  N   UNL     1      -0.413  10.632  23.289  0.00  0.00    +0.000 NA
ATOM      9  N   UNL     1      -0.981  11.674  22.612  0.00  0.00    +0.000 N 
ENDROOT
BRANCH   9  10
ATOM     10  C   UNL     1      -1.883  12.548  23.290  0.00  0.00    +0.000 A 
ATOM     11  C   UNL     1      -3.197  12.122  23.538  0.00  0.00    +0.000 A 
ATOM     12  C   UNL     1      -4.107  12.972  24.174  0.00  0.00    +0.000 A 
ATOM     13  C   UNL     1      -3.721  14.256  24.547  0.00  0.00    +0.000 A 
ATOM     14  C   UNL     1      -2.420  14.702  24.300  0.00  0.00    +0.000 A 
ATOM     15  C   UNL     1      -1.996  16.098  24.644  0.00  0.00    +0.000 C 
ATOM     16  C   UNL     1      -1.501  13.838  23.683  0.00  0.00    +0.000 A 
ENDBRANCH   9  10
BRANCH   1  20
ATOM     17  N   UNL     1       2.575   6.796  18.431  0.00  0.00    +0.000 N 
ATOM     18  C   UNL     1       1.859   6.802  19.718  0.00  0.00    +0.000 C 
ATOM     19  C   UNL     1       1.920   8.213  20.335  0.00  0.00    +0.000 C 
ATOM     20  N   UNL     1       1.396   9.198  19.388  0.00  0.00    +0.000 N 
ATOM     21  C   UNL     1       1.993   9.181  18.038  0.00  0.00    +0.000 C 
ATOM     22  C   UNL     1       2.012   7.746  17.452  0.00  0.00    +0.000 C 
BRANCH  17  28
ATOM     23  C   UNL     1       2.957   4.474  17.681  0.00  0.00    +0.000 A 
ATOM     24  C   UNL     1       3.857   3.512  17.188  0.00  0.00    +0.000 A 
ATOM     25  C   UNL     1       5.223   3.772  17.127  0.00  0.00    +0.000 A 
ATOM     26  C   UNL     1       5.703   4.995  17.561  0.00  0.00    +0.000 A 
ATOM     27  C   UNL     1       4.811   5.966  18.024  0.00  0.00    +0.000 A 
ATOM     28  C   UNL     1       3.418   5.754  18.073  0.00  0.00    +0.000 A 
BRANCH  23  30
ATOM     29  C   UNL     1       1.180   3.178  18.541  0.00  0.00    +0.000 C 
ATOM     30  O   UNL     1       1.599   4.229  17.672  0.00  0.00    +0.000 OA
ENDBRANCH  23  30
ENDBRANCH  17  28
ENDBRANCH   1  20
TORSDOF 4
ENDMDL
