MODEL 1
REMARK VINA RESULT:      -8.2      0.000      0.000
REMARK  Name = 
REMARK  10 active torsions:
REMARK  status: ('A' for Active; 'I' for Inactive)
REMARK    1  A    between atoms: C_1  and  C_2
REMARK    2  A    between atoms: C_2  and  C_3
REMARK    3  A    between atoms: C_2  and  C_4
REMARK    4  A    between atoms: C_2  and  C_5
REMARK    5  A    between atoms: C_9  and  C_10
REMARK    6  A    between atoms: C_10  and  N_11
REMARK    7  A    between atoms: N_11  and  C_12
REMARK    8  A    between atoms: C_18  and  C_19
REMARK    9  A    between atoms: C_19  and  C_20
REMARK   10  A    between atoms: C_27  and  O_28
REMARK                            x       y       z     vdW  Elec       q    Type
REMARK                         _______ _______ _______ _____ _____    ______ ____
ROOT
ATOM      1  C   UNL     1       1.095   8.926  19.610  0.00  0.00    +0.000 C 
ATOM      2  C   UNL     1       1.505   9.195  21.051  0.00  0.00    +0.000 C 
ATOM      3  S   UNL     1       0.066   9.317  22.071  0.00  0.00    +0.000 S 
ATOM      4  O   UNL     1       0.492   9.666  23.411  0.00  0.00    +0.000 OA
ATOM      5  O   UNL     1      -0.768   8.157  21.829  0.00  0.00    +0.000 OA
ATOM      6  C   UNL     1      -0.729  10.729  21.367  0.00  0.00    +0.000 C 
ATOM      7  C   UNL     1      -0.952  10.609  19.858  0.00  0.00    +0.000 C 
ATOM      8  C   UNL     1       0.267  10.115  19.037  0.00  0.00    +0.000 C 
ENDROOT
BRANCH   1   9
ATOM      9  N   UNL     1       2.279   8.756  18.733  0.00  0.00    +0.000 NA
ATOM     10  H   UNL     1       2.362   9.579  18.127  0.00  0.00    +0.000 HD
BRANCH   9  11
ATOM     11  C   UNL     1       2.230   7.552  17.902  0.00  0.00    +0.000 C 
BRANCH  11  16
ATOM     12  C   UNL     1       5.516   5.609  18.493  0.00  0.00    +0.000 A 
ATOM     13  C   UNL     1       5.004   4.525  19.227  0.00  0.00    +0.000 A 
ATOM     14  C   UNL     1       3.642   4.423  19.514  0.00  0.00    +0.000 A 
ATOM     15  C   UNL     1       2.756   5.391  19.060  0.00  0.00    +0.000 A 
ATOM     16  C   UNL     1       3.218   6.487  18.321  0.00  0.00    +0.000 A 
ATOM     17  C   UNL     1       4.600   6.598  18.078  0.00  0.00    +0.000 A 
BRANCH  12  19
ATOM     18  C   UNL     1       7.488   4.576  17.190  0.00  0.00    +0.000 C 
ATOM     19  C   UNL     1       7.003   5.719  18.111  0.00  0.00    +0.000 C 
ATOM     20  C   UNL     1       7.891   5.700  19.372  0.00  0.00    +0.000 C 
ATOM     21  C   UNL     1       7.233   7.044  17.352  0.00  0.00    +0.000 C 
ENDBRANCH  12  19
ENDBRANCH  11  16
ENDBRANCH   9  11
ENDBRANCH   1   9
BRANCH   8  22
ATOM     22  O   UNL     1      -0.208   9.750  17.726  0.00  0.00    +0.000 OA
ATOM     23  H   UNL     1      -0.562  10.546  17.291  0.00  0.00    +0.000 HD
ENDBRANCH   8  22
BRANCH   7  24
ATOM     24  C   UNL     1      -1.510  11.954  19.292  0.00  0.00    +0.000 C 
BRANCH  24  25
ATOM     25  C   UNL     1      -2.921  11.907  18.748  0.00  0.00    +0.000 A 
ATOM     26  C   UNL     1      -3.193  11.477  17.449  0.00  0.00    +0.000 A 
ATOM     27  C   UNL     1      -4.498  11.518  16.960  0.00  0.00    +0.000 A 
ATOM     28  C   UNL     1      -5.515  11.956  17.794  0.00  0.00    +0.000 A 
ATOM     29  N   UNL     1      -6.822  12.047  17.326  0.00  0.00    +0.000 N 
ATOM     30  N   UNL     1      -5.291  12.357  19.055  0.00  0.00    +0.000 NA
ATOM     31  C   UNL     1      -4.014  12.317  19.506  0.00  0.00    +0.000 A 
ATOM     32  H   UNL     1      -7.136  11.178  16.914  0.00  0.00    +0.000 HD
ATOM     33  H   UNL     1      -7.403  12.330  18.112  0.00  0.00    +0.000 HD
ENDBRANCH  24  25
ENDBRANCH   7  24
TORSDOF 7
ENDMDL
MODEL 2
REMARK VINA RESULT:      -8.2      2.952      4.784
REMARK  Name = 
REMARK  10 active torsions:
REMARK  status: ('A' for Active; 'I' for Inactive)
REMARK    1  A    between atoms: C_1  and  C_2
REMARK    2  A    between atoms: C_2  and  C_3
REMARK    3  A    between atoms: C_2  and  C_4
REMARK    4  A    between atoms: C_2  and  C_5
REMARK    5  A    between atoms: C_9  and  C_10
REMARK    6  A    between atoms: C_10  and  N_11
REMARK    7  A    between atoms: N_11  and  C_12
REMARK    8  A    between atoms: C_18  and  C_19
REMARK    9  A    between atoms: C_19  and  C_20
REMARK   10  A    between atoms: C_27  and  O_28
REMARK                            x       y       z     vdW  Elec       q    Type
REMARK                         _______ _______ _______ _____ _____    ______ ____
ROOT
ATOM      1  C   UNL     1       0.995  10.020  19.741  0.00  0.00    +0.000 C 
ATOM      2  C   UNL     1      -0.021  10.297  18.641  0.00  0.00    +0.000 C 
ATOM      3  S   UNL     1      -0.636  11.947  18.796  0.00  0.00    +0.000 S 
ATOM      4  O   UNL     1      -1.664  12.141  17.794  0.00  0.00    +0.000 OA
ATOM      5  O   UNL     1       0.493  12.851  18.894  0.00  0.00    +0.000 OA
ATOM      6  C   UNL     1      -1.423  11.867  20.376  0.00  0.00    +0.000 C 
ATOM      7  C   UNL     1      -0.502  11.360  21.487  0.00  0.00    +0.000 C 
ATOM      8  C   UNL     1       0.326  10.093  21.146  0.00  0.00    +0.000 C 
ENDROOT
BRANCH   1   9
ATOM      9  N   UNL     1       1.580   8.663  19.608  0.00  0.00    +0.000 NA
ATOM     10  H   UNL     1       2.285   8.534  20.341  0.00  0.00    +0.000 HD
BRANCH   9  11
ATOM     11  C   UNL     1       2.193   8.411  18.303  0.00  0.00    +0.000 C 
BRANCH  11  16
ATOM     12  C   UNL     1       2.799   4.610  18.643  0.00  0.00    +0.000 A 
ATOM     13  C   UNL     1       3.920   4.488  17.805  0.00  0.00    +0.000 A 
ATOM     14  C   UNL     1       4.465   5.599  17.157  0.00  0.00    +0.000 A 
ATOM     15  C   UNL     1       3.915   6.859  17.346  0.00  0.00    +0.000 A 
ATOM     16  C   UNL     1       2.801   7.032  18.176  0.00  0.00    +0.000 A 
ATOM     17  C   UNL     1       2.236   5.896  18.786  0.00  0.00    +0.000 A 
BRANCH  12  19
ATOM     18  C   UNL     1       3.240   2.703  20.323  0.00  0.00    +0.000 C 
ATOM     19  C   UNL     1       2.211   3.415  19.416  0.00  0.00    +0.000 C 
ATOM     20  C   UNL     1       1.650   2.361  18.441  0.00  0.00    +0.000 C 
ATOM     21  C   UNL     1       1.070   3.917  20.328  0.00  0.00    +0.000 C 
ENDBRANCH  12  19
ENDBRANCH  11  16
ENDBRANCH   9  11
ENDBRANCH   1   9
BRANCH   8  22
ATOM     22  O   UNL     1       1.353   9.959  22.148  0.00  0.00    +0.000 OA
ATOM     23  H   UNL     1       1.873  10.782  22.170  0.00  0.00    +0.000 HD
ENDBRANCH   8  22
BRANCH   7  24
ATOM     24  C   UNL     1      -1.313  11.169  22.808  0.00  0.00    +0.000 C 
BRANCH  24  25
ATOM     25  C   UNL     1      -2.042  12.392  23.318  0.00  0.00    +0.000 A 
ATOM     26  C   UNL     1      -1.384  13.604  23.529  0.00  0.00    +0.000 A 
ATOM     27  C   UNL     1      -2.076  14.688  24.069  0.00  0.00    +0.000 A 
ATOM     28  C   UNL     1      -3.425  14.549  24.356  0.00  0.00    +0.000 A 
ATOM     29  N   UNL     1      -4.135  15.597  24.933  0.00  0.00    +0.000 N 
ATOM     30  N   UNL     1      -4.093  13.404  24.147  0.00  0.00    +0.000 NA
ATOM     31  C   UNL     1      -3.399  12.361  23.630  0.00  0.00    +0.000 A 
ATOM     32  H   UNL     1      -4.036  16.454  24.405  0.00  0.00    +0.000 HD
ATOM     33  H   UNL     1      -5.106  15.300  25.000  0.00  0.00    +0.000 HD
ENDBRANCH  24  25
ENDBRANCH   7  24
TORSDOF 7
ENDMDL
MODEL 3
REMARK VINA RESULT:      -8.1      1.091      2.689
REMARK  Name = 
REMARK  10 active torsions:
REMARK  status: ('A' for Active; 'I' for Inactive)
REMARK    1  A    between atoms: C_1  and  C_2
REMARK    2  A    between atoms: C_2  and  C_3
REMARK    3  A    between atoms: C_2  and  C_4
REMARK    4  A    between atoms: C_2  and  C_5
REMARK    5  A    between atoms: C_9  and  C_10
REMARK    6  A    between atoms: C_10  and  N_11
REMARK    7  A    between atoms: N_11  and  C_12
REMARK    8  A    between atoms: C_18  and  C_19
REMARK    9  A    between atoms: C_19  and  C_20
REMARK   10  A    between atoms: C_27  and  O_28
REMARK                            x       y       z     vdW  Elec       q    Type
REMARK                         _______ _______ _______ _____ _____    ______ ____
ROOT
ATOM      1  C   UNL     1       1.072   9.092  19.582  0.00  0.00    +0.000 C 
ATOM      2  C   UNL     1       1.494   9.328  21.026  0.00  0.00    +0.000 C 
ATOM      3  S   UNL     1       0.066   9.364  22.068  0.00  0.00    +0.000 S 
ATOM      4  O   UNL     1       0.499   9.683  23.414  0.00  0.00    +0.000 OA
ATOM      5  O   UNL     1      -0.730   8.183  21.798  0.00  0.00    +0.000 OA
ATOM      6  C   UNL     1      -0.788  10.769  21.423  0.00  0.00    +0.000 C 
ATOM      7  C   UNL     1      -1.028  10.693  19.914  0.00  0.00    +0.000 C 
ATOM      8  C   UNL     1       0.196  10.270  19.060  0.00  0.00    +0.000 C 
ENDROOT
BRANCH   1   9
ATOM      9  N   UNL     1       2.249   8.995  18.684  0.00  0.00    +0.000 NA
ATOM     10  H   UNL     1       2.349   9.879  18.173  0.00  0.00    +0.000 HD
BRANCH   9  11
ATOM     11  C   UNL     1       2.168   7.893  17.723  0.00  0.00    +0.000 C 
BRANCH  11  16
ATOM     12  C   UNL     1       2.903   4.381  19.155  0.00  0.00    +0.000 A 
ATOM     13  C   UNL     1       4.279   4.313  18.881  0.00  0.00    +0.000 A 
ATOM     14  C   UNL     1       4.948   5.370  18.261  0.00  0.00    +0.000 A 
ATOM     15  C   UNL     1       4.262   6.527  17.916  0.00  0.00    +0.000 A 
ATOM     16  C   UNL     1       2.891   6.643  18.174  0.00  0.00    +0.000 A 
ATOM     17  C   UNL     1       2.222   5.552  18.759  0.00  0.00    +0.000 A 
BRANCH  12  19
ATOM     18  C   UNL     1       2.849   2.794  21.188  0.00  0.00    +0.000 C 
ATOM     19  C   UNL     1       2.149   3.257  19.890  0.00  0.00    +0.000 C 
ATOM     20  C   UNL     1       2.001   2.019  18.982  0.00  0.00    +0.000 C 
ATOM     21  C   UNL     1       0.745   3.764  20.285  0.00  0.00    +0.000 C 
ENDBRANCH  12  19
ENDBRANCH  11  16
ENDBRANCH   9  11
ENDBRANCH   1   9
BRANCH   8  22
ATOM     22  O   UNL     1      -0.285   9.932  17.744  0.00  0.00    +0.000 OA
ATOM     23  H   UNL     1       0.172  10.495  17.093  0.00  0.00    +0.000 HD
ENDBRANCH   8  22
BRANCH   7  24
ATOM     24  C   UNL     1      -1.642  12.035  19.401  0.00  0.00    +0.000 C 
BRANCH  24  25
ATOM     25  C   UNL     1      -3.047  11.951  18.849  0.00  0.00    +0.000 A 
ATOM     26  C   UNL     1      -3.303  11.463  17.566  0.00  0.00    +0.000 A 
ATOM     27  C   UNL     1      -4.604  11.470  17.065  0.00  0.00    +0.000 A 
ATOM     28  C   UNL     1      -5.633  11.933  17.872  0.00  0.00    +0.000 A 
ATOM     29  N   UNL     1      -6.936  11.991  17.389  0.00  0.00    +0.000 N 
ATOM     30  N   UNL     1      -5.424  12.389  19.116  0.00  0.00    +0.000 NA
ATOM     31  C   UNL     1      -4.151  12.382  19.580  0.00  0.00    +0.000 A 
ATOM     32  H   UNL     1      -7.238  11.101  17.012  0.00  0.00    +0.000 HD
ATOM     33  H   UNL     1      -7.527  12.300  18.158  0.00  0.00    +0.000 HD
ENDBRANCH  24  25
ENDBRANCH   7  24
TORSDOF 7
ENDMDL
MODEL 4
REMARK VINA RESULT:      -8.0      4.100      9.173
REMARK  Name = 
REMARK  10 active torsions:
REMARK  status: ('A' for Active; 'I' for Inactive)
REMARK    1  A    between atoms: C_1  and  C_2
REMARK    2  A    between atoms: C_2  and  C_3
REMARK    3  A    between atoms: C_2  and  C_4
REMARK    4  A    between atoms: C_2  and  C_5
REMARK    5  A    between atoms: C_9  and  C_10
REMARK    6  A    between atoms: C_10  and  N_11
REMARK    7  A    between atoms: N_11  and  C_12
REMARK    8  A    between atoms: C_18  and  C_19
REMARK    9  A    between atoms: C_19  and  C_20
REMARK   10  A    between atoms: C_27  and  O_28
REMARK                            x       y       z     vdW  Elec       q    Type
REMARK                         _______ _______ _______ _____ _____    ______ ____
ROOT
ATOM      1  C   UNL     1       3.781   6.603  17.454  0.00  0.00    +0.000 C 
ATOM      2  C   UNL     1       5.292   6.771  17.532  0.00  0.00    +0.000 C 
ATOM      3  S   UNL     1       6.065   5.846  16.239  0.00  0.00    +0.000 S 
ATOM      4  O   UNL     1       7.500   5.955  16.404  0.00  0.00    +0.000 OA
ATOM      5  O   UNL     1       5.427   6.189  14.984  0.00  0.00    +0.000 OA
ATOM      6  C   UNL     1       5.590   4.200  16.672  0.00  0.00    +0.000 C 
ATOM      7  C   UNL     1       4.079   4.030  16.843  0.00  0.00    +0.000 C 
ATOM      8  C   UNL     1       3.374   5.118  17.694  0.00  0.00    +0.000 C 
ENDROOT
BRANCH   1   9
ATOM      9  N   UNL     1       3.092   7.415  18.487  0.00  0.00    +0.000 NA
ATOM     10  H   UNL     1       2.468   6.805  19.026  0.00  0.00    +0.000 HD
BRANCH   9  11
ATOM     11  C   UNL     1       2.316   8.530  17.941  0.00  0.00    +0.000 C 
BRANCH  11  16
ATOM     12  C   UNL     1      -0.482  10.686  19.506  0.00  0.00    +0.000 A 
ATOM     13  C   UNL     1      -0.473  10.152  20.805  0.00  0.00    +0.000 A 
ATOM     14  C   UNL     1       0.412   9.134  21.165  0.00  0.00    +0.000 A 
ATOM     15  C   UNL     1       1.322   8.639  20.240  0.00  0.00    +0.000 A 
ATOM     16  C   UNL     1       1.354   9.142  18.935  0.00  0.00    +0.000 A 
ATOM     17  C   UNL     1       0.426  10.137  18.575  0.00  0.00    +0.000 A 
BRANCH  12  19
ATOM     18  C   UNL     1      -0.669  12.988  18.357  0.00  0.00    +0.000 C 
ATOM     19  C   UNL     1      -1.406  11.848  19.095  0.00  0.00    +0.000 C 
ATOM     20  C   UNL     1      -2.083  12.466  20.335  0.00  0.00    +0.000 C 
ATOM     21  C   UNL     1      -2.495  11.314  18.139  0.00  0.00    +0.000 C 
ENDBRANCH  12  19
ENDBRANCH  11  16
ENDBRANCH   9  11
ENDBRANCH   1   9
BRANCH   8  22
ATOM     22  O   UNL     1       1.955   4.993  17.474  0.00  0.00    +0.000 OA
ATOM     23  H   UNL     1       1.649   4.166  17.888  0.00  0.00    +0.000 HD
ENDBRANCH   8  22
BRANCH   7  24
ATOM     24  C   UNL     1       3.759   2.597  17.376  0.00  0.00    +0.000 C 
BRANCH  24  25
ATOM     25  C   UNL     1       3.054   2.531  18.713  0.00  0.00    +0.000 A 
ATOM     26  C   UNL     1       1.677   2.326  18.806  0.00  0.00    +0.000 A 
ATOM     27  C   UNL     1       1.053   2.345  20.053  0.00  0.00    +0.000 A 
ATOM     28  C   UNL     1       1.826   2.532  21.189  0.00  0.00    +0.000 A 
ATOM     29  N   UNL     1       1.230   2.596  22.445  0.00  0.00    +0.000 N 
ATOM     30  N   UNL     1       3.154   2.711  21.136  0.00  0.00    +0.000 NA
ATOM     31  C   UNL     1       3.739   2.699  19.914  0.00  0.00    +0.000 A 
ATOM     32  H   UNL     1       0.639   1.794  22.622  0.00  0.00    +0.000 HD
ATOM     33  H   UNL     1       1.979   2.677  23.128  0.00  0.00    +0.000 HD
ENDBRANCH  24  25
ENDBRANCH   7  24
TORSDOF 7
ENDMDL
MODEL 5
REMARK VINA RESULT:      -8.0      0.574      1.269
REMARK  Name = 
REMARK  10 active torsions:
REMARK  status: ('A' for Active; 'I' for Inactive)
REMARK    1  A    between atoms: C_1  and  C_2
REMARK    2  A    between atoms: C_2  and  C_3
REMARK    3  A    between atoms: C_2  and  C_4
REMARK    4  A    between atoms: C_2  and  C_5
REMARK    5  A    between atoms: C_9  and  C_10
REMARK    6  A    between atoms: C_10  and  N_11
REMARK    7  A    between atoms: N_11  and  C_12
REMARK    8  A    between atoms: C_18  and  C_19
REMARK    9  A    between atoms: C_19  and  C_20
REMARK   10  A    between atoms: C_27  and  O_28
REMARK                            x       y       z     vdW  Elec       q    Type
REMARK                         _______ _______ _______ _____ _____    ______ ____
ROOT
ATOM      1  C   UNL     1       1.008   9.161  19.497  0.00  0.00    +0.000 C 
ATOM      2  C   UNL     1       1.483   9.349  20.931  0.00  0.00    +0.000 C 
ATOM      3  S   UNL     1       0.094   9.376  22.024  0.00  0.00    +0.000 S 
ATOM      4  O   UNL     1       0.579   9.650  23.362  0.00  0.00    +0.000 OA
ATOM      5  O   UNL     1      -0.729   8.215  21.750  0.00  0.00    +0.000 OA
ATOM      6  C   UNL     1      -0.760  10.811  21.449  0.00  0.00    +0.000 C 
ATOM      7  C   UNL     1      -1.055  10.781  19.948  0.00  0.00    +0.000 C 
ATOM      8  C   UNL     1       0.131  10.365  19.040  0.00  0.00    +0.000 C 
ENDROOT
BRANCH   1   9
ATOM      9  N   UNL     1       2.150   9.072  18.555  0.00  0.00    +0.000 NA
ATOM     10  H   UNL     1       2.127   9.884  17.929  0.00  0.00    +0.000 HD
BRANCH   9  11
ATOM     11  C   UNL     1       2.158   7.849  17.751  0.00  0.00    +0.000 C 
BRANCH  11  16
ATOM     12  C   UNL     1       5.438   5.903  18.373  0.00  0.00    +0.000 A 
ATOM     13  C   UNL     1       4.951   4.924  19.256  0.00  0.00    +0.000 A 
ATOM     14  C   UNL     1       3.607   4.892  19.631  0.00  0.00    +0.000 A 
ATOM     15  C   UNL     1       2.714   5.823  19.120  0.00  0.00    +0.000 A 
ATOM     16  C   UNL     1       3.150   6.814  18.233  0.00  0.00    +0.000 A 
ATOM     17  C   UNL     1       4.517   6.861  17.899  0.00  0.00    +0.000 A 
BRANCH  12  19
ATOM     18  C   UNL     1       7.342   7.304  17.340  0.00  0.00    +0.000 C 
ATOM     19  C   UNL     1       6.901   5.930  17.894  0.00  0.00    +0.000 C 
ATOM     20  C   UNL     1       7.126   4.891  16.776  0.00  0.00    +0.000 C 
ATOM     21  C   UNL     1       7.828   5.599  19.084  0.00  0.00    +0.000 C 
ENDBRANCH  12  19
ENDBRANCH  11  16
ENDBRANCH   9  11
ENDBRANCH   1   9
BRANCH   8  22
ATOM     22  O   UNL     1      -0.401  10.072  17.733  0.00  0.00    +0.000 OA
ATOM     23  H   UNL     1       0.260  10.328  17.065  0.00  0.00    +0.000 HD
ENDBRANCH   8  22
BRANCH   7  24
ATOM     24  C   UNL     1      -1.665  12.146  19.496  0.00  0.00    +0.000 C 
BRANCH  24  25
ATOM     25  C   UNL     1      -3.103  12.105  19.029  0.00  0.00    +0.000 A 
ATOM     26  C   UNL     1      -4.149  12.555  19.836  0.00  0.00    +0.000 A 
ATOM     27  C   UNL     1      -5.468  12.434  19.399  0.00  0.00    +0.000 A 
ATOM     28  C   UNL     1      -5.714  11.895  18.145  0.00  0.00    +0.000 A 
ATOM     29  N   UNL     1      -7.019  11.722  17.695  0.00  0.00    +0.000 N 
ATOM     30  N   UNL     1      -4.730  11.472  17.336  0.00  0.00    +0.000 NA
ATOM     31  C   UNL     1      -3.457  11.591  17.785  0.00  0.00    +0.000 A 
ATOM     32  H   UNL     1      -7.554  12.579  17.755  0.00  0.00    +0.000 HD
ATOM     33  H   UNL     1      -6.963  11.373  16.741  0.00  0.00    +0.000 HD
ENDBRANCH  24  25
ENDBRANCH   7  24
TORSDOF 7
ENDMDL
MODEL 6
REMARK VINA RESULT:      -8.0      2.108      9.689
REMARK  Name = 
REMARK  10 active torsions:
REMARK  status: ('A' for Active; 'I' for Inactive)
REMARK    1  A    between atoms: C_1  and  C_2
REMARK    2  A    between atoms: C_2  and  C_3
REMARK    3  A    between atoms: C_2  and  C_4
REMARK    4  A    between atoms: C_2  and  C_5
REMARK    5  A    between atoms: C_9  and  C_10
REMARK    6  A    between atoms: C_10  and  N_11
REMARK    7  A    between atoms: N_11  and  C_12
REMARK    8  A    between atoms: C_18  and  C_19
REMARK    9  A    between atoms: C_19  and  C_20
REMARK   10  A    between atoms: C_27  and  O_28
REMARK                            x       y       z     vdW  Elec       q    Type
REMARK                         _______ _______ _______ _____ _____    ______ ____
ROOT
ATOM      1  C   UNL     1       0.723  10.628  19.281  0.00  0.00    +0.000 C 
ATOM      2  C   UNL     1      -0.135  10.121  20.432  0.00  0.00    +0.000 C 
ATOM      3  S   UNL     1       0.844   9.126  21.516  0.00  0.00    +0.000 S 
ATOM      4  O   UNL     1      -0.026   8.587  22.542  0.00  0.00    +0.000 OA
ATOM      5  O   UNL     1       2.041   9.866  21.863  0.00  0.00    +0.000 OA
ATOM      6  C   UNL     1       1.302   7.802  20.439  0.00  0.00    +0.000 C 
ATOM      7  C   UNL     1       1.961   8.276  19.143  0.00  0.00    +0.000 C 
ATOM      8  C   UNL     1       1.246   9.444  18.414  0.00  0.00    +0.000 C 
ENDROOT
BRANCH   1   9
ATOM      9  N   UNL     1      -0.050  11.518  18.380  0.00  0.00    +0.000 NA
ATOM     10  H   UNL     1       0.559  12.283  18.069  0.00  0.00    +0.000 HD
BRANCH   9  11
ATOM     11  C   UNL     1      -1.251  12.082  18.997  0.00  0.00    +0.000 C 
BRANCH  11  16
ATOM     12  C   UNL     1      -4.986  11.561  18.160  0.00  0.00    +0.000 A 
ATOM     13  C   UNL     1      -4.859  11.163  16.818  0.00  0.00    +0.000 A 
ATOM     14  C   UNL     1      -3.608  11.060  16.208  0.00  0.00    +0.000 A 
ATOM     15  C   UNL     1      -2.453  11.334  16.928  0.00  0.00    +0.000 A 
ATOM     16  C   UNL     1      -2.528  11.730  18.269  0.00  0.00    +0.000 A 
ATOM     17  C   UNL     1      -3.799  11.871  18.856  0.00  0.00    +0.000 A 
BRANCH  12  19
ATOM     18  C   UNL     1      -6.270  12.256  20.287  0.00  0.00    +0.000 C 
ATOM     19  C   UNL     1      -6.347  11.627  18.877  0.00  0.00    +0.000 C 
ATOM     20  C   UNL     1      -6.946  10.214  19.037  0.00  0.00    +0.000 C 
ATOM     21  C   UNL     1      -7.316  12.494  18.044  0.00  0.00    +0.000 C 
ENDBRANCH  12  19
ENDBRANCH  11  16
ENDBRANCH   9  11
ENDBRANCH   1   9
BRANCH   8  22
ATOM     22  O   UNL     1       2.158   9.967  17.428  0.00  0.00    +0.000 OA
ATOM     23  H   UNL     1       2.983   9.451  17.464  0.00  0.00    +0.000 HD
ENDBRANCH   8  22
BRANCH   7  24
ATOM     24  C   UNL     1       2.188   7.063  18.185  0.00  0.00    +0.000 C 
BRANCH  24  25
ATOM     25  C   UNL     1       3.555   6.419  18.246  0.00  0.00    +0.000 A 
ATOM     26  C   UNL     1       4.547   6.713  17.309  0.00  0.00    +0.000 A 
ATOM     27  C   UNL     1       5.769   6.044  17.355  0.00  0.00    +0.000 A 
ATOM     28  C   UNL     1       5.991   5.117  18.362  0.00  0.00    +0.000 A 
ATOM     29  N   UNL     1       7.184   4.403  18.414  0.00  0.00    +0.000 N 
ATOM     30  N   UNL     1       5.067   4.827  19.291  0.00  0.00    +0.000 NA
ATOM     31  C   UNL     1       3.883   5.482  19.221  0.00  0.00    +0.000 A 
ATOM     32  H   UNL     1       7.990   5.015  18.398  0.00  0.00    +0.000 HD
ATOM     33  H   UNL     1       7.155   3.832  19.256  0.00  0.00    +0.000 HD
ENDBRANCH  24  25
ENDBRANCH   7  24
TORSDOF 7
ENDMDL
MODEL 7
REMARK VINA RESULT:      -8.0      1.268      2.710
REMARK  Name = 
REMARK  10 active torsions:
REMARK  status: ('A' for Active; 'I' for Inactive)
REMARK    1  A    between atoms: C_1  and  C_2
REMARK    2  A    between atoms: C_2  and  C_3
REMARK    3  A    between atoms: C_2  and  C_4
REMARK    4  A    between atoms: C_2  and  C_5
REMARK    5  A    between atoms: C_9  and  C_10
REMARK    6  A    between atoms: C_10  and  N_11
REMARK    7  A    between atoms: N_11  and  C_12
REMARK    8  A    between atoms: C_18  and  C_19
REMARK    9  A    between atoms: C_19  and  C_20
REMARK   10  A    between atoms: C_27  and  O_28
REMARK                            x       y       z     vdW  Elec       q    Type
REMARK                         _______ _______ _______ _____ _____    ______ ____
ROOT
ATOM      1  C   UNL     1       1.117   8.966  19.769  0.00  0.00    +0.000 C 
ATOM      2  C   UNL     1       1.500   9.219  21.220  0.00  0.00    +0.000 C 
ATOM      3  S   UNL     1       0.041   9.355  22.210  0.00  0.00    +0.000 S 
ATOM      4  O   UNL     1       0.444   9.688  23.562  0.00  0.00    +0.000 OA
ATOM      5  O   UNL     1      -0.805   8.210  21.942  0.00  0.00    +0.000 OA
ATOM      6  C   UNL     1      -0.717  10.784  21.499  0.00  0.00    +0.000 C 
ATOM      7  C   UNL     1      -0.909  10.679  19.985  0.00  0.00    +0.000 C 
ATOM      8  C   UNL     1       0.320  10.171  19.186  0.00  0.00    +0.000 C 
ENDROOT
BRANCH   1   9
ATOM      9  N   UNL     1       2.317   8.784  18.916  0.00  0.00    +0.000 NA
ATOM     10  H   UNL     1       2.615   9.701  18.566  0.00  0.00    +0.000 HD
BRANCH   9  11
ATOM     11  C   UNL     1       2.103   7.885  17.781  0.00  0.00    +0.000 C 
BRANCH  11  16
ATOM     12  C   UNL     1       3.185   4.220  18.350  0.00  0.00    +0.000 A 
ATOM     13  C   UNL     1       4.489   4.291  17.833  0.00  0.00    +0.000 A 
ATOM     14  C   UNL     1       5.003   5.485  17.324  0.00  0.00    +0.000 A 
ATOM     15  C   UNL     1       4.234   6.641  17.337  0.00  0.00    +0.000 A 
ATOM     16  C   UNL     1       2.930   6.621  17.846  0.00  0.00    +0.000 A 
ATOM     17  C   UNL     1       2.411   5.399  18.315  0.00  0.00    +0.000 A 
BRANCH  12  19
ATOM     18  C   UNL     1       2.663   2.920  20.516  0.00  0.00    +0.000 C 
ATOM     19  C   UNL     1       2.610   2.934  18.972  0.00  0.00    +0.000 C 
ATOM     20  C   UNL     1       3.387   1.697  18.475  0.00  0.00    +0.000 C 
ATOM     21  C   UNL     1       1.127   2.795  18.565  0.00  0.00    +0.000 C 
ENDBRANCH  12  19
ENDBRANCH  11  16
ENDBRANCH   9  11
ENDBRANCH   1   9
BRANCH   8  22
ATOM     22  O   UNL     1      -0.132   9.823  17.863  0.00  0.00    +0.000 OA
ATOM     23  H   UNL     1       0.468  10.231  17.213  0.00  0.00    +0.000 HD
ENDBRANCH   8  22
BRANCH   7  24
ATOM     24  C   UNL     1      -1.435  12.035  19.417  0.00  0.00    +0.000 C 
BRANCH  24  25
ATOM     25  C   UNL     1      -2.859  12.032  18.909  0.00  0.00    +0.000 A 
ATOM     26  C   UNL     1      -3.922  12.463  19.704  0.00  0.00    +0.000 A 
ATOM     27  C   UNL     1      -5.229  12.376  19.226  0.00  0.00    +0.000 A 
ATOM     28  C   UNL     1      -5.446  11.892  17.945  0.00  0.00    +0.000 A 
ATOM     29  N   UNL     1      -6.740  11.755  17.452  0.00  0.00    +0.000 N 
ATOM     30  N   UNL     1      -4.445  11.490  17.147  0.00  0.00    +0.000 NA
ATOM     31  C   UNL     1      -3.184  11.574  17.635  0.00  0.00    +0.000 A 
ATOM     32  H   UNL     1      -7.267  12.615  17.533  0.00  0.00    +0.000 HD
ATOM     33  H   UNL     1      -6.661  11.444  16.487  0.00  0.00    +0.000 HD
ENDBRANCH  24  25
ENDBRANCH   7  24
TORSDOF 7
ENDMDL
MODEL 8
REMARK VINA RESULT:      -7.9      2.699      3.988
REMARK  Name = 
REMARK  10 active torsions:
REMARK  status: ('A' for Active; 'I' for Inactive)
REMARK    1  A    between atoms: C_1  and  C_2
REMARK    2  A    between atoms: C_2  and  C_3
REMARK    3  A    between atoms: C_2  and  C_4
REMARK    4  A    between atoms: C_2  and  C_5
REMARK    5  A    between atoms: C_9  and  C_10
REMARK    6  A    between atoms: C_10  and  N_11
REMARK    7  A    between atoms: N_11  and  C_12
REMARK    8  A    between atoms: C_18  and  C_19
REMARK    9  A    between atoms: C_19  and  C_20
REMARK   10  A    between atoms: C_27  and  O_28
REMARK                            x       y       z     vdW  Elec       q    Type
REMARK                         _______ _______ _______ _____ _____    ______ ____
ROOT
ATOM      1  C   UNL     1       1.056   9.904  19.575  0.00  0.00    +0.000 C 
ATOM      2  C   UNL     1      -0.005  10.150  18.512  0.00  0.00    +0.000 C 
ATOM      3  S   UNL     1      -0.645  11.791  18.673  0.00  0.00    +0.000 S 
ATOM      4  O   UNL     1      -1.713  11.954  17.708  0.00  0.00    +0.000 OA
ATOM      5  O   UNL     1       0.470  12.716  18.720  0.00  0.00    +0.000 OA
ATOM      6  C   UNL     1      -1.370  11.714  20.282  0.00  0.00    +0.000 C 
ATOM      7  C   UNL     1      -0.399  11.235  21.363  0.00  0.00    +0.000 C 
ATOM      8  C   UNL     1       0.439   9.980  21.004  0.00  0.00    +0.000 C 
ENDROOT
BRANCH   1   9
ATOM      9  N   UNL     1       1.661   8.557  19.434  0.00  0.00    +0.000 NA
ATOM     10  H   UNL     1       2.422   8.463  20.115  0.00  0.00    +0.000 HD
BRANCH   9  11
ATOM     11  C   UNL     1       2.181   8.281  18.094  0.00  0.00    +0.000 C 
BRANCH  11  16
ATOM     12  C   UNL     1       5.107   5.761  17.966  0.00  0.00    +0.000 A 
ATOM     13  C   UNL     1       4.370   4.565  17.947  0.00  0.00    +0.000 A 
ATOM     14  C   UNL     1       2.974   4.575  17.967  0.00  0.00    +0.000 A 
ATOM     15  C   UNL     1       2.281   5.778  17.989  0.00  0.00    +0.000 A 
ATOM     16  C   UNL     1       2.972   6.995  18.004  0.00  0.00    +0.000 A 
ATOM     17  C   UNL     1       4.379   6.968  18.028  0.00  0.00    +0.000 A 
BRANCH  12  19
ATOM     18  C   UNL     1       7.231   4.672  16.988  0.00  0.00    +0.000 C 
ATOM     19  C   UNL     1       6.644   5.786  17.885  0.00  0.00    +0.000 C 
ATOM     20  C   UNL     1       7.265   5.621  19.287  0.00  0.00    +0.000 C 
ATOM     21  C   UNL     1       7.097   7.137  17.289  0.00  0.00    +0.000 C 
ENDBRANCH  12  19
ENDBRANCH  11  16
ENDBRANCH   9  11
ENDBRANCH   1   9
BRANCH   8  22
ATOM     22  O   UNL     1       1.505   9.876  21.968  0.00  0.00    +0.000 OA
ATOM     23  H   UNL     1       1.640   8.934  22.180  0.00  0.00    +0.000 HD
ENDBRANCH   8  22
BRANCH   7  24
ATOM     24  C   UNL     1      -1.156  11.044  22.716  0.00  0.00    +0.000 C 
BRANCH  24  25
ATOM     25  C   UNL     1      -1.893  12.257  23.238  0.00  0.00    +0.000 A 
ATOM     26  C   UNL     1      -1.258  13.490  23.393  0.00  0.00    +0.000 A 
ATOM     27  C   UNL     1      -1.952  14.566  23.946  0.00  0.00    +0.000 A 
ATOM     28  C   UNL     1      -3.281  14.397  24.302  0.00  0.00    +0.000 A 
ATOM     29  N   UNL     1      -3.991  15.438  24.893  0.00  0.00    +0.000 N 
ATOM     30  N   UNL     1      -3.927  13.231  24.146  0.00  0.00    +0.000 NA
ATOM     31  C   UNL     1      -3.232  12.197  23.616  0.00  0.00    +0.000 A 
ATOM     32  H   UNL     1      -3.941  16.287  24.345  0.00  0.00    +0.000 HD
ATOM     33  H   UNL     1      -4.949  15.117  25.013  0.00  0.00    +0.000 HD
ENDBRANCH  24  25
ENDBRANCH   7  24
TORSDOF 7
ENDMDL
MODEL 9
REMARK VINA RESULT:      -7.9      3.092      4.747
REMARK  Name = 
REMARK  10 active torsions:
REMARK  status: ('A' for Active; 'I' for Inactive)
REMARK    1  A    between atoms: C_1  and  C_2
REMARK    2  A    between atoms: C_2  and  C_3
REMARK    3  A    between atoms: C_2  and  C_4
REMARK    4  A    between atoms: C_2  and  C_5
REMARK    5  A    between atoms: C_9  and  C_10
REMARK    6  A    between atoms: C_10  and  N_11
REMARK    7  A    between atoms: N_11  and  C_12
REMARK    8  A    between atoms: C_18  and  C_19
REMARK    9  A    between atoms: C_19  and  C_20
REMARK   10  A    between atoms: C_27  and  O_28
REMARK                            x       y       z     vdW  Elec       q    Type
REMARK                         _______ _______ _______ _____ _____    ______ ____
ROOT
ATOM      1  C   UNL     1       0.934  10.038  19.781  0.00  0.00    +0.000 C 
ATOM      2  C   UNL     1      -0.124  10.247  18.707  0.00  0.00    +0.000 C 
ATOM      3  S   UNL     1      -0.818  11.867  18.856  0.00  0.00    +0.000 S 
ATOM      4  O   UNL     1      -1.882  11.992  17.881  0.00  0.00    +0.000 OA
ATOM      5  O   UNL     1       0.266  12.827  18.909  0.00  0.00    +0.000 OA
ATOM      6  C   UNL     1      -1.555  11.772  20.459  0.00  0.00    +0.000 C 
ATOM      7  C   UNL     1      -0.579  11.329  21.550  0.00  0.00    +0.000 C 
ATOM      8  C   UNL     1       0.302  10.100  21.204  0.00  0.00    +0.000 C 
ENDROOT
BRANCH   1   9
ATOM      9  N   UNL     1       1.583   8.711  19.651  0.00  0.00    +0.000 NA
ATOM     10  H   UNL     1       2.358   8.654  20.321  0.00  0.00    +0.000 HD
BRANCH   9  11
ATOM     11  C   UNL     1       2.091   8.432  18.307  0.00  0.00    +0.000 C 
BRANCH  11  16
ATOM     12  C   UNL     1       2.812   4.648  18.604  0.00  0.00    +0.000 A 
ATOM     13  C   UNL     1       3.962   4.577  17.800  0.00  0.00    +0.000 A 
ATOM     14  C   UNL     1       4.490   5.716  17.190  0.00  0.00    +0.000 A 
ATOM     15  C   UNL     1       3.893   6.955  17.381  0.00  0.00    +0.000 A 
ATOM     16  C   UNL     1       2.748   7.076  18.177  0.00  0.00    +0.000 A 
ATOM     17  C   UNL     1       2.202   5.912  18.750  0.00  0.00    +0.000 A 
BRANCH  12  19
ATOM     18  C   UNL     1       1.104   2.715  18.564  0.00  0.00    +0.000 C 
ATOM     19  C   UNL     1       2.240   3.421  19.338  0.00  0.00    +0.000 C 
ATOM     20  C   UNL     1       1.674   3.827  20.714  0.00  0.00    +0.000 C 
ATOM     21  C   UNL     1       3.366   2.384  19.541  0.00  0.00    +0.000 C 
ENDBRANCH  12  19
ENDBRANCH  11  16
ENDBRANCH   9  11
ENDBRANCH   1   9
BRANCH   8  22
ATOM     22  O   UNL     1       1.362  10.034  22.178  0.00  0.00    +0.000 OA
ATOM     23  H   UNL     1       0.967  10.056  23.068  0.00  0.00    +0.000 HD
ENDBRANCH   8  22
BRANCH   7  24
ATOM     24  C   UNL     1      -1.342  11.119  22.897  0.00  0.00    +0.000 C 
BRANCH  24  25
ATOM     25  C   UNL     1      -2.106  12.316  23.417  0.00  0.00    +0.000 A 
ATOM     26  C   UNL     1      -3.446  12.223  23.796  0.00  0.00    +0.000 A 
ATOM     27  C   UNL     1      -4.136  13.364  24.202  0.00  0.00    +0.000 A 
ATOM     28  C   UNL     1      -3.462  14.574  24.255  0.00  0.00    +0.000 A 
ATOM     29  N   UNL     1      -4.131  15.740  24.617  0.00  0.00    +0.000 N 
ATOM     30  N   UNL     1      -2.168  14.694  23.919  0.00  0.00    +0.000 NA
ATOM     31  C   UNL     1      -1.520  13.574  23.519  0.00  0.00    +0.000 A 
ATOM     32  H   UNL     1      -4.616  15.636  25.499  0.00  0.00    +0.000 HD
ATOM     33  H   UNL     1      -3.439  16.485  24.647  0.00  0.00    +0.000 HD
ENDBRANCH  24  25
ENDBRANCH   7  24
TORSDOF 7
ENDMDL
