MODEL 1
REMARK VINA RESULT:      -8.1      0.000      0.000
REMARK  Name = 
REMARK  5 active torsions:
REMARK  status: ('A' for Active; 'I' for Inactive)
REMARK    1  A    between atoms: C_1  and  C_2
REMARK    2  A    between atoms: C_7  and  N_8
REMARK    3  A    between atoms: C_10  and  C_11
REMARK    4  A    between atoms: C_11  and  N_12
REMARK    5  A    between atoms: N_12  and  C_13
REMARK                            x       y       z     vdW  Elec       q    Type
REMARK                         _______ _______ _______ _____ _____    ______ ____
ROOT
ATOM      1  N   UNL     1       1.897   7.494  21.097  0.00  0.00    +0.000 NA
ATOM      2  H   UNL     1       2.606   7.754  20.412  0.00  0.00    +0.000 HD
ENDROOT
BRANCH   1   3
ATOM      3  C   UNL     1       0.782   8.469  21.057  0.00  0.00    +0.000 C 
ATOM      4  C   UNL     1       0.743   9.269  22.380  0.00  0.00    +0.000 C 
ATOM      5  C   UNL     1      -0.323  10.377  22.361  0.00  0.00    +0.000 C 
ATOM      6  C   UNL     1      -0.224  11.272  21.119  0.00  0.00    +0.000 C 
ATOM      7  N   UNL     1      -0.221  10.414  19.954  0.00  0.00    +0.000 N 
ATOM      8  C   UNL     1      -1.018  10.640  18.862  0.00  0.00    +0.000 A 
ATOM      9  N   UNL     1      -1.721  11.778  18.779  0.00  0.00    +0.000 NA
ATOM     10  C   UNL     1      -2.493  11.954  17.687  0.00  0.00    +0.000 A 
ATOM     11  C   UNL     1      -2.613  11.032  16.680  0.00  0.00    +0.000 A 
ATOM     12  C   UNL     1      -1.876   9.894  16.850  0.00  0.00    +0.000 A 
ATOM     13  N   UNL     1      -1.079   9.685  17.912  0.00  0.00    +0.000 NA
ATOM     14  C   UNL     1       0.857   9.451  19.862  0.00  0.00    +0.000 C 
ENDBRANCH   1   3
BRANCH   1  15
ATOM     15  C   UNL     1       1.417   6.142  20.795  0.00  0.00    +0.000 C 
BRANCH  15  18
ATOM     16  N   UNL     1       4.060   4.573  18.765  0.00  0.00    +0.000 N 
ATOM     17  C   UNL     1       3.238   5.657  19.003  0.00  0.00    +0.000 A 
ATOM     18  C   UNL     1       2.455   5.351  20.095  0.00  0.00    +0.000 A 
ATOM     19  C   UNL     1       2.883   4.059  20.461  0.00  0.00    +0.000 A 
ATOM     20  N   UNL     1       3.809   3.570  19.642  0.00  0.00    +0.000 NA
BRANCH  16  27
ATOM     21  C   UNL     1       6.873   5.419  19.407  0.00  0.00    +0.000 C 
ATOM     22  C   UNL     1       6.413   4.922  18.061  0.00  0.00    +0.000 A 
ATOM     23  C   UNL     1       7.362   4.857  17.026  0.00  0.00    +0.000 A 
ATOM     24  C   UNL     1       7.028   4.348  15.771  0.00  0.00    +0.000 A 
ATOM     25  C   UNL     1       5.740   3.886  15.527  0.00  0.00    +0.000 A 
ATOM     26  C   UNL     1       4.778   3.942  16.535  0.00  0.00    +0.000 A 
ATOM     27  C   UNL     1       5.097   4.475  17.798  0.00  0.00    +0.000 A 
ENDBRANCH  16  27
ENDBRANCH  15  18
ENDBRANCH   1  15
TORSDOF 4
ENDMDL
MODEL 2
REMARK VINA RESULT:      -8.0      1.015      1.346
REMARK  Name = 
REMARK  5 active torsions:
REMARK  status: ('A' for Active; 'I' for Inactive)
REMARK    1  A    between atoms: C_1  and  C_2
REMARK    2  A    between atoms: C_7  and  N_8
REMARK    3  A    between atoms: C_10  and  C_11
REMARK    4  A    between atoms: C_11  and  N_12
REMARK    5  A    between atoms: N_12  and  C_13
REMARK                            x       y       z     vdW  Elec       q    Type
REMARK                         _______ _______ _______ _____ _____    ______ ____
ROOT
ATOM      1  N   UNL     1       1.794   7.869  21.462  0.00  0.00    +0.000 NA
ATOM      2  H   UNL     1       2.573   8.402  21.075  0.00  0.00    +0.000 HD
ENDROOT
BRANCH   1   3
ATOM      3  C   UNL     1       0.567   8.700  21.455  0.00  0.00    +0.000 C 
ATOM      4  C   UNL     1       0.397   9.389  22.829  0.00  0.00    +0.000 C 
ATOM      5  C   UNL     1      -0.798  10.356  22.853  0.00  0.00    +0.000 C 
ATOM      6  C   UNL     1      -0.782  11.346  21.682  0.00  0.00    +0.000 C 
ATOM      7  N   UNL     1      -0.644  10.585  20.460  0.00  0.00    +0.000 N 
ATOM      8  C   UNL     1      -1.437  10.791  19.361  0.00  0.00    +0.000 A 
ATOM      9  N   UNL     1      -2.274  11.837  19.336  0.00  0.00    +0.000 NA
ATOM     10  C   UNL     1      -3.036  11.998  18.235  0.00  0.00    +0.000 A 
ATOM     11  C   UNL     1      -3.016  11.146  17.161  0.00  0.00    +0.000 A 
ATOM     12  C   UNL     1      -2.147  10.097  17.274  0.00  0.00    +0.000 A 
ATOM     13  N   UNL     1      -1.356   9.910  18.344  0.00  0.00    +0.000 NA
ATOM     14  C   UNL     1       0.548   9.771  20.335  0.00  0.00    +0.000 C 
ENDBRANCH   1   3
BRANCH   1  15
ATOM     15  C   UNL     1       1.605   6.655  20.663  0.00  0.00    +0.000 C 
BRANCH  15  18
ATOM     16  N   UNL     1       4.152   6.078  18.065  0.00  0.00    +0.000 N 
ATOM     17  C   UNL     1       3.531   5.662  19.226  0.00  0.00    +0.000 A 
ATOM     18  C   UNL     1       2.571   6.599  19.542  0.00  0.00    +0.000 A 
ATOM     19  C   UNL     1       2.676   7.546  18.504  0.00  0.00    +0.000 A 
ATOM     20  N   UNL     1       3.649   7.265  17.643  0.00  0.00    +0.000 NA
BRANCH  16  27
ATOM     21  C   UNL     1       6.932   5.687  19.141  0.00  0.00    +0.000 C 
ATOM     22  C   UNL     1       6.468   5.237  17.780  0.00  0.00    +0.000 A 
ATOM     23  C   UNL     1       7.402   4.597  16.947  0.00  0.00    +0.000 A 
ATOM     24  C   UNL     1       7.031   4.094  15.700  0.00  0.00    +0.000 A 
ATOM     25  C   UNL     1       5.718   4.215  15.262  0.00  0.00    +0.000 A 
ATOM     26  C   UNL     1       4.772   4.850  16.067  0.00  0.00    +0.000 A 
ATOM     27  C   UNL     1       5.139   5.380  17.318  0.00  0.00    +0.000 A 
ENDBRANCH  16  27
ENDBRANCH  15  18
ENDBRANCH   1  15
TORSDOF 4
ENDMDL
MODEL 3
REMARK VINA RESULT:      -7.9      6.512      9.945
REMARK  Name = 
REMARK  5 active torsions:
REMARK  status: ('A' for Active; 'I' for Inactive)
REMARK    1  A    between atoms: C_1  and  C_2
REMARK    2  A    between atoms: C_7  and  N_8
REMARK    3  A    between atoms: C_10  and  C_11
REMARK    4  A    between atoms: C_11  and  N_12
REMARK    5  A    between atoms: N_12  and  C_13
REMARK                            x       y       z     vdW  Elec       q    Type
REMARK                         _______ _______ _______ _____ _____    ______ ____
ROOT
ATOM      1  N   UNL     1       8.326   7.530  18.762  0.00  0.00    +0.000 NA
ATOM      2  H   UNL     1       7.905   7.716  19.673  0.00  0.00    +0.000 HD
ENDROOT
BRANCH   1   3
ATOM      3  C   UNL     1       7.700   6.331  18.157  0.00  0.00    +0.000 C 
ATOM      4  C   UNL     1       6.712   5.697  19.164  0.00  0.00    +0.000 C 
ATOM      5  C   UNL     1       5.942   4.510  18.559  0.00  0.00    +0.000 C 
ATOM      6  C   UNL     1       5.293   4.852  17.212  0.00  0.00    +0.000 C 
ATOM      7  N   UNL     1       6.316   5.410  16.356  0.00  0.00    +0.000 N 
ATOM      8  C   UNL     1       6.508   5.000  15.061  0.00  0.00    +0.000 A 
ATOM      9  N   UNL     1       5.628   4.165  14.494  0.00  0.00    +0.000 NA
ATOM     10  C   UNL     1       5.860   3.788  13.220  0.00  0.00    +0.000 A 
ATOM     11  C   UNL     1       6.948   4.192  12.491  0.00  0.00    +0.000 A 
ATOM     12  C   UNL     1       7.804   5.029  13.148  0.00  0.00    +0.000 A 
ATOM     13  N   UNL     1       7.602   5.445  14.410  0.00  0.00    +0.000 NA
ATOM     14  C   UNL     1       6.965   6.617  16.824  0.00  0.00    +0.000 C 
ENDBRANCH   1   3
BRANCH   1  15
ATOM     15  C   UNL     1       8.138   8.703  17.904  0.00  0.00    +0.000 C 
BRANCH  15  18
ATOM     16  N   UNL     1       9.745  11.870  18.880  0.00  0.00    +0.000 N 
ATOM     17  C   UNL     1       9.179  11.086  17.895  0.00  0.00    +0.000 A 
ATOM     18  C   UNL     1       8.801   9.896  18.478  0.00  0.00    +0.000 A 
ATOM     19  C   UNL     1       9.170  10.055  19.829  0.00  0.00    +0.000 A 
ATOM     20  N   UNL     1       9.776  11.215  20.066  0.00  0.00    +0.000 NA
BRANCH  16  27
ATOM     21  C   UNL     1       7.880  14.059  18.001  0.00  0.00    +0.000 C 
ATOM     22  C   UNL     1       9.347  14.247  18.292  0.00  0.00    +0.000 A 
ATOM     23  C   UNL     1       9.887  15.535  18.133  0.00  0.00    +0.000 A 
ATOM     24  C   UNL     1      11.220  15.802  18.445  0.00  0.00    +0.000 A 
ATOM     25  C   UNL     1      12.038  14.789  18.930  0.00  0.00    +0.000 A 
ATOM     26  C   UNL     1      11.529  13.501  19.093  0.00  0.00    +0.000 A 
ATOM     27  C   UNL     1      10.192  13.215  18.761  0.00  0.00    +0.000 A 
ENDBRANCH  16  27
ENDBRANCH  15  18
ENDBRANCH   1  15
TORSDOF 4
ENDMDL
MODEL 4
REMARK VINA RESULT:      -7.9      6.607     10.001
REMARK  Name = 
REMARK  5 active torsions:
REMARK  status: ('A' for Active; 'I' for Inactive)
REMARK    1  A    between atoms: C_1  and  C_2
REMARK    2  A    between atoms: C_7  and  N_8
REMARK    3  A    between atoms: C_10  and  C_11
REMARK    4  A    between atoms: C_11  and  N_12
REMARK    5  A    between atoms: N_12  and  C_13
REMARK                            x       y       z     vdW  Elec       q    Type
REMARK                         _______ _______ _______ _____ _____    ______ ____
ROOT
ATOM      1  N   UNL     1       8.264   7.671  18.761  0.00  0.00    +0.000 NA
ATOM      2  H   UNL     1       7.759   7.894  19.619  0.00  0.00    +0.000 HD
ENDROOT
BRANCH   1   3
ATOM      3  C   UNL     1       7.738   6.412  18.184  0.00  0.00    +0.000 C 
ATOM      4  C   UNL     1       6.846   5.696  19.225  0.00  0.00    +0.000 C 
ATOM      5  C   UNL     1       6.176   4.436  18.651  0.00  0.00    +0.000 C 
ATOM      6  C   UNL     1       5.457   4.701  17.323  0.00  0.00    +0.000 C 
ATOM      7  N   UNL     1       6.396   5.347  16.431  0.00  0.00    +0.000 N 
ATOM      8  C   UNL     1       6.587   4.946  15.134  0.00  0.00    +0.000 A 
ATOM      9  N   UNL     1       5.774   4.025  14.600  0.00  0.00    +0.000 NA
ATOM     10  C   UNL     1       6.003   3.660  13.322  0.00  0.00    +0.000 A 
ATOM     11  C   UNL     1       7.025   4.159  12.557  0.00  0.00    +0.000 A 
ATOM     12  C   UNL     1       7.816   5.081  13.182  0.00  0.00    +0.000 A 
ATOM     13  N   UNL     1       7.613   5.487  14.447  0.00  0.00    +0.000 NA
ATOM     14  C   UNL     1       6.939   6.615  16.872  0.00  0.00    +0.000 C 
ENDBRANCH   1   3
BRANCH   1  15
ATOM     15  C   UNL     1       8.110   8.782  17.817  0.00  0.00    +0.000 C 
BRANCH  15  18
ATOM     16  N   UNL     1       9.378  12.106  18.765  0.00  0.00    +0.000 N 
ATOM     17  C   UNL     1       8.689  11.316  17.868  0.00  0.00    +0.000 A 
ATOM     18  C   UNL     1       8.702  10.027  18.355  0.00  0.00    +0.000 A 
ATOM     19  C   UNL     1       9.416  10.136  19.565  0.00  0.00    +0.000 A 
ATOM     20  N   UNL     1       9.863  11.367  19.793  0.00  0.00    +0.000 NA
BRANCH  16  27
ATOM     21  C   UNL     1      11.793  13.360  17.485  0.00  0.00    +0.000 C 
ATOM     22  C   UNL     1      10.695  14.125  18.178  0.00  0.00    +0.000 A 
ATOM     23  C   UNL     1      10.810  15.525  18.242  0.00  0.00    +0.000 A 
ATOM     24  C   UNL     1       9.804  16.306  18.809  0.00  0.00    +0.000 A 
ATOM     25  C   UNL     1       8.659  15.706  19.319  0.00  0.00    +0.000 A 
ATOM     26  C   UNL     1       8.522  14.319  19.273  0.00  0.00    +0.000 A 
ATOM     27  C   UNL     1       9.540  13.519  18.722  0.00  0.00    +0.000 A 
ENDBRANCH  16  27
ENDBRANCH  15  18
ENDBRANCH   1  15
TORSDOF 4
ENDMDL
MODEL 5
REMARK VINA RESULT:      -7.8      2.474      3.842
REMARK  Name = 
REMARK  5 active torsions:
REMARK  status: ('A' for Active; 'I' for Inactive)
REMARK    1  A    between atoms: C_1  and  C_2
REMARK    2  A    between atoms: C_7  and  N_8
REMARK    3  A    between atoms: C_10  and  C_11
REMARK    4  A    between atoms: C_11  and  N_12
REMARK    5  A    between atoms: N_12  and  C_13
REMARK                            x       y       z     vdW  Elec       q    Type
REMARK                         _______ _______ _______ _____ _____    ______ ____
ROOT
ATOM      1  N   UNL     1      -0.348  10.190  17.970  0.00  0.00    +0.000 NA
ATOM      2  H   UNL     1      -0.535   9.206  17.774  0.00  0.00    +0.000 HD
ENDROOT
BRANCH   1   3
ATOM      3  C   UNL     1      -1.340  10.704  18.943  0.00  0.00    +0.000 C 
ATOM      4  C   UNL     1      -0.609  11.426  20.098  0.00  0.00    +0.000 C 
ATOM      5  C   UNL     1      -1.587  12.082  21.088  0.00  0.00    +0.000 C 
ATOM      6  C   UNL     1      -2.632  12.963  20.392  0.00  0.00    +0.000 C 
ATOM      7  N   UNL     1      -3.259  12.173  19.355  0.00  0.00    +0.000 N 
ATOM      8  C   UNL     1      -4.618  12.108  19.188  0.00  0.00    +0.000 A 
ATOM      9  N   UNL     1      -5.411  12.922  19.898  0.00  0.00    +0.000 NA
ATOM     10  C   UNL     1      -6.742  12.820  19.701  0.00  0.00    +0.000 A 
ATOM     11  C   UNL     1      -7.320  11.924  18.840  0.00  0.00    +0.000 A 
ATOM     12  C   UNL     1      -6.441  11.122  18.167  0.00  0.00    +0.000 A 
ATOM     13  N   UNL     1      -5.109  11.203  18.318  0.00  0.00    +0.000 NA
ATOM     14  C   UNL     1      -2.388  11.658  18.318  0.00  0.00    +0.000 C 
ENDBRANCH   1   3
BRANCH   1  15
ATOM     15  C   UNL     1       1.013  10.318  18.499  0.00  0.00    +0.000 C 
BRANCH  15  18
ATOM     16  N   UNL     1       2.757   7.079  18.322  0.00  0.00    +0.000 N 
ATOM     17  C   UNL     1       2.319   8.222  17.684  0.00  0.00    +0.000 A 
ATOM     18  C   UNL     1       1.665   8.994  18.620  0.00  0.00    +0.000 A 
ATOM     19  C   UNL     1       1.769   8.239  19.805  0.00  0.00    +0.000 A 
ATOM     20  N   UNL     1       2.380   7.073  19.624  0.00  0.00    +0.000 NA
BRANCH  16  27
ATOM     21  C   UNL     1       1.614   4.353  17.772  0.00  0.00    +0.000 C 
ATOM     22  C   UNL     1       3.057   4.736  17.564  0.00  0.00    +0.000 A 
ATOM     23  C   UNL     1       3.936   3.747  17.088  0.00  0.00    +0.000 A 
ATOM     24  C   UNL     1       5.270   4.042  16.809  0.00  0.00    +0.000 A 
ATOM     25  C   UNL     1       5.752   5.333  16.994  0.00  0.00    +0.000 A 
ATOM     26  C   UNL     1       4.902   6.331  17.469  0.00  0.00    +0.000 A 
ATOM     27  C   UNL     1       3.560   6.040  17.774  0.00  0.00    +0.000 A 
ENDBRANCH  16  27
ENDBRANCH  15  18
ENDBRANCH   1  15
TORSDOF 4
ENDMDL
MODEL 6
REMARK VINA RESULT:      -7.7      2.129      9.115
REMARK  Name = 
REMARK  5 active torsions:
REMARK  status: ('A' for Active; 'I' for Inactive)
REMARK    1  A    between atoms: C_1  and  C_2
REMARK    2  A    between atoms: C_7  and  N_8
REMARK    3  A    between atoms: C_10  and  C_11
REMARK    4  A    between atoms: C_11  and  N_12
REMARK    5  A    between atoms: N_12  and  C_13
REMARK                            x       y       z     vdW  Elec       q    Type
REMARK                         _______ _______ _______ _____ _____    ______ ____
ROOT
ATOM      1  N   UNL     1       1.948   6.537  20.976  0.00  0.00    +0.000 NA
ATOM      2  H   UNL     1       1.071   6.264  21.421  0.00  0.00    +0.000 HD
ENDROOT
BRANCH   1   3
ATOM      3  C   UNL     1       2.433   5.437  20.111  0.00  0.00    +0.000 C 
ATOM      4  C   UNL     1       1.309   4.392  19.918  0.00  0.00    +0.000 C 
ATOM      5  C   UNL     1       1.710   3.277  18.938  0.00  0.00    +0.000 C 
ATOM      6  C   UNL     1       2.258   3.822  17.614  0.00  0.00    +0.000 C 
ATOM      7  N   UNL     1       3.313   4.763  17.924  0.00  0.00    +0.000 N 
ATOM      8  C   UNL     1       4.536   4.741  17.305  0.00  0.00    +0.000 A 
ATOM      9  N   UNL     1       4.733   3.928  16.259  0.00  0.00    +0.000 NA
ATOM     10  C   UNL     1       5.953   3.939  15.684  0.00  0.00    +0.000 A 
ATOM     11  C   UNL     1       6.996   4.713  16.122  0.00  0.00    +0.000 A 
ATOM     12  C   UNL     1       6.715   5.501  17.202  0.00  0.00    +0.000 A 
ATOM     13  N   UNL     1       5.509   5.535  17.794  0.00  0.00    +0.000 NA
ATOM     14  C   UNL     1       2.940   5.910  18.726  0.00  0.00    +0.000 C 
ENDBRANCH   1   3
BRANCH   1  15
ATOM     15  C   UNL     1       1.723   7.755  20.191  0.00  0.00    +0.000 C 
BRANCH  15  18
ATOM     16  N   UNL     1      -0.047  10.523  21.856  0.00  0.00    +0.000 N 
ATOM     17  C   UNL     1       0.185   9.786  20.712  0.00  0.00    +0.000 A 
ATOM     18  C   UNL     1       1.119   8.821  21.022  0.00  0.00    +0.000 A 
ATOM     19  C   UNL     1       1.388   9.045  22.387  0.00  0.00    +0.000 A 
ATOM     20  N   UNL     1       0.729  10.089  22.880  0.00  0.00    +0.000 NA
BRANCH  16  27
ATOM     21  C   UNL     1      -0.143  12.885  19.999  0.00  0.00    +0.000 C 
ATOM     22  C   UNL     1      -1.025  12.708  21.207  0.00  0.00    +0.000 A 
ATOM     23  C   UNL     1      -1.954  13.723  21.496  0.00  0.00    +0.000 A 
ATOM     24  C   UNL     1      -2.849  13.601  22.558  0.00  0.00    +0.000 A 
ATOM     25  C   UNL     1      -2.839  12.460  23.351  0.00  0.00    +0.000 A 
ATOM     26  C   UNL     1      -1.924  11.440  23.089  0.00  0.00    +0.000 A 
ATOM     27  C   UNL     1      -1.002  11.561  22.033  0.00  0.00    +0.000 A 
ENDBRANCH  16  27
ENDBRANCH  15  18
ENDBRANCH   1  15
TORSDOF 4
ENDMDL
MODEL 7
REMARK VINA RESULT:      -7.6      1.109      1.223
REMARK  Name = 
REMARK  5 active torsions:
REMARK  status: ('A' for Active; 'I' for Inactive)
REMARK    1  A    between atoms: C_1  and  C_2
REMARK    2  A    between atoms: C_7  and  N_8
REMARK    3  A    between atoms: C_10  and  C_11
REMARK    4  A    between atoms: C_11  and  N_12
REMARK    5  A    between atoms: N_12  and  C_13
REMARK                            x       y       z     vdW  Elec       q    Type
REMARK                         _______ _______ _______ _____ _____    ______ ____
ROOT
ATOM      1  N   UNL     1       2.084   8.235  19.493  0.00  0.00    +0.000 NA
ATOM      2  H   UNL     1       2.160   8.141  18.480  0.00  0.00    +0.000 HD
ENDROOT
BRANCH   1   3
ATOM      3  C   UNL     1       0.792   8.873  19.841  0.00  0.00    +0.000 C 
ATOM      4  C   UNL     1       0.876   9.475  21.263  0.00  0.00    +0.000 C 
ATOM      5  C   UNL     1      -0.396  10.250  21.645  0.00  0.00    +0.000 C 
ATOM      6  C   UNL     1      -0.805  11.276  20.581  0.00  0.00    +0.000 C 
ATOM      7  N   UNL     1      -0.872  10.592  19.308  0.00  0.00    +0.000 N 
ATOM      8  C   UNL     1      -1.933  10.719  18.449  0.00  0.00    +0.000 A 
ATOM      9  N   UNL     1      -2.884  11.628  18.703  0.00  0.00    +0.000 NA
ATOM     10  C   UNL     1      -3.910  11.715  17.831  0.00  0.00    +0.000 A 
ATOM     11  C   UNL     1      -4.040  10.918  16.724  0.00  0.00    +0.000 A 
ATOM     12  C   UNL     1      -3.036  10.008  16.547  0.00  0.00    +0.000 A 
ATOM     13  N   UNL     1      -1.987   9.900  17.380  0.00  0.00    +0.000 NA
ATOM     14  C   UNL     1       0.351   9.971  18.842  0.00  0.00    +0.000 C 
ENDBRANCH   1   3
BRANCH   1  15
ATOM     15  C   UNL     1       2.189   6.906  20.103  0.00  0.00    +0.000 C 
BRANCH  15  18
ATOM     16  N   UNL     1       4.481   5.110  17.848  0.00  0.00    +0.000 N 
ATOM     17  C   UNL     1       3.729   6.236  18.118  0.00  0.00    +0.000 A 
ATOM     18  C   UNL     1       3.099   6.033  19.327  0.00  0.00    +0.000 A 
ATOM     19  C   UNL     1       3.540   4.755  19.723  0.00  0.00    +0.000 A 
ATOM     20  N   UNL     1       4.330   4.179  18.822  0.00  0.00    +0.000 NA
BRANCH  16  27
ATOM     21  C   UNL     1       7.373   5.915  18.028  0.00  0.00    +0.000 C 
ATOM     22  C   UNL     1       6.719   5.335  16.800  0.00  0.00    +0.000 A 
ATOM     23  C   UNL     1       7.512   5.165  15.652  0.00  0.00    +0.000 A 
ATOM     24  C   UNL     1       6.995   4.576  14.499  0.00  0.00    +0.000 A 
ATOM     25  C   UNL     1       5.677   4.136  14.471  0.00  0.00    +0.000 A 
ATOM     26  C   UNL     1       4.867   4.296  15.595  0.00  0.00    +0.000 A 
ATOM     27  C   UNL     1       5.371   4.910  16.757  0.00  0.00    +0.000 A 
ENDBRANCH  16  27
ENDBRANCH  15  18
ENDBRANCH   1  15
TORSDOF 4
ENDMDL
MODEL 8
REMARK VINA RESULT:      -7.6      1.918      9.241
REMARK  Name = 
REMARK  5 active torsions:
REMARK  status: ('A' for Active; 'I' for Inactive)
REMARK    1  A    between atoms: C_1  and  C_2
REMARK    2  A    between atoms: C_7  and  N_8
REMARK    3  A    between atoms: C_10  and  C_11
REMARK    4  A    between atoms: C_11  and  N_12
REMARK    5  A    between atoms: N_12  and  C_13
REMARK                            x       y       z     vdW  Elec       q    Type
REMARK                         _______ _______ _______ _____ _____    ______ ____
ROOT
ATOM      1  N   UNL     1       1.624   8.577  19.672  0.00  0.00    +0.000 NA
ATOM      2  H   UNL     1       0.737   8.438  20.158  0.00  0.00    +0.000 HD
ENDROOT
BRANCH   1   3
ATOM      3  C   UNL     1       2.350   7.289  19.581  0.00  0.00    +0.000 C 
ATOM      4  C   UNL     1       1.687   6.250  20.515  0.00  0.00    +0.000 C 
ATOM      5  C   UNL     1       2.325   4.856  20.386  0.00  0.00    +0.000 C 
ATOM      6  C   UNL     1       2.419   4.383  18.930  0.00  0.00    +0.000 C 
ATOM      7  N   UNL     1       3.075   5.422  18.167  0.00  0.00    +0.000 N 
ATOM      8  C   UNL     1       4.106   5.170  17.299  0.00  0.00    +0.000 A 
ATOM      9  N   UNL     1       4.434   3.904  17.011  0.00  0.00    +0.000 NA
ATOM     10  C   UNL     1       5.457   3.706  16.155  0.00  0.00    +0.000 A 
ATOM     11  C   UNL     1       6.185   4.719  15.588  0.00  0.00    +0.000 A 
ATOM     12  C   UNL     1       5.796   5.979  15.947  0.00  0.00    +0.000 A 
ATOM     13  N   UNL     1       4.771   6.222  16.781  0.00  0.00    +0.000 NA
ATOM     14  C   UNL     1       2.424   6.716  18.144  0.00  0.00    +0.000 C 
ENDBRANCH   1   3
BRANCH   1  15
ATOM     15  C   UNL     1       1.354   9.118  18.337  0.00  0.00    +0.000 C 
BRANCH  15  18
ATOM     16  N   UNL     1      -1.671  11.217  18.267  0.00  0.00    +0.000 N 
ATOM     17  C   UNL     1      -1.072   9.997  18.022  0.00  0.00    +0.000 A 
ATOM     18  C   UNL     1       0.255  10.109  18.375  0.00  0.00    +0.000 A 
ATOM     19  C   UNL     1       0.367  11.436  18.837  0.00  0.00    +0.000 A 
ATOM     20  N   UNL     1      -0.770  12.117  18.732  0.00  0.00    +0.000 NA
BRANCH  16  27
ATOM     21  C   UNL     1      -3.115  10.897  15.649  0.00  0.00    +0.000 C 
ATOM     22  C   UNL     1      -3.732  11.453  16.906  0.00  0.00    +0.000 A 
ATOM     23  C   UNL     1      -5.076  11.862  16.852  0.00  0.00    +0.000 A 
ATOM     24  C   UNL     1      -5.735  12.326  17.990  0.00  0.00    +0.000 A 
ATOM     25  C   UNL     1      -5.067  12.385  19.207  0.00  0.00    +0.000 A 
ATOM     26  C   UNL     1      -3.733  11.989  19.288  0.00  0.00    +0.000 A 
ATOM     27  C   UNL     1      -3.050  11.540  18.142  0.00  0.00    +0.000 A 
ENDBRANCH  16  27
ENDBRANCH  15  18
ENDBRANCH   1  15
TORSDOF 4
ENDMDL
MODEL 9
REMARK VINA RESULT:      -7.5      2.162      9.131
REMARK  Name = 
REMARK  5 active torsions:
REMARK  status: ('A' for Active; 'I' for Inactive)
REMARK    1  A    between atoms: C_1  and  C_2
REMARK    2  A    between atoms: C_7  and  N_8
REMARK    3  A    between atoms: C_10  and  C_11
REMARK    4  A    between atoms: C_11  and  N_12
REMARK    5  A    between atoms: N_12  and  C_13
REMARK                            x       y       z     vdW  Elec       q    Type
REMARK                         _______ _______ _______ _____ _____    ______ ____
ROOT
ATOM      1  N   UNL     1       2.084   8.738  17.454  0.00  0.00    +0.000 NA
ATOM      2  H   UNL     1       2.722   9.330  16.921  0.00  0.00    +0.000 HD
ENDROOT
BRANCH   1   3
ATOM      3  C   UNL     1       2.703   7.410  17.677  0.00  0.00    +0.000 C 
ATOM      4  C   UNL     1       4.169   7.431  17.187  0.00  0.00    +0.000 C 
ATOM      5  C   UNL     1       4.906   6.115  17.491  0.00  0.00    +0.000 C 
ATOM      6  C   UNL     1       4.767   5.686  18.957  0.00  0.00    +0.000 C 
ATOM      7  N   UNL     1       3.359   5.682  19.287  0.00  0.00    +0.000 N 
ATOM      8  C   UNL     1       2.749   4.638  19.933  0.00  0.00    +0.000 A 
ATOM      9  N   UNL     1       3.494   3.640  20.428  0.00  0.00    +0.000 NA
ATOM     10  C   UNL     1       2.849   2.633  21.052  0.00  0.00    +0.000 A 
ATOM     11  C   UNL     1       1.486   2.567  21.187  0.00  0.00    +0.000 A 
ATOM     12  C   UNL     1       0.801   3.616  20.641  0.00  0.00    +0.000 A 
ATOM     13  N   UNL     1       1.404   4.648  20.027  0.00  0.00    +0.000 NA
ATOM     14  C   UNL     1       2.660   6.943  19.154  0.00  0.00    +0.000 C 
ENDBRANCH   1   3
BRANCH   1  15
ATOM     15  C   UNL     1       1.783   9.393  18.730  0.00  0.00    +0.000 C 
BRANCH  15  18
ATOM     16  N   UNL     1      -1.379  11.232  18.301  0.00  0.00    +0.000 N 
ATOM     17  C   UNL     1      -0.688  10.038  18.242  0.00  0.00    +0.000 A 
ATOM     18  C   UNL     1       0.616  10.296  18.605  0.00  0.00    +0.000 A 
ATOM     19  C   UNL     1       0.619  11.678  18.880  0.00  0.00    +0.000 A 
ATOM     20  N   UNL     1      -0.559  12.252  18.656  0.00  0.00    +0.000 NA
BRANCH  16  27
ATOM     21  C   UNL     1      -2.694  10.535  15.688  0.00  0.00    +0.000 C 
ATOM     22  C   UNL     1      -3.399  11.166  16.862  0.00  0.00    +0.000 A 
ATOM     23  C   UNL     1      -4.766  11.460  16.725  0.00  0.00    +0.000 A 
ATOM     24  C   UNL     1      -5.501  11.985  17.787  0.00  0.00    +0.000 A 
ATOM     25  C   UNL     1      -4.887  12.219  19.012  0.00  0.00    +0.000 A 
ATOM     26  C   UNL     1      -3.530  11.940  19.173  0.00  0.00    +0.000 A 
ATOM     27  C   UNL     1      -2.773  11.431  18.102  0.00  0.00    +0.000 A 
ENDBRANCH  16  27
ENDBRANCH  15  18
ENDBRANCH   1  15
TORSDOF 4
ENDMDL
