MODEL 1
REMARK VINA RESULT:      -9.3      0.000      0.000
REMARK  Name = 
REMARK  4 active torsions:
REMARK  status: ('A' for Active; 'I' for Inactive)
REMARK    1  A    between atoms: C_1  and  C_2
REMARK    2  A    between atoms: C_5  and  N_6
REMARK    3  A    between atoms: C_11  and  C_12
REMARK    4  A    between atoms: C_13  and  C_14
REMARK                            x       y       z     vdW  Elec       q    Type
REMARK                         _______ _______ _______ _____ _____    ______ ____
ROOT
ATOM      1  N   UNL     1       5.794   5.241  15.807  0.00  0.00    +0.000 N 
ATOM      2  N   UNL     1       4.457   5.429  16.212  0.00  0.00    +0.000 NA
ATOM      3  C   UNL     1       4.553   5.535  17.511  0.00  0.00    +0.000 A 
ATOM      4  C   UNL     1       3.520   5.576  18.554  0.00  0.00    +0.000 A 
ATOM      5  C   UNL     1       2.705   6.666  18.848  0.00  0.00    +0.000 A 
ATOM      6  C   UNL     1       2.009   6.672  20.073  0.00  0.00    +0.000 A 
ATOM      7  C   UNL     1       2.000   5.530  20.901  0.00  0.00    +0.000 A 
ATOM      8  C   UNL     1       2.847   4.467  20.620  0.00  0.00    +0.000 A 
ATOM      9  C   UNL     1       3.698   4.578  19.526  0.00  0.00    +0.000 A 
ATOM     10  N   UNL     1       4.995   4.003  19.663  0.00  0.00    +0.000 N 
ATOM     11  C   UNL     1       6.053   4.821  19.221  0.00  0.00    +0.000 A 
ATOM     12  O   UNL     1       6.983   5.105  19.975  0.00  0.00    +0.000 OA
ATOM     13  N   UNL     1       5.812   5.431  18.012  0.00  0.00    +0.000 N 
ATOM     14  C   UNL     1       6.644   5.276  16.938  0.00  0.00    +0.000 A 
ATOM     15  O   UNL     1       7.861   5.183  16.996  0.00  0.00    +0.000 OA
ATOM     16  H   UNL     1       5.032   3.106  19.188  0.00  0.00    +0.000 HD
ENDROOT
BRANCH   1  21
ATOM     17  C   UNL     1       7.503   3.123  10.708  0.00  0.00    +0.000 C 
ATOM     18  C   UNL     1       7.027   3.690  12.016  0.00  0.00    +0.000 A 
ATOM     19  C   UNL     1       7.770   4.668  12.667  0.00  0.00    +0.000 A 
ATOM     20  C   UNL     1       7.336   5.185  13.893  0.00  0.00    +0.000 A 
ATOM     21  C   UNL     1       6.153   4.751  14.518  0.00  0.00    +0.000 A 
ATOM     22  C   UNL     1       5.402   3.780  13.849  0.00  0.00    +0.000 A 
ATOM     23  C   UNL     1       5.835   3.254  12.612  0.00  0.00    +0.000 A 
ENDBRANCH   1  21
BRANCH   6  24
ATOM     24  C   UNL     1       1.470   7.898  20.601  0.00  0.00    +0.000 C 
ATOM     25  C   UNL     1       0.917   8.882  21.006  0.00  0.00    +0.000 C 
BRANCH  25  26
ATOM     26  C   UNL     1       0.282  10.046  21.556  0.00  0.00    +0.000 A 
ATOM     27  C   UNL     1      -0.576   9.870  22.644  0.00  0.00    +0.000 A 
ATOM     28  C   UNL     1      -1.254  10.957  23.197  0.00  0.00    +0.000 A 
ATOM     29  C   UNL     1      -1.077  12.233  22.663  0.00  0.00    +0.000 A 
ATOM     30  C   UNL     1      -0.213  12.422  21.583  0.00  0.00    +0.000 A 
ATOM     31  C   UNL     1       0.466  11.328  21.029  0.00  0.00    +0.000 A 
ENDBRANCH  25  26
ENDBRANCH   6  24
TORSDOF 3
ENDMDL
MODEL 2
REMARK VINA RESULT:      -8.9      0.304      1.270
REMARK  Name = 
REMARK  4 active torsions:
REMARK  status: ('A' for Active; 'I' for Inactive)
REMARK    1  A    between atoms: C_1  and  C_2
REMARK    2  A    between atoms: C_5  and  N_6
REMARK    3  A    between atoms: C_11  and  C_12
REMARK    4  A    between atoms: C_13  and  C_14
REMARK                            x       y       z     vdW  Elec       q    Type
REMARK                         _______ _______ _______ _____ _____    ______ ____
ROOT
ATOM      1  N   UNL     1       5.931   5.267  15.953  0.00  0.00    +0.000 N 
ATOM      2  N   UNL     1       4.574   5.430  16.301  0.00  0.00    +0.000 NA
ATOM      3  C   UNL     1       4.610   5.499  17.606  0.00  0.00    +0.000 A 
ATOM      4  C   UNL     1       3.529   5.499  18.601  0.00  0.00    +0.000 A 
ATOM      5  C   UNL     1       2.689   6.572  18.887  0.00  0.00    +0.000 A 
ATOM      6  C   UNL     1       1.937   6.536  20.078  0.00  0.00    +0.000 A 
ATOM      7  C   UNL     1       1.903   5.370  20.872  0.00  0.00    +0.000 A 
ATOM      8  C   UNL     1       2.775   4.324  20.600  0.00  0.00    +0.000 A 
ATOM      9  C   UNL     1       3.673   4.475  19.550  0.00  0.00    +0.000 A 
ATOM     10  N   UNL     1       4.970   3.910  19.732  0.00  0.00    +0.000 N 
ATOM     11  C   UNL     1       6.037   4.751  19.362  0.00  0.00    +0.000 A 
ATOM     12  O   UNL     1       6.928   5.022  20.166  0.00  0.00    +0.000 OA
ATOM     13  N   UNL     1       5.845   5.393  18.162  0.00  0.00    +0.000 N 
ATOM     14  C   UNL     1       6.727   5.277  17.123  0.00  0.00    +0.000 A 
ATOM     15  O   UNL     1       7.942   5.195  17.235  0.00  0.00    +0.000 OA
ATOM     16  H   UNL     1       5.038   3.027  19.233  0.00  0.00    +0.000 HD
ENDROOT
BRANCH   1  21
ATOM     17  C   UNL     1       7.380   3.553  10.627  0.00  0.00    +0.000 C 
ATOM     18  C   UNL     1       7.038   3.985  12.025  0.00  0.00    +0.000 A 
ATOM     19  C   UNL     1       5.983   3.387  12.705  0.00  0.00    +0.000 A 
ATOM     20  C   UNL     1       5.653   3.799  14.001  0.00  0.00    +0.000 A 
ATOM     21  C   UNL     1       6.355   4.819  14.669  0.00  0.00    +0.000 A 
ATOM     22  C   UNL     1       7.426   5.404  13.986  0.00  0.00    +0.000 A 
ATOM     23  C   UNL     1       7.763   4.992  12.679  0.00  0.00    +0.000 A 
ENDBRANCH   1  21
BRANCH   6  24
ATOM     24  C   UNL     1       1.361   7.741  20.615  0.00  0.00    +0.000 C 
ATOM     25  C   UNL     1       0.943   8.803  20.983  0.00  0.00    +0.000 C 
BRANCH  25  26
ATOM     26  C   UNL     1       0.376  10.050  21.412  0.00  0.00    +0.000 A 
ATOM     27  C   UNL     1       0.735  11.205  20.714  0.00  0.00    +0.000 A 
ATOM     28  C   UNL     1       0.249  12.452  21.107  0.00  0.00    +0.000 A 
ATOM     29  C   UNL     1      -0.603  12.553  22.207  0.00  0.00    +0.000 A 
ATOM     30  C   UNL     1      -0.977  11.403  22.905  0.00  0.00    +0.000 A 
ATOM     31  C   UNL     1      -0.486  10.152  22.508  0.00  0.00    +0.000 A 
ENDBRANCH  25  26
ENDBRANCH   6  24
TORSDOF 3
ENDMDL
MODEL 3
REMARK VINA RESULT:      -8.6      0.567      1.084
REMARK  Name = 
REMARK  4 active torsions:
REMARK  status: ('A' for Active; 'I' for Inactive)
REMARK    1  A    between atoms: C_1  and  C_2
REMARK    2  A    between atoms: C_5  and  N_6
REMARK    3  A    between atoms: C_11  and  C_12
REMARK    4  A    between atoms: C_13  and  C_14
REMARK                            x       y       z     vdW  Elec       q    Type
REMARK                         _______ _______ _______ _____ _____    ______ ____
ROOT
ATOM      1  N   UNL     1       5.698   5.503  15.871  0.00  0.00    +0.000 N 
ATOM      2  N   UNL     1       4.365   5.795  16.224  0.00  0.00    +0.000 NA
ATOM      3  C   UNL     1       4.419   5.892  17.526  0.00  0.00    +0.000 A 
ATOM      4  C   UNL     1       3.351   6.011  18.528  0.00  0.00    +0.000 A 
ATOM      5  C   UNL     1       2.613   7.161  18.795  0.00  0.00    +0.000 A 
ATOM      6  C   UNL     1       1.872   7.220  19.991  0.00  0.00    +0.000 A 
ATOM      7  C   UNL     1       1.741   6.081  20.814  0.00  0.00    +0.000 A 
ATOM      8  C   UNL     1       2.513   4.955  20.561  0.00  0.00    +0.000 A 
ATOM      9  C   UNL     1       3.412   5.000  19.501  0.00  0.00    +0.000 A 
ATOM     10  N   UNL     1       4.654   4.325  19.687  0.00  0.00    +0.000 N 
ATOM     11  C   UNL     1       5.789   5.059  19.290  0.00  0.00    +0.000 A 
ATOM     12  O   UNL     1       6.708   5.268  20.081  0.00  0.00    +0.000 OA
ATOM     13  N   UNL     1       5.644   5.688  18.076  0.00  0.00    +0.000 N 
ATOM     14  C   UNL     1       6.503   5.470  17.034  0.00  0.00    +0.000 A 
ATOM     15  O   UNL     1       7.706   5.282  17.140  0.00  0.00    +0.000 OA
ATOM     16  H   UNL     1       4.639   3.429  19.209  0.00  0.00    +0.000 HD
ENDROOT
BRANCH   1  21
ATOM     17  C   UNL     1       7.446   3.281  10.830  0.00  0.00    +0.000 C 
ATOM     18  C   UNL     1       6.961   3.875  12.122  0.00  0.00    +0.000 A 
ATOM     19  C   UNL     1       7.718   4.840  12.777  0.00  0.00    +0.000 A 
ATOM     20  C   UNL     1       7.276   5.383  13.988  0.00  0.00    +0.000 A 
ATOM     21  C   UNL     1       6.069   4.989  14.595  0.00  0.00    +0.000 A 
ATOM     22  C   UNL     1       5.303   4.032  13.921  0.00  0.00    +0.000 A 
ATOM     23  C   UNL     1       5.745   3.480  12.699  0.00  0.00    +0.000 A 
ENDBRANCH   1  21
BRANCH   6  24
ATOM     24  C   UNL     1       1.411   8.484  20.504  0.00  0.00    +0.000 C 
ATOM     25  C   UNL     1       1.015   9.571  20.821  0.00  0.00    +0.000 C 
BRANCH  25  26
ATOM     26  C   UNL     1       0.490  10.841  21.236  0.00  0.00    +0.000 A 
ATOM     27  C   UNL     1       1.102  11.995  20.741  0.00  0.00    +0.000 A 
ATOM     28  C   UNL     1       0.663  13.257  21.138  0.00  0.00    +0.000 A 
ATOM     29  C   UNL     1      -0.396  13.376  22.038  0.00  0.00    +0.000 A 
ATOM     30  C   UNL     1      -1.022  12.229  22.530  0.00  0.00    +0.000 A 
ATOM     31  C   UNL     1      -0.578  10.961  22.130  0.00  0.00    +0.000 A 
ENDBRANCH  25  26
ENDBRANCH   6  24
TORSDOF 3
ENDMDL
MODEL 4
REMARK VINA RESULT:      -8.2      1.074      1.428
REMARK  Name = 
REMARK  4 active torsions:
REMARK  status: ('A' for Active; 'I' for Inactive)
REMARK    1  A    between atoms: C_1  and  C_2
REMARK    2  A    between atoms: C_5  and  N_6
REMARK    3  A    between atoms: C_11  and  C_12
REMARK    4  A    between atoms: C_13  and  C_14
REMARK                            x       y       z     vdW  Elec       q    Type
REMARK                         _______ _______ _______ _____ _____    ______ ____
ROOT
ATOM      1  N   UNL     1       5.917   5.401  15.688  0.00  0.00    +0.000 N 
ATOM      2  N   UNL     1       4.568   5.710  15.957  0.00  0.00    +0.000 NA
ATOM      3  C   UNL     1       4.564   5.911  17.249  0.00  0.00    +0.000 A 
ATOM      4  C   UNL     1       3.452   6.103  18.190  0.00  0.00    +0.000 A 
ATOM      5  C   UNL     1       2.698   7.265  18.330  0.00  0.00    +0.000 A 
ATOM      6  C   UNL     1       1.904   7.414  19.484  0.00  0.00    +0.000 A 
ATOM      7  C   UNL     1       1.741   6.343  20.389  0.00  0.00    +0.000 A 
ATOM      8  C   UNL     1       2.528   5.206  20.261  0.00  0.00    +0.000 A 
ATOM      9  C   UNL     1       3.473   5.173  19.242  0.00  0.00    +0.000 A 
ATOM     10  N   UNL     1       4.708   4.525  19.536  0.00  0.00    +0.000 N 
ATOM     11  C   UNL     1       5.857   5.232  19.132  0.00  0.00    +0.000 A 
ATOM     12  O   UNL     1       6.739   5.511  19.944  0.00  0.00    +0.000 OA
ATOM     13  N   UNL     1       5.764   5.761  17.866  0.00  0.00    +0.000 N 
ATOM     14  C   UNL     1       6.669   5.466  16.884  0.00  0.00    +0.000 A 
ATOM     15  O   UNL     1       7.867   5.297  17.058  0.00  0.00    +0.000 OA
ATOM     16  H   UNL     1       4.718   3.593  19.132  0.00  0.00    +0.000 HD
ENDROOT
BRANCH   1  21
ATOM     17  C   UNL     1       7.387   3.009  10.636  0.00  0.00    +0.000 C 
ATOM     18  C   UNL     1       7.040   3.619  11.965  0.00  0.00    +0.000 A 
ATOM     19  C   UNL     1       5.980   3.115  12.711  0.00  0.00    +0.000 A 
ATOM     20  C   UNL     1       5.646   3.692  13.941  0.00  0.00    +0.000 A 
ATOM     21  C   UNL     1       6.346   4.789  14.475  0.00  0.00    +0.000 A 
ATOM     22  C   UNL     1       7.422   5.279  13.727  0.00  0.00    +0.000 A 
ATOM     23  C   UNL     1       7.764   4.701  12.485  0.00  0.00    +0.000 A 
ENDBRANCH   1  21
BRANCH   6  24
ATOM     24  C   UNL     1       1.416   8.711  19.873  0.00  0.00    +0.000 C 
ATOM     25  C   UNL     1       0.964   9.801  20.090  0.00  0.00    +0.000 C 
BRANCH  25  26
ATOM     26  C   UNL     1       0.387  11.077  20.404  0.00  0.00    +0.000 A 
ATOM     27  C   UNL     1      -0.946  11.297  20.051  0.00  0.00    +0.000 A 
ATOM     28  C   UNL     1      -1.551  12.530  20.294  0.00  0.00    +0.000 A 
ATOM     29  C   UNL     1      -0.823  13.557  20.894  0.00  0.00    +0.000 A 
ATOM     30  C   UNL     1       0.507  13.344  21.261  0.00  0.00    +0.000 A 
ATOM     31  C   UNL     1       1.113  12.104  21.015  0.00  0.00    +0.000 A 
ENDBRANCH  25  26
ENDBRANCH   6  24
TORSDOF 3
ENDMDL
MODEL 5
REMARK VINA RESULT:      -8.0      5.545     12.050
REMARK  Name = 
REMARK  4 active torsions:
REMARK  status: ('A' for Active; 'I' for Inactive)
REMARK    1  A    between atoms: C_1  and  C_2
REMARK    2  A    between atoms: C_5  and  N_6
REMARK    3  A    between atoms: C_11  and  C_12
REMARK    4  A    between atoms: C_13  and  C_14
REMARK                            x       y       z     vdW  Elec       q    Type
REMARK                         _______ _______ _______ _____ _____    ______ ____
ROOT
ATOM      1  N   UNL     1      -2.291  12.533  22.369  0.00  0.00    +0.000 N 
ATOM      2  N   UNL     1      -2.118  11.802  21.176  0.00  0.00    +0.000 NA
ATOM      3  C   UNL     1      -0.849  11.968  20.909  0.00  0.00    +0.000 A 
ATOM      4  C   UNL     1      -0.059  11.613  19.722  0.00  0.00    +0.000 A 
ATOM      5  C   UNL     1       0.367  10.331  19.385  0.00  0.00    +0.000 A 
ATOM      6  C   UNL     1       1.383  10.195  18.418  0.00  0.00    +0.000 A 
ATOM      7  C   UNL     1       1.835  11.314  17.687  0.00  0.00    +0.000 A 
ATOM      8  C   UNL     1       1.434  12.590  18.060  0.00  0.00    +0.000 A 
ATOM      9  C   UNL     1       0.604  12.719  19.168  0.00  0.00    +0.000 A 
ATOM     10  N   UNL     1       0.823  13.854  20.002  0.00  0.00    +0.000 N 
ATOM     11  C   UNL     1       0.845  13.576  21.383  0.00  0.00    +0.000 A 
ATOM     12  O   UNL     1       1.815  13.895  22.070  0.00  0.00    +0.000 OA
ATOM     13  N   UNL     1      -0.163  12.737  21.794  0.00  0.00    +0.000 N 
ATOM     14  C   UNL     1      -1.054  13.091  22.770  0.00  0.00    +0.000 A 
ATOM     15  O   UNL     1      -0.788  13.758  23.759  0.00  0.00    +0.000 OA
ATOM     16  H   UNL     1       0.129  14.570  19.807  0.00  0.00    +0.000 HD
ENDROOT
BRANCH   1  21
ATOM     17  C   UNL     1      -7.610  13.925  24.152  0.00  0.00    +0.000 C 
ATOM     18  C   UNL     1      -6.212  13.584  23.718  0.00  0.00    +0.000 A 
ATOM     19  C   UNL     1      -5.725  14.043  22.499  0.00  0.00    +0.000 A 
ATOM     20  C   UNL     1      -4.429  13.714  22.087  0.00  0.00    +0.000 A 
ATOM     21  C   UNL     1      -3.570  12.917  22.865  0.00  0.00    +0.000 A 
ATOM     22  C   UNL     1      -4.060  12.474  24.098  0.00  0.00    +0.000 A 
ATOM     23  C   UNL     1      -5.367  12.803  24.519  0.00  0.00    +0.000 A 
ENDBRANCH   1  21
BRANCH   6  24
ATOM     24  C   UNL     1       2.122   8.965  18.303  0.00  0.00    +0.000 C 
ATOM     25  C   UNL     1       2.721   7.947  18.092  0.00  0.00    +0.000 C 
BRANCH  25  26
ATOM     26  C   UNL     1       3.493   6.758  17.873  0.00  0.00    +0.000 A 
ATOM     27  C   UNL     1       4.759   6.897  17.299  0.00  0.00    +0.000 A 
ATOM     28  C   UNL     1       5.542   5.776  17.024  0.00  0.00    +0.000 A 
ATOM     29  C   UNL     1       5.061   4.501  17.322  0.00  0.00    +0.000 A 
ATOM     30  C   UNL     1       3.802   4.351  17.906  0.00  0.00    +0.000 A 
ATOM     31  C   UNL     1       3.018   5.480  18.180  0.00  0.00    +0.000 A 
ENDBRANCH  25  26
ENDBRANCH   6  24
TORSDOF 3
ENDMDL
MODEL 6
REMARK VINA RESULT:      -8.0      5.597     11.599
REMARK  Name = 
REMARK  4 active torsions:
REMARK  status: ('A' for Active; 'I' for Inactive)
REMARK    1  A    between atoms: C_1  and  C_2
REMARK    2  A    between atoms: C_5  and  N_6
REMARK    3  A    between atoms: C_11  and  C_12
REMARK    4  A    between atoms: C_13  and  C_14
REMARK                            x       y       z     vdW  Elec       q    Type
REMARK                         _______ _______ _______ _____ _____    ______ ____
ROOT
ATOM      1  N   UNL     1      -1.694  12.883  21.840  0.00  0.00    +0.000 N 
ATOM      2  N   UNL     1      -1.651  11.789  20.951  0.00  0.00    +0.000 NA
ATOM      3  C   UNL     1      -0.375  11.667  20.695  0.00  0.00    +0.000 A 
ATOM      4  C   UNL     1       0.336  10.833  19.716  0.00  0.00    +0.000 A 
ATOM      5  C   UNL     1       0.553   9.462  19.824  0.00  0.00    +0.000 A 
ATOM      6  C   UNL     1       1.525   8.871  18.992  0.00  0.00    +0.000 A 
ATOM      7  C   UNL     1       2.136   9.612  17.959  0.00  0.00    +0.000 A 
ATOM      8  C   UNL     1       1.943  10.986  17.888  0.00  0.00    +0.000 A 
ATOM      9  C   UNL     1       1.156  11.588  18.863  0.00  0.00    +0.000 A 
ATOM     10  N   UNL     1       1.559  12.885  19.298  0.00  0.00    +0.000 N 
ATOM     11  C   UNL     1       1.554  13.067  20.695  0.00  0.00    +0.000 A 
ATOM     12  O   UNL     1       2.570  13.440  21.281  0.00  0.00    +0.000 OA
ATOM     13  N   UNL     1       0.433  12.567  21.314  0.00  0.00    +0.000 N 
ATOM     14  C   UNL     1      -0.381  13.347  22.089  0.00  0.00    +0.000 A 
ATOM     15  O   UNL     1      -0.003  14.249  22.822  0.00  0.00    +0.000 OA
ATOM     16  H   UNL     1       0.982  13.596  18.857  0.00  0.00    +0.000 HD
ENDROOT
BRANCH   1  21
ATOM     17  C   UNL     1      -6.410  15.891  23.296  0.00  0.00    +0.000 C 
ATOM     18  C   UNL     1      -5.203  15.095  22.886  0.00  0.00    +0.000 A 
ATOM     19  C   UNL     1      -4.741  14.058  23.690  0.00  0.00    +0.000 A 
ATOM     20  C   UNL     1      -3.609  13.327  23.317  0.00  0.00    +0.000 A 
ATOM     21  C   UNL     1      -2.892  13.595  22.137  0.00  0.00    +0.000 A 
ATOM     22  C   UNL     1      -3.373  14.627  21.324  0.00  0.00    +0.000 A 
ATOM     23  C   UNL     1      -4.515  15.369  21.695  0.00  0.00    +0.000 A 
ENDBRANCH   1  21
BRANCH   6  24
ATOM     24  C   UNL     1       2.062   7.573  19.306  0.00  0.00    +0.000 C 
ATOM     25  C   UNL     1       2.406   6.465  19.612  0.00  0.00    +0.000 C 
BRANCH  25  26
ATOM     26  C   UNL     1       2.834   5.128  19.910  0.00  0.00    +0.000 A 
ATOM     27  C   UNL     1       3.948   4.631  19.228  0.00  0.00    +0.000 A 
ATOM     28  C   UNL     1       4.389   3.326  19.445  0.00  0.00    +0.000 A 
ATOM     29  C   UNL     1       3.717   2.504  20.349  0.00  0.00    +0.000 A 
ATOM     30  C   UNL     1       2.610   2.994  21.044  0.00  0.00    +0.000 A 
ATOM     31  C   UNL     1       2.168   4.306  20.824  0.00  0.00    +0.000 A 
ENDBRANCH  25  26
ENDBRANCH   6  24
TORSDOF 3
ENDMDL
MODEL 7
REMARK VINA RESULT:      -7.9      7.727     11.297
REMARK  Name = 
REMARK  4 active torsions:
REMARK  status: ('A' for Active; 'I' for Inactive)
REMARK    1  A    between atoms: C_1  and  C_2
REMARK    2  A    between atoms: C_5  and  N_6
REMARK    3  A    between atoms: C_11  and  C_12
REMARK    4  A    between atoms: C_13  and  C_14
REMARK                            x       y       z     vdW  Elec       q    Type
REMARK                         _______ _______ _______ _____ _____    ______ ____
ROOT
ATOM      1  N   UNL     1       0.646  12.301  19.329  0.00  0.00    +0.000 N 
ATOM      2  N   UNL     1       1.521  12.866  18.379  0.00  0.00    +0.000 NA
ATOM      3  C   UNL     1       2.362  13.541  19.118  0.00  0.00    +0.000 A 
ATOM      4  C   UNL     1       3.418  14.495  18.749  0.00  0.00    +0.000 A 
ATOM      5  C   UNL     1       4.657  14.164  18.207  0.00  0.00    +0.000 A 
ATOM      6  C   UNL     1       5.675  15.137  18.220  0.00  0.00    +0.000 A 
ATOM      7  C   UNL     1       5.399  16.464  18.614  0.00  0.00    +0.000 A 
ATOM      8  C   UNL     1       4.173  16.771  19.191  0.00  0.00    +0.000 A 
ATOM      9  C   UNL     1       3.260  15.741  19.377  0.00  0.00    +0.000 A 
ATOM     10  N   UNL     1       2.466  15.796  20.561  0.00  0.00    +0.000 N 
ATOM     11  C   UNL     1       2.369  14.579  21.263  0.00  0.00    +0.000 A 
ATOM     12  O   UNL     1       2.687  14.514  22.450  0.00  0.00    +0.000 OA
ATOM     13  N   UNL     1       2.134  13.491  20.456  0.00  0.00    +0.000 N 
ATOM     14  C   UNL     1       1.054  12.671  20.633  0.00  0.00    +0.000 A 
ATOM     15  O   UNL     1       0.576  12.359  21.713  0.00  0.00    +0.000 OA
ATOM     16  H   UNL     1       1.536  16.142  20.341  0.00  0.00    +0.000 HD
ENDROOT
BRANCH   1  21
ATOM     17  C   UNL     1      -4.550  10.324  17.752  0.00  0.00    +0.000 C 
ATOM     18  C   UNL     1      -3.194  10.805  18.185  0.00  0.00    +0.000 A 
ATOM     19  C   UNL     1      -3.073  11.963  18.946  0.00  0.00    +0.000 A 
ATOM     20  C   UNL     1      -1.810  12.422  19.336  0.00  0.00    +0.000 A 
ATOM     21  C   UNL     1      -0.623  11.752  18.986  0.00  0.00    +0.000 A 
ATOM     22  C   UNL     1      -0.754  10.579  18.236  0.00  0.00    +0.000 A 
ATOM     23  C   UNL     1      -2.026  10.112  17.839  0.00  0.00    +0.000 A 
ENDBRANCH   1  21
BRANCH   6  24
ATOM     24  C   UNL     1       7.051  14.757  18.037  0.00  0.00    +0.000 C 
ATOM     25  C   UNL     1       8.173  14.341  17.940  0.00  0.00    +0.000 C 
BRANCH  25  26
ATOM     26  C   UNL     1       9.509  13.852  17.755  0.00  0.00    +0.000 A 
ATOM     27  C   UNL     1       9.715  12.472  17.829  0.00  0.00    +0.000 A 
ATOM     28  C   UNL     1      10.997  11.938  17.696  0.00  0.00    +0.000 A 
ATOM     29  C   UNL     1      12.086  12.783  17.488  0.00  0.00    +0.000 A 
ATOM     30  C   UNL     1      11.890  14.163  17.402  0.00  0.00    +0.000 A 
ATOM     31  C   UNL     1      10.601  14.697  17.536  0.00  0.00    +0.000 A 
ENDBRANCH  25  26
ENDBRANCH   6  24
TORSDOF 3
ENDMDL
MODEL 8
REMARK VINA RESULT:      -7.9      5.623     12.097
REMARK  Name = 
REMARK  4 active torsions:
REMARK  status: ('A' for Active; 'I' for Inactive)
REMARK    1  A    between atoms: C_1  and  C_2
REMARK    2  A    between atoms: C_5  and  N_6
REMARK    3  A    between atoms: C_11  and  C_12
REMARK    4  A    between atoms: C_13  and  C_14
REMARK                            x       y       z     vdW  Elec       q    Type
REMARK                         _______ _______ _______ _____ _____    ______ ____
ROOT
ATOM      1  N   UNL     1      -2.162  12.997  22.256  0.00  0.00    +0.000 N 
ATOM      2  N   UNL     1      -2.002  12.292  21.045  0.00  0.00    +0.000 NA
ATOM      3  C   UNL     1      -0.715  12.368  20.827  0.00  0.00    +0.000 A 
ATOM      4  C   UNL     1       0.087  11.989  19.656  0.00  0.00    +0.000 A 
ATOM      5  C   UNL     1       0.426  10.690  19.289  0.00  0.00    +0.000 A 
ATOM      6  C   UNL     1       1.463  10.506  18.353  0.00  0.00    +0.000 A 
ATOM      7  C   UNL     1       2.026  11.609  17.676  0.00  0.00    +0.000 A 
ATOM      8  C   UNL     1       1.710  12.900  18.079  0.00  0.00    +0.000 A 
ATOM      9  C   UNL     1       0.852  13.058  19.161  0.00  0.00    +0.000 A 
ATOM     10  N   UNL     1       1.127  14.146  20.041  0.00  0.00    +0.000 N 
ATOM     11  C   UNL     1       1.078  13.824  21.411  0.00  0.00    +0.000 A 
ATOM     12  O   UNL     1       2.044  14.045  22.141  0.00  0.00    +0.000 OA
ATOM     13  N   UNL     1      -0.005  13.053  21.760  0.00  0.00    +0.000 N 
ATOM     14  C   UNL     1      -0.901  13.444  22.717  0.00  0.00    +0.000 A 
ATOM     15  O   UNL     1      -0.621  14.057  23.736  0.00  0.00    +0.000 OA
ATOM     16  H   UNL     1       0.497  14.920  19.847  0.00  0.00    +0.000 HD
ENDROOT
BRANCH   1  21
ATOM     17  C   UNL     1      -7.395  14.854  23.855  0.00  0.00    +0.000 C 
ATOM     18  C   UNL     1      -6.022  14.376  23.477  0.00  0.00    +0.000 A 
ATOM     19  C   UNL     1      -5.235  15.123  22.608  0.00  0.00    +0.000 A 
ATOM     20  C   UNL     1      -3.962  14.671  22.242  0.00  0.00    +0.000 A 
ATOM     21  C   UNL     1      -3.425  13.462  22.722  0.00  0.00    +0.000 A 
ATOM     22  C   UNL     1      -4.215  12.725  23.609  0.00  0.00    +0.000 A 
ATOM     23  C   UNL     1      -5.500  13.176  23.981  0.00  0.00    +0.000 A 
ENDBRANCH   1  21
BRANCH   6  24
ATOM     24  C   UNL     1       2.110   9.227  18.221  0.00  0.00    +0.000 C 
ATOM     25  C   UNL     1       2.649   8.179  17.996  0.00  0.00    +0.000 C 
BRANCH  25  26
ATOM     26  C   UNL     1       3.346   6.946  17.769  0.00  0.00    +0.000 A 
ATOM     27  C   UNL     1       2.724   5.760  18.166  0.00  0.00    +0.000 A 
ATOM     28  C   UNL     1       3.367   4.533  18.009  0.00  0.00    +0.000 A 
ATOM     29  C   UNL     1       4.644   4.482  17.451  0.00  0.00    +0.000 A 
ATOM     30  C   UNL     1       5.271   5.659  17.040  0.00  0.00    +0.000 A 
ATOM     31  C   UNL     1       4.622   6.892  17.200  0.00  0.00    +0.000 A 
ENDBRANCH  25  26
ENDBRANCH   6  24
TORSDOF 3
ENDMDL
MODEL 9
REMARK VINA RESULT:      -7.9      5.547     11.714
REMARK  Name = 
REMARK  4 active torsions:
REMARK  status: ('A' for Active; 'I' for Inactive)
REMARK    1  A    between atoms: C_1  and  C_2
REMARK    2  A    between atoms: C_5  and  N_6
REMARK    3  A    between atoms: C_11  and  C_12
REMARK    4  A    between atoms: C_13  and  C_14
REMARK                            x       y       z     vdW  Elec       q    Type
REMARK                         _______ _______ _______ _____ _____    ______ ____
ROOT
ATOM      1  N   UNL     1      -1.820  12.647  21.925  0.00  0.00    +0.000 N 
ATOM      2  N   UNL     1      -1.706  11.779  20.820  0.00  0.00    +0.000 NA
ATOM      3  C   UNL     1      -0.419  11.756  20.594  0.00  0.00    +0.000 A 
ATOM      4  C   UNL     1       0.354  11.182  19.484  0.00  0.00    +0.000 A 
ATOM      5  C   UNL     1       0.622   9.829  19.296  0.00  0.00    +0.000 A 
ATOM      6  C   UNL     1       1.641   9.466  18.393  0.00  0.00    +0.000 A 
ATOM      7  C   UNL     1       2.256  10.437  17.574  0.00  0.00    +0.000 A 
ATOM      8  C   UNL     1       2.011  11.785  17.799  0.00  0.00    +0.000 A 
ATOM      9  C   UNL     1       1.171  12.133  18.851  0.00  0.00    +0.000 A 
ATOM     10  N   UNL     1       1.509  13.313  19.576  0.00  0.00    +0.000 N 
ATOM     11  C   UNL     1       1.453  13.180  20.977  0.00  0.00    +0.000 A 
ATOM     12  O   UNL     1       2.434  13.446  21.671  0.00  0.00    +0.000 OA
ATOM     13  N   UNL     1       0.333  12.522  21.426  0.00  0.00    +0.000 N 
ATOM     14  C   UNL     1      -0.534  13.085  22.322  0.00  0.00    +0.000 A 
ATOM     15  O   UNL     1      -0.215  13.814  23.250  0.00  0.00    +0.000 OA
ATOM     16  H   UNL     1       0.919  14.085  19.280  0.00  0.00    +0.000 HD
ENDROOT
BRANCH   1  21
ATOM     17  C   UNL     1      -6.684  15.138  23.808  0.00  0.00    +0.000 C 
ATOM     18  C   UNL     1      -5.438  14.479  23.285  0.00  0.00    +0.000 A 
ATOM     19  C   UNL     1      -4.903  13.375  23.939  0.00  0.00    +0.000 A 
ATOM     20  C   UNL     1      -3.734  12.771  23.463  0.00  0.00    +0.000 A 
ATOM     21  C   UNL     1      -3.053  13.238  22.324  0.00  0.00    +0.000 A 
ATOM     22  C   UNL     1      -3.608  14.338  21.661  0.00  0.00    +0.000 A 
ATOM     23  C   UNL     1      -4.787  14.952  22.137  0.00  0.00    +0.000 A 
ENDBRANCH   1  21
BRANCH   6  24
ATOM     24  C   UNL     1       2.218   8.149  18.434  0.00  0.00    +0.000 C 
ATOM     25  C   UNL     1       2.593   7.010  18.494  0.00  0.00    +0.000 C 
BRANCH  25  26
ATOM     26  C   UNL     1       3.066   5.655  18.499  0.00  0.00    +0.000 A 
ATOM     27  C   UNL     1       4.241   5.376  19.201  0.00  0.00    +0.000 A 
ATOM     28  C   UNL     1       4.773   4.087  19.211  0.00  0.00    +0.000 A 
ATOM     29  C   UNL     1       4.131   3.063  18.515  0.00  0.00    +0.000 A 
ATOM     30  C   UNL     1       2.951   3.329  17.818  0.00  0.00    +0.000 A 
ATOM     31  C   UNL     1       2.419   4.626  17.810  0.00  0.00    +0.000 A 
ENDBRANCH  25  26
ENDBRANCH   6  24
TORSDOF 3
ENDMDL
