MODEL 1
REMARK VINA RESULT:      -7.0      0.000      0.000
REMARK  Name = 
REMARK  9 active torsions:
REMARK  status: ('A' for Active; 'I' for Inactive)
REMARK    1  A    between atoms: C_1  and  C_2
REMARK    2  A    between atoms: C_2  and  C_3
REMARK    3  A    between atoms: C_2  and  C_4
REMARK    4  A    between atoms: C_2  and  N_5
REMARK    5  A    between atoms: C_10  and  O_11
REMARK    6  A    between atoms: O_11  and  S_12
REMARK    7  A    between atoms: S_12  and  C_13
REMARK    8  A    between atoms: C_17  and  C_18
REMARK    9  A    between atoms: C_17  and  C_19
REMARK                            x       y       z     vdW  Elec       q    Type
REMARK                         _______ _______ _______ _____ _____    ______ ____
ROOT
ATOM      1  N   UNL     1       5.834   3.759  13.835  0.00  0.00    +0.000 N 
ATOM      2  C   UNL     1       6.576   4.535  14.702  0.00  0.00    +0.000 C 
ATOM      3  O   UNL     1       7.609   5.117  14.385  0.00  0.00    +0.000 OA
ATOM      4  N   UNL     1       6.019   4.600  15.974  0.00  0.00    +0.000 N 
ATOM      5  N   UNL     1       4.922   3.827  16.324  0.00  0.00    +0.000 NA
ATOM      6  C   UNL     1       4.616   4.198  17.524  0.00  0.00    +0.000 C 
ATOM      7  C   UNL     1       5.379   5.344  18.086  0.00  0.00    +0.000 C 
ATOM      8  C   UNL     1       6.575   5.337  17.129  0.00  0.00    +0.000 C 
ATOM      9  C   UNL     1       7.011   6.770  16.802  0.00  0.00    +0.000 C 
ATOM     10  C   UNL     1       7.747   4.568  17.757  0.00  0.00    +0.000 C 
ATOM     11  H   UNL     1       4.920   3.542  14.216  0.00  0.00    +0.000 HD
ENDROOT
BRANCH   1  13
ATOM     12  C   UNL     1       6.554   2.178  12.077  0.00  0.00    +0.000 C 
ATOM     13  C   UNL     1       6.089   3.608  12.400  0.00  0.00    +0.000 C 
ATOM     14  C   UNL     1       7.133   4.628  11.921  0.00  0.00    +0.000 C 
ATOM     15  C   UNL     1       4.779   3.861  11.630  0.00  0.00    +0.000 C 
ENDBRANCH   1  13
BRANCH   6  16
ATOM     16  O   UNL     1       3.656   3.692  18.289  0.00  0.00    +0.000 OA
BRANCH  16  17
ATOM     17  S   UNL     1       3.792   2.391  19.241  0.00  0.00    +0.000 S 
ATOM     18  C   UNL     1       2.380   2.616  20.294  0.00  0.00    +0.000 C 
ATOM     19  O   UNL     1       3.544   1.220  18.418  0.00  0.00    +0.000 OA
ATOM     20  O   UNL     1       5.006   2.490  20.026  0.00  0.00    +0.000 OA
ENDBRANCH  16  17
ENDBRANCH   6  16
TORSDOF 3
ENDMDL
MODEL 2
REMARK VINA RESULT:      -6.9      0.947      1.801
REMARK  Name = 
REMARK  9 active torsions:
REMARK  status: ('A' for Active; 'I' for Inactive)
REMARK    1  A    between atoms: C_1  and  C_2
REMARK    2  A    between atoms: C_2  and  C_3
REMARK    3  A    between atoms: C_2  and  C_4
REMARK    4  A    between atoms: C_2  and  N_5
REMARK    5  A    between atoms: C_10  and  O_11
REMARK    6  A    between atoms: O_11  and  S_12
REMARK    7  A    between atoms: S_12  and  C_13
REMARK    8  A    between atoms: C_17  and  C_18
REMARK    9  A    between atoms: C_17  and  C_19
REMARK                            x       y       z     vdW  Elec       q    Type
REMARK                         _______ _______ _______ _____ _____    ______ ____
ROOT
ATOM      1  N   UNL     1       5.823   3.607  13.832  0.00  0.00    +0.000 N 
ATOM      2  C   UNL     1       6.502   4.445  14.693  0.00  0.00    +0.000 C 
ATOM      3  O   UNL     1       7.454   5.143  14.359  0.00  0.00    +0.000 OA
ATOM      4  N   UNL     1       5.982   4.423  15.983  0.00  0.00    +0.000 N 
ATOM      5  N   UNL     1       4.989   3.526  16.347  0.00  0.00    +0.000 NA
ATOM      6  C   UNL     1       4.682   3.839  17.563  0.00  0.00    +0.000 C 
ATOM      7  C   UNL     1       5.332   5.053  18.128  0.00  0.00    +0.000 C 
ATOM      8  C   UNL     1       6.489   5.196  17.137  0.00  0.00    +0.000 C 
ATOM      9  C   UNL     1       6.753   6.674  16.828  0.00  0.00    +0.000 C 
ATOM     10  C   UNL     1       7.759   4.550  17.712  0.00  0.00    +0.000 C 
ATOM     11  H   UNL     1       4.951   3.282  14.235  0.00  0.00    +0.000 HD
ENDROOT
BRANCH   1  13
ATOM     12  C   UNL     1       7.129   4.508  11.937  0.00  0.00    +0.000 C 
ATOM     13  C   UNL     1       6.047   3.512  12.386  0.00  0.00    +0.000 C 
ATOM     14  C   UNL     1       4.741   3.760  11.615  0.00  0.00    +0.000 C 
ATOM     15  C   UNL     1       6.544   2.094  12.049  0.00  0.00    +0.000 C 
ENDBRANCH   1  13
BRANCH   6  16
ATOM     16  O   UNL     1       3.809   3.215  18.346  0.00  0.00    +0.000 OA
BRANCH  16  17
ATOM     17  S   UNL     1       2.239   3.578  18.488  0.00  0.00    +0.000 S 
ATOM     18  C   UNL     1       1.635   2.091  19.251  0.00  0.00    +0.000 C 
ATOM     19  O   UNL     1       2.124   4.649  19.462  0.00  0.00    +0.000 OA
ATOM     20  O   UNL     1       1.653   3.720  17.170  0.00  0.00    +0.000 OA
ENDBRANCH  16  17
ENDBRANCH   6  16
TORSDOF 3
ENDMDL
MODEL 3
REMARK VINA RESULT:      -6.8      0.857      1.025
REMARK  Name = 
REMARK  9 active torsions:
REMARK  status: ('A' for Active; 'I' for Inactive)
REMARK    1  A    between atoms: C_1  and  C_2
REMARK    2  A    between atoms: C_2  and  C_3
REMARK    3  A    between atoms: C_2  and  C_4
REMARK    4  A    between atoms: C_2  and  N_5
REMARK    5  A    between atoms: C_10  and  O_11
REMARK    6  A    between atoms: O_11  and  S_12
REMARK    7  A    between atoms: S_12  and  C_13
REMARK    8  A    between atoms: C_17  and  C_18
REMARK    9  A    between atoms: C_17  and  C_19
REMARK                            x       y       z     vdW  Elec       q    Type
REMARK                         _______ _______ _______ _____ _____    ______ ____
ROOT
ATOM      1  N   UNL     1       5.802   3.842  13.882  0.00  0.00    +0.000 N 
ATOM      2  C   UNL     1       6.590   4.585  14.738  0.00  0.00    +0.000 C 
ATOM      3  O   UNL     1       7.660   5.091  14.416  0.00  0.00    +0.000 OA
ATOM      4  N   UNL     1       6.032   4.710  16.006  0.00  0.00    +0.000 N 
ATOM      5  N   UNL     1       4.885   4.018  16.363  0.00  0.00    +0.000 NA
ATOM      6  C   UNL     1       4.599   4.431  17.554  0.00  0.00    +0.000 C 
ATOM      7  C   UNL     1       5.434   5.536  18.099  0.00  0.00    +0.000 C 
ATOM      8  C   UNL     1       6.630   5.432  17.150  0.00  0.00    +0.000 C 
ATOM      9  C   UNL     1       7.161   6.826  16.797  0.00  0.00    +0.000 C 
ATOM     10  C   UNL     1       7.747   4.599  17.798  0.00  0.00    +0.000 C 
ATOM     11  H   UNL     1       4.875   3.693  14.262  0.00  0.00    +0.000 HD
ENDROOT
BRANCH   1  13
ATOM     12  C   UNL     1       6.553   2.218  12.176  0.00  0.00    +0.000 C 
ATOM     13  C   UNL     1       6.053   3.647  12.451  0.00  0.00    +0.000 C 
ATOM     14  C   UNL     1       7.069   4.675  11.930  0.00  0.00    +0.000 C 
ATOM     15  C   UNL     1       4.733   3.839  11.681  0.00  0.00    +0.000 C 
ENDBRANCH   1  13
BRANCH   6  16
ATOM     16  O   UNL     1       3.605   4.004  18.324  0.00  0.00    +0.000 OA
BRANCH  16  17
ATOM     17  S   UNL     1       3.699   2.817  19.418  0.00  0.00    +0.000 S 
ATOM     18  C   UNL     1       3.457   1.400  18.373  0.00  0.00    +0.000 C 
ATOM     19  O   UNL     1       5.068   2.776  19.903  0.00  0.00    +0.000 OA
ATOM     20  O   UNL     1       2.595   2.927  20.350  0.00  0.00    +0.000 OA
ENDBRANCH  16  17
ENDBRANCH   6  16
TORSDOF 3
ENDMDL
MODEL 4
REMARK VINA RESULT:      -6.8      0.942      1.809
REMARK  Name = 
REMARK  9 active torsions:
REMARK  status: ('A' for Active; 'I' for Inactive)
REMARK    1  A    between atoms: C_1  and  C_2
REMARK    2  A    between atoms: C_2  and  C_3
REMARK    3  A    between atoms: C_2  and  C_4
REMARK    4  A    between atoms: C_2  and  N_5
REMARK    5  A    between atoms: C_10  and  O_11
REMARK    6  A    between atoms: O_11  and  S_12
REMARK    7  A    between atoms: S_12  and  C_13
REMARK    8  A    between atoms: C_17  and  C_18
REMARK    9  A    between atoms: C_17  and  C_19
REMARK                            x       y       z     vdW  Elec       q    Type
REMARK                         _______ _______ _______ _____ _____    ______ ____
ROOT
ATOM      1  N   UNL     1       5.830   3.622  13.837  0.00  0.00    +0.000 N 
ATOM      2  C   UNL     1       6.531   4.444  14.697  0.00  0.00    +0.000 C 
ATOM      3  O   UNL     1       7.501   5.116  14.362  0.00  0.00    +0.000 OA
ATOM      4  N   UNL     1       6.009   4.439  15.986  0.00  0.00    +0.000 N 
ATOM      5  N   UNL     1       4.991   3.570  16.352  0.00  0.00    +0.000 NA
ATOM      6  C   UNL     1       4.692   3.894  17.567  0.00  0.00    +0.000 C 
ATOM      7  C   UNL     1       5.373   5.091  18.130  0.00  0.00    +0.000 C 
ATOM      8  C   UNL     1       6.535   5.201  17.139  0.00  0.00    +0.000 C 
ATOM      9  C   UNL     1       6.839   6.670  16.827  0.00  0.00    +0.000 C 
ATOM     10  C   UNL     1       7.787   4.523  17.717  0.00  0.00    +0.000 C 
ATOM     11  H   UNL     1       4.950   3.323  14.240  0.00  0.00    +0.000 HD
ENDROOT
BRANCH   1  13
ATOM     12  C   UNL     1       4.747   3.776  11.620  0.00  0.00    +0.000 C 
ATOM     13  C   UNL     1       6.053   3.518  12.392  0.00  0.00    +0.000 C 
ATOM     14  C   UNL     1       6.623   2.139  12.026  0.00  0.00    +0.000 C 
ATOM     15  C   UNL     1       7.072   4.590  11.964  0.00  0.00    +0.000 C 
ENDBRANCH   1  13
BRANCH   6  16
ATOM     16  O   UNL     1       3.802   3.295  18.350  0.00  0.00    +0.000 OA
BRANCH  16  17
ATOM     17  S   UNL     1       2.233   3.674  18.459  0.00  0.00    +0.000 S 
ATOM     18  C   UNL     1       1.634   2.287  19.395  0.00  0.00    +0.000 C 
ATOM     19  O   UNL     1       2.126   4.852  19.302  0.00  0.00    +0.000 OA
ATOM     20  O   UNL     1       1.639   3.662  17.137  0.00  0.00    +0.000 OA
ENDBRANCH  16  17
ENDBRANCH   6  16
TORSDOF 3
ENDMDL
MODEL 5
REMARK VINA RESULT:      -6.8      0.996      1.352
REMARK  Name = 
REMARK  9 active torsions:
REMARK  status: ('A' for Active; 'I' for Inactive)
REMARK    1  A    between atoms: C_1  and  C_2
REMARK    2  A    between atoms: C_2  and  C_3
REMARK    3  A    between atoms: C_2  and  C_4
REMARK    4  A    between atoms: C_2  and  N_5
REMARK    5  A    between atoms: C_10  and  O_11
REMARK    6  A    between atoms: O_11  and  S_12
REMARK    7  A    between atoms: S_12  and  C_13
REMARK    8  A    between atoms: C_17  and  C_18
REMARK    9  A    between atoms: C_17  and  C_19
REMARK                            x       y       z     vdW  Elec       q    Type
REMARK                         _______ _______ _______ _____ _____    ______ ____
ROOT
ATOM      1  N   UNL     1       5.772   3.496  13.805  0.00  0.00    +0.000 N 
ATOM      2  C   UNL     1       6.378   4.399  14.657  0.00  0.00    +0.000 C 
ATOM      3  O   UNL     1       7.269   5.169  14.315  0.00  0.00    +0.000 OA
ATOM      4  N   UNL     1       5.858   4.351  15.946  0.00  0.00    +0.000 N 
ATOM      5  N   UNL     1       4.942   3.379  16.321  0.00  0.00    +0.000 NA
ATOM      6  C   UNL     1       4.607   3.681  17.532  0.00  0.00    +0.000 C 
ATOM      7  C   UNL     1       5.152   4.951  18.082  0.00  0.00    +0.000 C 
ATOM      8  C   UNL     1       6.296   5.178  17.090  0.00  0.00    +0.000 C 
ATOM      9  C   UNL     1       6.438   6.668  16.763  0.00  0.00    +0.000 C 
ATOM     10  C   UNL     1       7.614   4.647  17.676  0.00  0.00    +0.000 C 
ATOM     11  H   UNL     1       4.930   3.106  14.212  0.00  0.00    +0.000 HD
ENDROOT
BRANCH   1  13
ATOM     12  C   UNL     1       6.437   1.977  11.973  0.00  0.00    +0.000 C 
ATOM     13  C   UNL     1       6.007   3.402  12.362  0.00  0.00    +0.000 C 
ATOM     14  C   UNL     1       7.068   4.419  11.913  0.00  0.00    +0.000 C 
ATOM     15  C   UNL     1       4.695   3.715  11.620  0.00  0.00    +0.000 C 
ENDBRANCH   1  13
BRANCH   6  16
ATOM     16  O   UNL     1       3.787   2.997  18.322  0.00  0.00    +0.000 OA
BRANCH  16  17
ATOM     17  S   UNL     1       2.179   3.160  18.383  0.00  0.00    +0.000 S 
ATOM     18  C   UNL     1       2.027   4.326  19.715  0.00  0.00    +0.000 C 
ATOM     19  O   UNL     1       1.761   3.830  17.163  0.00  0.00    +0.000 OA
ATOM     20  O   UNL     1       1.578   1.900  18.769  0.00  0.00    +0.000 OA
ENDBRANCH  16  17
ENDBRANCH   6  16
TORSDOF 3
ENDMDL
MODEL 6
REMARK VINA RESULT:      -6.7      4.199      6.236
REMARK  Name = 
REMARK  9 active torsions:
REMARK  status: ('A' for Active; 'I' for Inactive)
REMARK    1  A    between atoms: C_1  and  C_2
REMARK    2  A    between atoms: C_2  and  C_3
REMARK    3  A    between atoms: C_2  and  C_4
REMARK    4  A    between atoms: C_2  and  N_5
REMARK    5  A    between atoms: C_10  and  O_11
REMARK    6  A    between atoms: O_11  and  S_12
REMARK    7  A    between atoms: S_12  and  C_13
REMARK    8  A    between atoms: C_17  and  C_18
REMARK    9  A    between atoms: C_17  and  C_19
REMARK                            x       y       z     vdW  Elec       q    Type
REMARK                         _______ _______ _______ _____ _____    ______ ____
ROOT
ATOM      1  N   UNL     1       5.610   6.074  18.572  0.00  0.00    +0.000 N 
ATOM      2  C   UNL     1       4.747   5.093  19.019  0.00  0.00    +0.000 C 
ATOM      3  O   UNL     1       5.025   3.899  19.046  0.00  0.00    +0.000 OA
ATOM      4  N   UNL     1       3.530   5.608  19.452  0.00  0.00    +0.000 N 
ATOM      5  N   UNL     1       3.211   6.948  19.286  0.00  0.00    +0.000 NA
ATOM      6  C   UNL     1       2.069   7.097  19.872  0.00  0.00    +0.000 C 
ATOM      7  C   UNL     1       1.534   5.921  20.610  0.00  0.00    +0.000 C 
ATOM      8  C   UNL     1       2.393   4.822  19.977  0.00  0.00    +0.000 C 
ATOM      9  C   UNL     1       2.789   3.777  21.025  0.00  0.00    +0.000 C 
ATOM     10  C   UNL     1       1.622   4.144  18.833  0.00  0.00    +0.000 C 
ATOM     11  H   UNL     1       5.286   7.001  18.823  0.00  0.00    +0.000 HD
ENDROOT
BRANCH   1  13
ATOM     12  C   UNL     1       7.123   4.695  17.186  0.00  0.00    +0.000 C 
ATOM     13  C   UNL     1       7.007   5.862  18.181  0.00  0.00    +0.000 C 
ATOM     14  C   UNL     1       7.885   5.599  19.414  0.00  0.00    +0.000 C 
ATOM     15  C   UNL     1       7.528   7.131  17.480  0.00  0.00    +0.000 C 
ENDBRANCH   1  13
BRANCH   6  16
ATOM     16  O   UNL     1       1.344   8.209  19.925  0.00  0.00    +0.000 OA
BRANCH  16  17
ATOM     17  S   UNL     1       0.799   8.919  21.272  0.00  0.00    +0.000 S 
ATOM     18  C   UNL     1       0.560  10.578  20.684  0.00  0.00    +0.000 C 
ATOM     19  O   UNL     1      -0.512   8.362  21.559  0.00  0.00    +0.000 OA
ATOM     20  O   UNL     1       1.838   8.906  22.282  0.00  0.00    +0.000 OA
ENDBRANCH  16  17
ENDBRANCH   6  16
TORSDOF 3
ENDMDL
MODEL 7
REMARK VINA RESULT:      -6.5      4.203      6.230
REMARK  Name = 
REMARK  9 active torsions:
REMARK  status: ('A' for Active; 'I' for Inactive)
REMARK    1  A    between atoms: C_1  and  C_2
REMARK    2  A    between atoms: C_2  and  C_3
REMARK    3  A    between atoms: C_2  and  C_4
REMARK    4  A    between atoms: C_2  and  N_5
REMARK    5  A    between atoms: C_10  and  O_11
REMARK    6  A    between atoms: O_11  and  S_12
REMARK    7  A    between atoms: S_12  and  C_13
REMARK    8  A    between atoms: C_17  and  C_18
REMARK    9  A    between atoms: C_17  and  C_19
REMARK                            x       y       z     vdW  Elec       q    Type
REMARK                         _______ _______ _______ _____ _____    ______ ____
ROOT
ATOM      1  N   UNL     1       5.579   6.198  18.396  0.00  0.00    +0.000 N 
ATOM      2  C   UNL     1       4.743   5.204  18.864  0.00  0.00    +0.000 C 
ATOM      3  O   UNL     1       5.033   4.013  18.870  0.00  0.00    +0.000 OA
ATOM      4  N   UNL     1       3.536   5.702  19.344  0.00  0.00    +0.000 N 
ATOM      5  N   UNL     1       3.197   7.040  19.202  0.00  0.00    +0.000 NA
ATOM      6  C   UNL     1       2.075   7.171  19.829  0.00  0.00    +0.000 C 
ATOM      7  C   UNL     1       1.578   5.983  20.573  0.00  0.00    +0.000 C 
ATOM      8  C   UNL     1       2.425   4.900  19.900  0.00  0.00    +0.000 C 
ATOM      9  C   UNL     1       2.869   3.849  20.925  0.00  0.00    +0.000 C 
ATOM     10  C   UNL     1       1.622   4.224  18.778  0.00  0.00    +0.000 C 
ATOM     11  H   UNL     1       5.254   7.119  18.667  0.00  0.00    +0.000 HD
ENDROOT
BRANCH   1  13
ATOM     12  C   UNL     1       7.554   7.322  17.425  0.00  0.00    +0.000 C 
ATOM     13  C   UNL     1       6.963   6.005  17.955  0.00  0.00    +0.000 C 
ATOM     14  C   UNL     1       7.045   4.914  16.876  0.00  0.00    +0.000 C 
ATOM     15  C   UNL     1       7.814   5.558  19.158  0.00  0.00    +0.000 C 
ENDBRANCH   1  13
BRANCH   6  16
ATOM     16  O   UNL     1       1.341   8.275  19.917  0.00  0.00    +0.000 OA
BRANCH  16  17
ATOM     17  S   UNL     1       0.793   8.939  21.286  0.00  0.00    +0.000 S 
ATOM     18  C   UNL     1       0.576  10.622  20.761  0.00  0.00    +0.000 C 
ATOM     19  O   UNL     1      -0.527   8.386  21.542  0.00  0.00    +0.000 OA
ATOM     20  O   UNL     1       1.823   8.875  22.303  0.00  0.00    +0.000 OA
ENDBRANCH  16  17
ENDBRANCH   6  16
TORSDOF 3
ENDMDL
MODEL 8
REMARK VINA RESULT:      -6.5      2.403      6.078
REMARK  Name = 
REMARK  9 active torsions:
REMARK  status: ('A' for Active; 'I' for Inactive)
REMARK    1  A    between atoms: C_1  and  C_2
REMARK    2  A    between atoms: C_2  and  C_3
REMARK    3  A    between atoms: C_2  and  C_4
REMARK    4  A    between atoms: C_2  and  N_5
REMARK    5  A    between atoms: C_10  and  O_11
REMARK    6  A    between atoms: O_11  and  S_12
REMARK    7  A    between atoms: S_12  and  C_13
REMARK    8  A    between atoms: C_17  and  C_18
REMARK    9  A    between atoms: C_17  and  C_19
REMARK                            x       y       z     vdW  Elec       q    Type
REMARK                         _______ _______ _______ _____ _____    ______ ____
ROOT
ATOM      1  N   UNL     1       3.298   3.732  18.777  0.00  0.00    +0.000 N 
ATOM      2  C   UNL     1       4.308   4.644  19.009  0.00  0.00    +0.000 C 
ATOM      3  O   UNL     1       4.358   5.374  19.994  0.00  0.00    +0.000 OA
ATOM      4  N   UNL     1       5.275   4.638  18.010  0.00  0.00    +0.000 N 
ATOM      5  N   UNL     1       5.116   3.889  16.853  0.00  0.00    +0.000 NA
ATOM      6  C   UNL     1       6.220   4.040  16.199  0.00  0.00    +0.000 C 
ATOM      7  C   UNL     1       7.305   4.799  16.878  0.00  0.00    +0.000 C 
ATOM      8  C   UNL     1       6.475   5.501  17.956  0.00  0.00    +0.000 C 
ATOM      9  C   UNL     1       7.252   5.569  19.276  0.00  0.00    +0.000 C 
ATOM     10  C   UNL     1       6.107   6.920  17.497  0.00  0.00    +0.000 C 
ATOM     11  H   UNL     1       3.541   3.085  18.035  0.00  0.00    +0.000 HD
ENDROOT
BRANCH   1  13
ATOM     12  C   UNL     1       1.421   4.676  20.079  0.00  0.00    +0.000 C 
ATOM     13  C   UNL     1       2.214   3.410  19.709  0.00  0.00    +0.000 C 
ATOM     14  C   UNL     1       2.765   2.739  20.977  0.00  0.00    +0.000 C 
ATOM     15  C   UNL     1       1.243   2.429  19.027  0.00  0.00    +0.000 C 
ENDBRANCH   1  13
BRANCH   6  16
ATOM     16  O   UNL     1       6.505   3.545  14.999  0.00  0.00    +0.000 OA
BRANCH  16  17
ATOM     17  S   UNL     1       6.309   4.312  13.589  0.00  0.00    +0.000 S 
ATOM     18  C   UNL     1       6.405   2.941  12.464  0.00  0.00    +0.000 C 
ATOM     19  O   UNL     1       4.947   4.816  13.552  0.00  0.00    +0.000 OA
ATOM     20  O   UNL     1       7.427   5.206  13.364  0.00  0.00    +0.000 OA
ENDBRANCH  16  17
ENDBRANCH   6  16
TORSDOF 3
ENDMDL
MODEL 9
REMARK VINA RESULT:      -6.5      0.850      1.397
REMARK  Name = 
REMARK  9 active torsions:
REMARK  status: ('A' for Active; 'I' for Inactive)
REMARK    1  A    between atoms: C_1  and  C_2
REMARK    2  A    between atoms: C_2  and  C_3
REMARK    3  A    between atoms: C_2  and  C_4
REMARK    4  A    between atoms: C_2  and  N_5
REMARK    5  A    between atoms: C_10  and  O_11
REMARK    6  A    between atoms: O_11  and  S_12
REMARK    7  A    between atoms: S_12  and  C_13
REMARK    8  A    between atoms: C_17  and  C_18
REMARK    9  A    between atoms: C_17  and  C_19
REMARK                            x       y       z     vdW  Elec       q    Type
REMARK                         _______ _______ _______ _____ _____    ______ ____
ROOT
ATOM      1  N   UNL     1       5.707   3.805  13.820  0.00  0.00    +0.000 N 
ATOM      2  C   UNL     1       6.475   4.541  14.701  0.00  0.00    +0.000 C 
ATOM      3  O   UNL     1       7.549   5.054  14.407  0.00  0.00    +0.000 OA
ATOM      4  N   UNL     1       5.891   4.649  15.959  0.00  0.00    +0.000 N 
ATOM      5  N   UNL     1       4.740   3.948  16.285  0.00  0.00    +0.000 NA
ATOM      6  C   UNL     1       4.428   4.347  17.474  0.00  0.00    +0.000 C 
ATOM      7  C   UNL     1       5.247   5.448  18.050  0.00  0.00    +0.000 C 
ATOM      8  C   UNL     1       6.463   5.359  17.123  0.00  0.00    +0.000 C 
ATOM      9  C   UNL     1       6.995   6.759  16.798  0.00  0.00    +0.000 C 
ATOM     10  C   UNL     1       7.569   4.523  17.785  0.00  0.00    +0.000 C 
ATOM     11  H   UNL     1       4.773   3.649  14.180  0.00  0.00    +0.000 HD
ENDROOT
BRANCH   1  13
ATOM     12  C   UNL     1       7.084   4.602  11.929  0.00  0.00    +0.000 C 
ATOM     13  C   UNL     1       5.987   3.628  12.393  0.00  0.00    +0.000 C 
ATOM     14  C   UNL     1       4.713   3.826  11.558  0.00  0.00    +0.000 C 
ATOM     15  C   UNL     1       6.500   2.195  12.158  0.00  0.00    +0.000 C 
ENDBRANCH   1  13
BRANCH   6  16
ATOM     16  O   UNL     1       3.419   3.907  18.219  0.00  0.00    +0.000 OA
BRANCH  16  17
ATOM     17  S   UNL     1       3.268   2.412  18.817  0.00  0.00    +0.000 S 
ATOM     18  C   UNL     1       4.522   2.443  20.075  0.00  0.00    +0.000 C 
ATOM     19  O   UNL     1       1.979   2.337  19.485  0.00  0.00    +0.000 OA
ATOM     20  O   UNL     1       3.623   1.444  17.799  0.00  0.00    +0.000 OA
ENDBRANCH  16  17
ENDBRANCH   6  16
TORSDOF 3
ENDMDL
