MODEL 1
REMARK VINA RESULT:      -8.5      0.000      0.000
REMARK  Name = 
REMARK  8 active torsions:
REMARK  status: ('A' for Active; 'I' for Inactive)
REMARK    1  A    between atoms: C_1  and  O_2
REMARK    2  A    between atoms: O_2  and  C_3
REMARK    3  A    between atoms: C_12  and  C_13
REMARK    4  A    between atoms: C_13  and  C_14
REMARK    5  A    between atoms: C_14  and  C_15
REMARK    6  A    between atoms: C_15  and  N_16
REMARK    7  A    between atoms: N_19  and  C_20
REMARK    8  A    between atoms: C_24  and  C_25
REMARK                            x       y       z     vdW  Elec       q    Type
REMARK                         _______ _______ _______ _____ _____    ______ ____
ROOT
ATOM      1  N   UNL     1       6.462   7.027  16.977  0.00  0.00    +0.000 NA
ATOM      2  C   UNL     1       6.381   5.816  16.132  0.00  0.00    +0.000 C 
ATOM      3  C   UNL     1       6.399   4.413  16.793  0.00  0.00    +0.000 C 
ATOM      4  N   UNL     1       5.780   4.357  18.124  0.00  0.00    +0.000 N 
ATOM      5  C   UNL     1       6.101   5.520  18.974  0.00  0.00    +0.000 C 
ATOM      6  C   UNL     1       5.741   6.830  18.245  0.00  0.00    +0.000 C 
ENDROOT
BRANCH   4   7
ATOM      7  C   UNL     1       4.493   3.853  18.319  0.00  0.00    +0.000 A 
ATOM      8  C   UNL     1       3.962   3.006  17.330  0.00  0.00    +0.000 A 
ATOM      9  C   UNL     1       2.718   2.394  17.471  0.00  0.00    +0.000 A 
ATOM     10  C   UNL     1       1.968   2.619  18.618  0.00  0.00    +0.000 A 
ATOM     11  C   UNL     1       2.447   3.477  19.616  0.00  0.00    +0.000 A 
ATOM     12  C   UNL     1       3.706   4.101  19.448  0.00  0.00    +0.000 A 
BRANCH  11  13
ATOM     13  C   UNL     1       1.645   3.708  20.871  0.00  0.00    +0.000 C 
ATOM     14  F   UNL     1       1.317   2.557  21.527  0.00  0.00    +0.000 F 
ATOM     15  F   UNL     1       2.310   4.472  21.782  0.00  0.00    +0.000 F 
ATOM     16  F   UNL     1       0.466   4.347  20.635  0.00  0.00    +0.000 F 
ENDBRANCH  11  13
ENDBRANCH   4   7
BRANCH   1  17
ATOM     17  C   UNL     1       7.806   7.574  17.173  0.00  0.00    +0.000 C 
BRANCH  17  18
ATOM     18  C   UNL     1       7.815   8.814  18.082  0.00  0.00    +0.000 C 
BRANCH  18  19
ATOM     19  C   UNL     1       8.829   9.884  17.633  0.00  0.00    +0.000 C 
BRANCH  19  29
ATOM     20  C   UNL     1      10.990  14.113  19.211  0.00  0.00    +0.000 A 
ATOM     21  C   UNL     1      11.615  14.236  17.956  0.00  0.00    +0.000 A 
ATOM     22  C   UNL     1      11.587  13.205  17.029  0.00  0.00    +0.000 A 
ATOM     23  C   UNL     1      10.880  12.048  17.326  0.00  0.00    +0.000 A 
ATOM     24  C   UNL     1      10.213  11.904  18.556  0.00  0.00    +0.000 A 
ATOM     25  C   UNL     1      10.322  12.923  19.542  0.00  0.00    +0.000 A 
ATOM     26  C   UNL     1       9.598  12.690  20.850  0.00  0.00    +0.000 C 
ATOM     27  C   UNL     1       9.470  11.213  21.220  0.00  0.00    +0.000 C 
ATOM     28  C   UNL     1       9.041  10.384  20.060  0.00  0.00    +0.000 C 
ATOM     29  C   UNL     1       9.349  10.711  18.791  0.00  0.00    +0.000 C 
BRANCH  20  31
ATOM     30  C   UNL     1      11.508  16.467  19.253  0.00  0.00    +0.000 C 
ATOM     31  O   UNL     1      11.061  15.293  19.905  0.00  0.00    +0.000 OA
ENDBRANCH  20  31
ENDBRANCH  19  29
ENDBRANCH  18  19
ENDBRANCH  17  18
ENDBRANCH   1  17
TORSDOF 7
ENDMDL
MODEL 2
REMARK VINA RESULT:      -8.4      1.119      1.319
REMARK  Name = 
REMARK  8 active torsions:
REMARK  status: ('A' for Active; 'I' for Inactive)
REMARK    1  A    between atoms: C_1  and  O_2
REMARK    2  A    between atoms: O_2  and  C_3
REMARK    3  A    between atoms: C_12  and  C_13
REMARK    4  A    between atoms: C_13  and  C_14
REMARK    5  A    between atoms: C_14  and  C_15
REMARK    6  A    between atoms: C_15  and  N_16
REMARK    7  A    between atoms: N_19  and  C_20
REMARK    8  A    between atoms: C_24  and  C_25
REMARK                            x       y       z     vdW  Elec       q    Type
REMARK                         _______ _______ _______ _____ _____    ______ ____
ROOT
ATOM      1  N   UNL     1       6.536   7.261  18.164  0.00  0.00    +0.000 NA
ATOM      2  C   UNL     1       5.259   7.373  17.426  0.00  0.00    +0.000 C 
ATOM      3  C   UNL     1       4.762   6.186  16.560  0.00  0.00    +0.000 C 
ATOM      4  N   UNL     1       5.142   4.859  17.068  0.00  0.00    +0.000 N 
ATOM      5  C   UNL     1       6.521   4.799  17.588  0.00  0.00    +0.000 C 
ATOM      6  C   UNL     1       6.736   5.889  18.658  0.00  0.00    +0.000 C 
ENDROOT
BRANCH   4   7
ATOM      7  C   UNL     1       4.241   4.048  17.759  0.00  0.00    +0.000 A 
ATOM      8  C   UNL     1       4.190   2.685  17.418  0.00  0.00    +0.000 A 
ATOM      9  C   UNL     1       3.378   1.782  18.103  0.00  0.00    +0.000 A 
ATOM     10  C   UNL     1       2.590   2.229  19.156  0.00  0.00    +0.000 A 
ATOM     11  C   UNL     1       2.590   3.584  19.510  0.00  0.00    +0.000 A 
ATOM     12  C   UNL     1       3.409   4.487  18.794  0.00  0.00    +0.000 A 
BRANCH  11  13
ATOM     13  C   UNL     1       1.751   4.069  20.664  0.00  0.00    +0.000 C 
ATOM     14  F   UNL     1       2.377   3.965  21.873  0.00  0.00    +0.000 F 
ATOM     15  F   UNL     1       1.404   5.380  20.543  0.00  0.00    +0.000 F 
ATOM     16  F   UNL     1       0.583   3.381  20.795  0.00  0.00    +0.000 F 
ENDBRANCH  11  13
ENDBRANCH   4   7
BRANCH   1  17
ATOM     17  C   UNL     1       7.715   7.788  17.472  0.00  0.00    +0.000 C 
BRANCH  17  18
ATOM     18  C   UNL     1       8.073   9.215  17.916  0.00  0.00    +0.000 C 
BRANCH  18  19
ATOM     19  C   UNL     1       9.261   9.262  18.896  0.00  0.00    +0.000 C 
BRANCH  19  29
ATOM     20  C   UNL     1      10.047  14.191  18.520  0.00  0.00    +0.000 A 
ATOM     21  C   UNL     1      10.792  13.961  17.349  0.00  0.00    +0.000 A 
ATOM     22  C   UNL     1      11.154  12.678  16.961  0.00  0.00    +0.000 A 
ATOM     23  C   UNL     1      10.726  11.597  17.718  0.00  0.00    +0.000 A 
ATOM     24  C   UNL     1       9.949  11.787  18.875  0.00  0.00    +0.000 A 
ATOM     25  C   UNL     1       9.658  13.106  19.322  0.00  0.00    +0.000 A 
ATOM     26  C   UNL     1       8.838  13.234  20.588  0.00  0.00    +0.000 C 
ATOM     27  C   UNL     1       9.034  12.072  21.561  0.00  0.00    +0.000 C 
ATOM     28  C   UNL     1       8.996  10.754  20.868  0.00  0.00    +0.000 C 
ATOM     29  C   UNL     1       9.387  10.604  19.590  0.00  0.00    +0.000 C 
BRANCH  20  31
ATOM     30  C   UNL     1       8.615  16.033  17.917  0.00  0.00    +0.000 C 
ATOM     31  O   UNL     1       9.720  15.517  18.633  0.00  0.00    +0.000 OA
ENDBRANCH  20  31
ENDBRANCH  19  29
ENDBRANCH  18  19
ENDBRANCH  17  18
ENDBRANCH   1  17
TORSDOF 7
ENDMDL
MODEL 3
REMARK VINA RESULT:      -8.4      6.660      8.516
REMARK  Name = 
REMARK  8 active torsions:
REMARK  status: ('A' for Active; 'I' for Inactive)
REMARK    1  A    between atoms: C_1  and  O_2
REMARK    2  A    between atoms: O_2  and  C_3
REMARK    3  A    between atoms: C_12  and  C_13
REMARK    4  A    between atoms: C_13  and  C_14
REMARK    5  A    between atoms: C_14  and  C_15
REMARK    6  A    between atoms: C_15  and  N_16
REMARK    7  A    between atoms: N_19  and  C_20
REMARK    8  A    between atoms: C_24  and  C_25
REMARK                            x       y       z     vdW  Elec       q    Type
REMARK                         _______ _______ _______ _____ _____    ______ ____
ROOT
ATOM      1  N   UNL     1       3.742   5.753  19.255  0.00  0.00    +0.000 NA
ATOM      2  C   UNL     1       5.113   5.225  19.429  0.00  0.00    +0.000 C 
ATOM      3  C   UNL     1       5.559   3.963  18.644  0.00  0.00    +0.000 C 
ATOM      4  N   UNL     1       4.934   3.815  17.322  0.00  0.00    +0.000 N 
ATOM      5  C   UNL     1       3.501   4.164  17.303  0.00  0.00    +0.000 C 
ATOM      6  C   UNL     1       3.290   5.584  17.865  0.00  0.00    +0.000 C 
ENDROOT
BRANCH   4   7
ATOM      7  C   UNL     1       5.611   4.141  16.145  0.00  0.00    +0.000 A 
ATOM      8  C   UNL     1       6.765   4.938  16.250  0.00  0.00    +0.000 A 
ATOM      9  C   UNL     1       7.549   5.252  15.141  0.00  0.00    +0.000 A 
ATOM     10  C   UNL     1       7.190   4.772  13.888  0.00  0.00    +0.000 A 
ATOM     11  C   UNL     1       6.033   3.998  13.735  0.00  0.00    +0.000 A 
ATOM     12  C   UNL     1       5.242   3.702  14.870  0.00  0.00    +0.000 A 
BRANCH  11  13
ATOM     13  C   UNL     1       5.651   3.459  12.380  0.00  0.00    +0.000 C 
ATOM     14  F   UNL     1       5.873   2.118  12.246  0.00  0.00    +0.000 F 
ATOM     15  F   UNL     1       4.331   3.642  12.098  0.00  0.00    +0.000 F 
ATOM     16  F   UNL     1       6.339   4.049  11.363  0.00  0.00    +0.000 F 
ENDBRANCH  11  13
ENDBRANCH   4   7
BRANCH   1  17
ATOM     17  C   UNL     1       2.755   5.283  20.229  0.00  0.00    +0.000 C 
BRANCH  17  18
ATOM     18  C   UNL     1       1.476   6.135  20.233  0.00  0.00    +0.000 C 
BRANCH  18  19
ATOM     19  C   UNL     1       1.589   7.390  21.120  0.00  0.00    +0.000 C 
BRANCH  19  29
ATOM     20  C   UNL     1      -0.234  12.041  21.427  0.00  0.00    +0.000 A 
ATOM     21  C   UNL     1      -0.850  11.696  22.643  0.00  0.00    +0.000 A 
ATOM     22  C   UNL     1      -0.904  10.380  23.080  0.00  0.00    +0.000 A 
ATOM     23  C   UNL     1      -0.289   9.392  22.326  0.00  0.00    +0.000 A 
ATOM     24  C   UNL     1       0.368   9.705  21.122  0.00  0.00    +0.000 A 
ATOM     25  C   UNL     1       0.342  11.039  20.629  0.00  0.00    +0.000 A 
ATOM     26  C   UNL     1       1.049  11.298  19.316  0.00  0.00    +0.000 C 
ATOM     27  C   UNL     1       1.062  10.088  18.383  0.00  0.00    +0.000 C 
ATOM     28  C   UNL     1       1.423   8.834  19.103  0.00  0.00    +0.000 C 
ATOM     29  C   UNL     1       1.138   8.647  20.404  0.00  0.00    +0.000 C 
BRANCH  20  31
ATOM     30  C   UNL     1       0.931  14.138  21.658  0.00  0.00    +0.000 C 
ATOM     31  O   UNL     1      -0.211  13.402  21.265  0.00  0.00    +0.000 OA
ENDBRANCH  20  31
ENDBRANCH  19  29
ENDBRANCH  18  19
ENDBRANCH  17  18
ENDBRANCH   1  17
TORSDOF 7
ENDMDL
MODEL 4
REMARK VINA RESULT:      -8.3      1.575      1.816
REMARK  Name = 
REMARK  8 active torsions:
REMARK  status: ('A' for Active; 'I' for Inactive)
REMARK    1  A    between atoms: C_1  and  O_2
REMARK    2  A    between atoms: O_2  and  C_3
REMARK    3  A    between atoms: C_12  and  C_13
REMARK    4  A    between atoms: C_13  and  C_14
REMARK    5  A    between atoms: C_14  and  C_15
REMARK    6  A    between atoms: C_15  and  N_16
REMARK    7  A    between atoms: N_19  and  C_20
REMARK    8  A    between atoms: C_24  and  C_25
REMARK                            x       y       z     vdW  Elec       q    Type
REMARK                         _______ _______ _______ _____ _____    ______ ____
ROOT
ATOM      1  N   UNL     1       6.474   7.076  18.069  0.00  0.00    +0.000 NA
ATOM      2  C   UNL     1       5.314   7.054  17.150  0.00  0.00    +0.000 C 
ATOM      3  C   UNL     1       4.917   5.732  16.442  0.00  0.00    +0.000 C 
ATOM      4  N   UNL     1       5.194   4.516  17.220  0.00  0.00    +0.000 N 
ATOM      5  C   UNL     1       6.486   4.552  17.933  0.00  0.00    +0.000 C 
ATOM      6  C   UNL     1       6.573   5.812  18.817  0.00  0.00    +0.000 C 
ENDROOT
BRANCH   4   7
ATOM      7  C   UNL     1       4.189   3.834  17.907  0.00  0.00    +0.000 A 
ATOM      8  C   UNL     1       3.960   2.488  17.573  0.00  0.00    +0.000 A 
ATOM      9  C   UNL     1       3.031   1.705  18.256  0.00  0.00    +0.000 A 
ATOM     10  C   UNL     1       2.301   2.258  19.299  0.00  0.00    +0.000 A 
ATOM     11  C   UNL     1       2.477   3.603  19.647  0.00  0.00    +0.000 A 
ATOM     12  C   UNL     1       3.414   4.386  18.933  0.00  0.00    +0.000 A 
BRANCH  11  13
ATOM     13  C   UNL     1       1.700   4.202  20.791  0.00  0.00    +0.000 C 
ATOM     14  F   UNL     1       1.963   3.612  21.994  0.00  0.00    +0.000 F 
ATOM     15  F   UNL     1       1.966   5.526  20.967  0.00  0.00    +0.000 F 
ATOM     16  F   UNL     1       0.352   4.109  20.622  0.00  0.00    +0.000 F 
ENDBRANCH  11  13
ENDBRANCH   4   7
BRANCH   1  17
ATOM     17  C   UNL     1       7.748   7.478  17.470  0.00  0.00    +0.000 C 
BRANCH  17  18
ATOM     18  C   UNL     1       8.460   8.577  18.275  0.00  0.00    +0.000 C 
BRANCH  18  19
ATOM     19  C   UNL     1       8.157   9.997  17.758  0.00  0.00    +0.000 C 
BRANCH  19  29
ATOM     20  C   UNL     1       8.885  14.702  19.301  0.00  0.00    +0.000 A 
ATOM     21  C   UNL     1       7.863  15.122  18.431  0.00  0.00    +0.000 A 
ATOM     22  C   UNL     1       7.319  14.265  17.485  0.00  0.00    +0.000 A 
ATOM     23  C   UNL     1       7.756  12.950  17.434  0.00  0.00    +0.000 A 
ATOM     24  C   UNL     1       8.752  12.484  18.312  0.00  0.00    +0.000 A 
ATOM     25  C   UNL     1       9.375  13.388  19.217  0.00  0.00    +0.000 A 
ATOM     26  C   UNL     1      10.454  12.823  20.115  0.00  0.00    +0.000 C 
ATOM     27  C   UNL     1      11.208  11.647  19.494  0.00  0.00    +0.000 C 
ATOM     28  C   UNL     1      10.284  10.667  18.858  0.00  0.00    +0.000 C 
ATOM     29  C   UNL     1       9.103  11.034  18.328  0.00  0.00    +0.000 C 
BRANCH  20  31
ATOM     30  C   UNL     1       8.331  16.808  20.333  0.00  0.00    +0.000 C 
ATOM     31  O   UNL     1       9.181  15.684  20.211  0.00  0.00    +0.000 OA
ENDBRANCH  20  31
ENDBRANCH  19  29
ENDBRANCH  18  19
ENDBRANCH  17  18
ENDBRANCH   1  17
TORSDOF 7
ENDMDL
MODEL 5
REMARK VINA RESULT:      -8.2      6.349      8.597
REMARK  Name = 
REMARK  8 active torsions:
REMARK  status: ('A' for Active; 'I' for Inactive)
REMARK    1  A    between atoms: C_1  and  O_2
REMARK    2  A    between atoms: O_2  and  C_3
REMARK    3  A    between atoms: C_12  and  C_13
REMARK    4  A    between atoms: C_13  and  C_14
REMARK    5  A    between atoms: C_14  and  C_15
REMARK    6  A    between atoms: C_15  and  N_16
REMARK    7  A    between atoms: N_19  and  C_20
REMARK    8  A    between atoms: C_24  and  C_25
REMARK                            x       y       z     vdW  Elec       q    Type
REMARK                         _______ _______ _______ _____ _____    ______ ____
ROOT
ATOM      1  N   UNL     1       4.385   5.990  17.764  0.00  0.00    +0.000 NA
ATOM      2  C   UNL     1       5.749   6.488  17.480  0.00  0.00    +0.000 C 
ATOM      3  C   UNL     1       6.840   5.503  16.982  0.00  0.00    +0.000 C 
ATOM      4  N   UNL     1       6.333   4.396  16.159  0.00  0.00    +0.000 N 
ATOM      5  C   UNL     1       5.067   3.823  16.655  0.00  0.00    +0.000 C 
ATOM      6  C   UNL     1       4.006   4.931  16.815  0.00  0.00    +0.000 C 
ENDROOT
BRANCH   4   7
ATOM      7  C   UNL     1       6.446   4.398  14.768  0.00  0.00    +0.000 A 
ATOM      8  C   UNL     1       7.593   4.982  14.203  0.00  0.00    +0.000 A 
ATOM      9  C   UNL     1       7.830   4.964  12.829  0.00  0.00    +0.000 A 
ATOM     10  C   UNL     1       6.913   4.356  11.982  0.00  0.00    +0.000 A 
ATOM     11  C   UNL     1       5.744   3.786  12.500  0.00  0.00    +0.000 A 
ATOM     12  C   UNL     1       5.514   3.827  13.895  0.00  0.00    +0.000 A 
BRANCH  11  13
ATOM     13  C   UNL     1       4.757   3.108  11.586  0.00  0.00    +0.000 C 
ATOM     14  F   UNL     1       3.532   2.912  12.156  0.00  0.00    +0.000 F 
ATOM     15  F   UNL     1       4.522   3.822  10.450  0.00  0.00    +0.000 F 
ATOM     16  F   UNL     1       5.174   1.877  11.177  0.00  0.00    +0.000 F 
ENDBRANCH  11  13
ENDBRANCH   4   7
BRANCH   1  17
ATOM     17  C   UNL     1       4.124   5.619  19.156  0.00  0.00    +0.000 C 
BRANCH  17  18
ATOM     18  C   UNL     1       2.631   5.683  19.516  0.00  0.00    +0.000 C 
BRANCH  18  19
ATOM     19  C   UNL     1       2.305   6.784  20.545  0.00  0.00    +0.000 C 
BRANCH  19  29
ATOM     20  C   UNL     1       0.049  11.214  21.123  0.00  0.00    +0.000 A 
ATOM     21  C   UNL     1      -0.471  10.765  22.350  0.00  0.00    +0.000 A 
ATOM     22  C   UNL     1      -0.373   9.435  22.735  0.00  0.00    +0.000 A 
ATOM     23  C   UNL     1       0.300   8.542  21.914  0.00  0.00    +0.000 A 
ATOM     24  C   UNL     1       0.863   8.963  20.696  0.00  0.00    +0.000 A 
ATOM     25  C   UNL     1       0.681  10.305  20.260  0.00  0.00    +0.000 A 
ATOM     26  C   UNL     1       1.295  10.681  18.929  0.00  0.00    +0.000 C 
ATOM     27  C   UNL     1       1.383   9.514  17.947  0.00  0.00    +0.000 C 
ATOM     28  C   UNL     1       1.900   8.277  18.597  0.00  0.00    +0.000 C 
ATOM     29  C   UNL     1       1.699   8.015  19.902  0.00  0.00    +0.000 C 
BRANCH  20  31
ATOM     30  C   UNL     1      -1.065  13.255  21.758  0.00  0.00    +0.000 C 
ATOM     31  O   UNL     1      -0.070  12.576  21.016  0.00  0.00    +0.000 OA
ENDBRANCH  20  31
ENDBRANCH  19  29
ENDBRANCH  18  19
ENDBRANCH  17  18
ENDBRANCH   1  17
TORSDOF 7
ENDMDL
MODEL 6
REMARK VINA RESULT:      -8.2      7.998     11.311
REMARK  Name = 
REMARK  8 active torsions:
REMARK  status: ('A' for Active; 'I' for Inactive)
REMARK    1  A    between atoms: C_1  and  O_2
REMARK    2  A    between atoms: O_2  and  C_3
REMARK    3  A    between atoms: C_12  and  C_13
REMARK    4  A    between atoms: C_13  and  C_14
REMARK    5  A    between atoms: C_14  and  C_15
REMARK    6  A    between atoms: C_15  and  N_16
REMARK    7  A    between atoms: N_19  and  C_20
REMARK    8  A    between atoms: C_24  and  C_25
REMARK                            x       y       z     vdW  Elec       q    Type
REMARK                         _______ _______ _______ _____ _____    ______ ____
ROOT
ATOM      1  N   UNL     1       0.172  10.478  19.238  0.00  0.00    +0.000 NA
ATOM      2  C   UNL     1       0.278  10.873  20.659  0.00  0.00    +0.000 C 
ATOM      3  C   UNL     1      -0.179  12.289  21.101  0.00  0.00    +0.000 C 
ATOM      4  N   UNL     1      -1.295  12.842  20.321  0.00  0.00    +0.000 N 
ATOM      5  C   UNL     1      -1.193  12.574  18.873  0.00  0.00    +0.000 C 
ATOM      6  C   UNL     1      -1.029  11.062  18.620  0.00  0.00    +0.000 C 
ENDROOT
BRANCH   4   7
ATOM      7  C   UNL     1      -2.604  12.843  20.805  0.00  0.00    +0.000 A 
ATOM      8  C   UNL     1      -3.644  12.618  19.886  0.00  0.00    +0.000 A 
ATOM      9  C   UNL     1      -4.976  12.525  20.287  0.00  0.00    +0.000 A 
ATOM     10  C   UNL     1      -5.300  12.660  21.631  0.00  0.00    +0.000 A 
ATOM     11  C   UNL     1      -4.298  12.913  22.575  0.00  0.00    +0.000 A 
ATOM     12  C   UNL     1      -2.953  13.018  22.148  0.00  0.00    +0.000 A 
BRANCH  11  13
ATOM     13  C   UNL     1      -4.643  13.040  24.037  0.00  0.00    +0.000 C 
ATOM     14  F   UNL     1      -4.169  14.184  24.611  0.00  0.00    +0.000 F 
ATOM     15  F   UNL     1      -5.988  13.049  24.257  0.00  0.00    +0.000 F 
ATOM     16  F   UNL     1      -4.147  12.018  24.788  0.00  0.00    +0.000 F 
ENDBRANCH  11  13
ENDBRANCH   4   7
BRANCH   1  17
ATOM     17  C   UNL     1       1.377  10.684  18.432  0.00  0.00    +0.000 C 
BRANCH  17  18
ATOM     18  C   UNL     1       1.965   9.369  17.897  0.00  0.00    +0.000 C 
BRANCH  18  19
ATOM     19  C   UNL     1       1.901   8.219  18.922  0.00  0.00    +0.000 C 
BRANCH  19  29
ATOM     20  C   UNL     1       2.406   3.243  18.747  0.00  0.00    +0.000 A 
ATOM     21  C   UNL     1       1.610   3.143  19.903  0.00  0.00    +0.000 A 
ATOM     22  C   UNL     1       1.262   4.265  20.641  0.00  0.00    +0.000 A 
ATOM     23  C   UNL     1       1.663   5.517  20.198  0.00  0.00    +0.000 A 
ATOM     24  C   UNL     1       2.430   5.658  19.027  0.00  0.00    +0.000 A 
ATOM     25  C   UNL     1       2.865   4.501  18.324  0.00  0.00    +0.000 A 
ATOM     26  C   UNL     1       3.706   4.727  17.087  0.00  0.00    +0.000 C 
ATOM     27  C   UNL     1       4.544   6.004  17.146  0.00  0.00    +0.000 C 
ATOM     28  C   UNL     1       3.754   7.165  17.641  0.00  0.00    +0.000 C 
ATOM     29  C   UNL     1       2.729   7.021  18.500  0.00  0.00    +0.000 C 
BRANCH  20  31
ATOM     30  C   UNL     1       3.673   1.230  18.358  0.00  0.00    +0.000 C 
ATOM     31  O   UNL     1       2.523   2.022  18.134  0.00  0.00    +0.000 OA
ENDBRANCH  20  31
ENDBRANCH  19  29
ENDBRANCH  18  19
ENDBRANCH  17  18
ENDBRANCH   1  17
TORSDOF 7
ENDMDL
MODEL 7
REMARK VINA RESULT:      -8.1      0.971      2.172
REMARK  Name = 
REMARK  8 active torsions:
REMARK  status: ('A' for Active; 'I' for Inactive)
REMARK    1  A    between atoms: C_1  and  O_2
REMARK    2  A    between atoms: O_2  and  C_3
REMARK    3  A    between atoms: C_12  and  C_13
REMARK    4  A    between atoms: C_13  and  C_14
REMARK    5  A    between atoms: C_14  and  C_15
REMARK    6  A    between atoms: C_15  and  N_16
REMARK    7  A    between atoms: N_19  and  C_20
REMARK    8  A    between atoms: C_24  and  C_25
REMARK                            x       y       z     vdW  Elec       q    Type
REMARK                         _______ _______ _______ _____ _____    ______ ____
ROOT
ATOM      1  N   UNL     1       6.652   7.096  17.097  0.00  0.00    +0.000 NA
ATOM      2  C   UNL     1       6.625   5.867  16.275  0.00  0.00    +0.000 C 
ATOM      3  C   UNL     1       6.571   4.478  16.965  0.00  0.00    +0.000 C 
ATOM      4  N   UNL     1       5.844   4.459  18.242  0.00  0.00    +0.000 N 
ATOM      5  C   UNL     1       6.108   5.638  19.090  0.00  0.00    +0.000 C 
ATOM      6  C   UNL     1       5.826   6.935  18.305  0.00  0.00    +0.000 C 
ENDROOT
BRANCH   4   7
ATOM      7  C   UNL     1       4.539   3.974  18.341  0.00  0.00    +0.000 A 
ATOM      8  C   UNL     1       4.035   3.221  17.265  0.00  0.00    +0.000 A 
ATOM      9  C   UNL     1       2.773   2.630  17.305  0.00  0.00    +0.000 A 
ATOM     10  C   UNL     1       1.978   2.784  18.433  0.00  0.00    +0.000 A 
ATOM     11  C   UNL     1       2.430   3.548  19.515  0.00  0.00    +0.000 A 
ATOM     12  C   UNL     1       3.708   4.152  19.451  0.00  0.00    +0.000 A 
BRANCH  11  13
ATOM     13  C   UNL     1       1.578   3.700  20.749  0.00  0.00    +0.000 C 
ATOM     14  F   UNL     1       2.303   3.845  21.897  0.00  0.00    +0.000 F 
ATOM     15  F   UNL     1       0.763   4.790  20.690  0.00  0.00    +0.000 F 
ATOM     16  F   UNL     1       0.761   2.632  20.963  0.00  0.00    +0.000 F 
ENDBRANCH  11  13
ENDBRANCH   4   7
BRANCH   1  17
ATOM     17  C   UNL     1       7.982   7.632  17.392  0.00  0.00    +0.000 C 
BRANCH  17  18
ATOM     18  C   UNL     1       7.938   9.086  17.886  0.00  0.00    +0.000 C 
BRANCH  18  19
ATOM     19  C   UNL     1       9.102   9.437  18.833  0.00  0.00    +0.000 C 
BRANCH  19  29
ATOM     20  C   UNL     1      10.122  13.714  21.226  0.00  0.00    +0.000 A 
ATOM     21  C   UNL     1       9.295  13.294  22.283  0.00  0.00    +0.000 A 
ATOM     22  C   UNL     1       8.480  12.177  22.166  0.00  0.00    +0.000 A 
ATOM     23  C   UNL     1       8.524  11.428  20.999  0.00  0.00    +0.000 A 
ATOM     24  C   UNL     1       9.366  11.797  19.934  0.00  0.00    +0.000 A 
ATOM     25  C   UNL     1      10.130  12.994  20.019  0.00  0.00    +0.000 A 
ATOM     26  C   UNL     1      10.995  13.341  18.827  0.00  0.00    +0.000 C 
ATOM     27  C   UNL     1      10.437  12.827  17.500  0.00  0.00    +0.000 C 
ATOM     28  C   UNL     1       9.970  11.417  17.602  0.00  0.00    +0.000 C 
ATOM     29  C   UNL     1       9.496  10.898  18.750  0.00  0.00    +0.000 C 
BRANCH  20  31
ATOM     30  C   UNL     1      10.305  15.960  22.078  0.00  0.00    +0.000 C 
ATOM     31  O   UNL     1      10.908  14.768  21.614  0.00  0.00    +0.000 OA
ENDBRANCH  20  31
ENDBRANCH  19  29
ENDBRANCH  18  19
ENDBRANCH  17  18
ENDBRANCH   1  17
TORSDOF 7
ENDMDL
MODEL 8
REMARK VINA RESULT:      -8.1      6.785      8.638
REMARK  Name = 
REMARK  8 active torsions:
REMARK  status: ('A' for Active; 'I' for Inactive)
REMARK    1  A    between atoms: C_1  and  O_2
REMARK    2  A    between atoms: O_2  and  C_3
REMARK    3  A    between atoms: C_12  and  C_13
REMARK    4  A    between atoms: C_13  and  C_14
REMARK    5  A    between atoms: C_14  and  C_15
REMARK    6  A    between atoms: C_15  and  N_16
REMARK    7  A    between atoms: N_19  and  C_20
REMARK    8  A    between atoms: C_24  and  C_25
REMARK                            x       y       z     vdW  Elec       q    Type
REMARK                         _______ _______ _______ _____ _____    ______ ____
ROOT
ATOM      1  N   UNL     1       3.239   5.894  19.185  0.00  0.00    +0.000 NA
ATOM      2  C   UNL     1       4.581   5.378  19.531  0.00  0.00    +0.000 C 
ATOM      3  C   UNL     1       5.113   4.091  18.846  0.00  0.00    +0.000 C 
ATOM      4  N   UNL     1       4.643   3.895  17.468  0.00  0.00    +0.000 N 
ATOM      5  C   UNL     1       3.220   4.237  17.274  0.00  0.00    +0.000 C 
ATOM      6  C   UNL     1       2.947   5.676  17.758  0.00  0.00    +0.000 C 
ENDROOT
BRANCH   4   7
ATOM      7  C   UNL     1       5.448   4.183  16.365  0.00  0.00    +0.000 A 
ATOM      8  C   UNL     1       6.642   4.892  16.590  0.00  0.00    +0.000 A 
ATOM      9  C   UNL     1       7.547   5.158  15.564  0.00  0.00    +0.000 A 
ATOM     10  C   UNL     1       7.274   4.719  14.276  0.00  0.00    +0.000 A 
ATOM     11  C   UNL     1       6.084   4.034  14.002  0.00  0.00    +0.000 A 
ATOM     12  C   UNL     1       5.170   3.785  15.053  0.00  0.00    +0.000 A 
BRANCH  11  13
ATOM     13  C   UNL     1       5.793   3.538  12.609  0.00  0.00    +0.000 C 
ATOM     14  F   UNL     1       4.515   3.787  12.198  0.00  0.00    +0.000 F 
ATOM     15  F   UNL     1       6.598   4.113  11.672  0.00  0.00    +0.000 F 
ATOM     16  F   UNL     1       5.967   2.194  12.479  0.00  0.00    +0.000 F 
ENDBRANCH  11  13
ENDBRANCH   4   7
BRANCH   1  17
ATOM     17  C   UNL     1       2.148   5.455  20.056  0.00  0.00    +0.000 C 
BRANCH  17  18
ATOM     18  C   UNL     1       1.629   6.578  20.967  0.00  0.00    +0.000 C 
BRANCH  18  19
ATOM     19  C   UNL     1       1.589   7.952  20.269  0.00  0.00    +0.000 C 
BRANCH  19  29
ATOM     20  C   UNL     1      -0.891  12.292  20.503  0.00  0.00    +0.000 A 
ATOM     21  C   UNL     1      -0.301  12.670  19.283  0.00  0.00    +0.000 A 
ATOM     22  C   UNL     1       0.730  11.934  18.719  0.00  0.00    +0.000 A 
ATOM     23  C   UNL     1       1.151  10.770  19.345  0.00  0.00    +0.000 A 
ATOM     24  C   UNL     1       0.560  10.342  20.548  0.00  0.00    +0.000 A 
ATOM     25  C   UNL     1      -0.432  11.147  21.173  0.00  0.00    +0.000 A 
ATOM     26  C   UNL     1      -1.007  10.636  22.477  0.00  0.00    +0.000 C 
ATOM     27  C   UNL     1      -0.026   9.784  23.282  0.00  0.00    +0.000 C 
ATOM     28  C   UNL     1       0.681   8.792  22.426  0.00  0.00    +0.000 C 
ATOM     29  C   UNL     1       0.935   9.018  21.125  0.00  0.00    +0.000 C 
BRANCH  20  31
ATOM     30  C   UNL     1      -3.254  12.752  20.372  0.00  0.00    +0.000 C 
ATOM     31  O   UNL     1      -1.953  13.107  20.800  0.00  0.00    +0.000 OA
ENDBRANCH  20  31
ENDBRANCH  19  29
ENDBRANCH  18  19
ENDBRANCH  17  18
ENDBRANCH   1  17
TORSDOF 7
ENDMDL
MODEL 9
REMARK VINA RESULT:      -8.1      7.545     10.656
REMARK  Name = 
REMARK  8 active torsions:
REMARK  status: ('A' for Active; 'I' for Inactive)
REMARK    1  A    between atoms: C_1  and  O_2
REMARK    2  A    between atoms: O_2  and  C_3
REMARK    3  A    between atoms: C_12  and  C_13
REMARK    4  A    between atoms: C_13  and  C_14
REMARK    5  A    between atoms: C_14  and  C_15
REMARK    6  A    between atoms: C_15  and  N_16
REMARK    7  A    between atoms: N_19  and  C_20
REMARK    8  A    between atoms: C_24  and  C_25
REMARK                            x       y       z     vdW  Elec       q    Type
REMARK                         _______ _______ _______ _____ _____    ______ ____
ROOT
ATOM      1  N   UNL     1       0.035   8.751  21.193  0.00  0.00    +0.000 NA
ATOM      2  C   UNL     1      -0.479   8.983  22.560  0.00  0.00    +0.000 C 
ATOM      3  C   UNL     1      -0.520  10.425  23.133  0.00  0.00    +0.000 C 
ATOM      4  N   UNL     1      -0.752  11.474  22.130  0.00  0.00    +0.000 N 
ATOM      5  C   UNL     1      -0.017  11.257  20.869  0.00  0.00    +0.000 C 
ATOM      6  C   UNL     1      -0.334   9.860  20.299  0.00  0.00    +0.000 C 
ENDROOT
BRANCH   4   7
ATOM      7  C   UNL     1      -2.002  12.070  21.960  0.00  0.00    +0.000 A 
ATOM      8  C   UNL     1      -2.364  12.480  20.665  0.00  0.00    +0.000 A 
ATOM      9  C   UNL     1      -3.620  13.014  20.383  0.00  0.00    +0.000 A 
ATOM     10  C   UNL     1      -4.552  13.153  21.404  0.00  0.00    +0.000 A 
ATOM     11  C   UNL     1      -4.223  12.783  22.713  0.00  0.00    +0.000 A 
ATOM     12  C   UNL     1      -2.938  12.256  22.982  0.00  0.00    +0.000 A 
BRANCH  11  13
ATOM     13  C   UNL     1      -5.238  12.914  23.819  0.00  0.00    +0.000 C 
ATOM     14  F   UNL     1      -5.349  14.183  24.309  0.00  0.00    +0.000 F 
ATOM     15  F   UNL     1      -6.493  12.564  23.421  0.00  0.00    +0.000 F 
ATOM     16  F   UNL     1      -4.954  12.128  24.895  0.00  0.00    +0.000 F 
ENDBRANCH  11  13
ENDBRANCH   4   7
BRANCH   1  17
ATOM     17  C   UNL     1       1.455   8.402  21.102  0.00  0.00    +0.000 C 
BRANCH  17  18
ATOM     18  C   UNL     1       1.796   7.643  19.810  0.00  0.00    +0.000 C 
BRANCH  18  19
ATOM     19  C   UNL     1       2.693   6.413  20.052  0.00  0.00    +0.000 C 
BRANCH  19  29
ATOM     20  C   UNL     1       5.232   4.561  16.157  0.00  0.00    +0.000 A 
ATOM     21  C   UNL     1       5.968   5.759  16.096  0.00  0.00    +0.000 A 
ATOM     22  C   UNL     1       5.606   6.870  16.843  0.00  0.00    +0.000 A 
ATOM     23  C   UNL     1       4.527   6.780  17.710  0.00  0.00    +0.000 A 
ATOM     24  C   UNL     1       3.790   5.588  17.824  0.00  0.00    +0.000 A 
ATOM     25  C   UNL     1       4.103   4.480  16.988  0.00  0.00    +0.000 A 
ATOM     26  C   UNL     1       3.252   3.239  17.149  0.00  0.00    +0.000 C 
ATOM     27  C   UNL     1       1.823   3.535  17.601  0.00  0.00    +0.000 C 
ATOM     28  C   UNL     1       1.785   4.522  18.716  0.00  0.00    +0.000 C 
ATOM     29  C   UNL     1       2.723   5.475  18.862  0.00  0.00    +0.000 C 
BRANCH  20  31
ATOM     30  C   UNL     1       6.186   3.826  14.069  0.00  0.00    +0.000 C 
ATOM     31  O   UNL     1       5.841   3.580  15.419  0.00  0.00    +0.000 OA
ENDBRANCH  20  31
ENDBRANCH  19  29
ENDBRANCH  18  19
ENDBRANCH  17  18
ENDBRANCH   1  17
TORSDOF 7
ENDMDL
