MODEL 1
REMARK VINA RESULT:      -7.9      0.000      0.000
REMARK  Name = 
REMARK  8 active torsions:
REMARK  status: ('A' for Active; 'I' for Inactive)
REMARK    1  A    between atoms: C_1  and  C_2
REMARK    2  A    between atoms: C_2  and  C_3
REMARK    3  A    between atoms: C_2  and  N_4
REMARK    4  A    between atoms: N_7  and  C_8
REMARK    5  A    between atoms: C_11  and  N_12
REMARK    6  A    between atoms: N_21  and  C_22
REMARK    7  A    between atoms: C_22  and  C_23
REMARK    8  A    between atoms: C_22  and  C_24
REMARK                            x       y       z     vdW  Elec       q    Type
REMARK                         _______ _______ _______ _____ _____    ______ ____
ROOT
ATOM      1  N   UNL     1       0.638   8.108  21.484  0.00  0.00    +0.000 N 
ATOM      2  C   UNL     1       1.407   7.633  20.449  0.00  0.00    +0.000 A 
ATOM      3  N   UNL     1       1.822   8.483  19.504  0.00  0.00    +0.000 NA
ATOM      4  C   UNL     1       2.589   7.984  18.524  0.00  0.00    +0.000 A 
ATOM      5  C   UNL     1       2.953   6.660  18.445  0.00  0.00    +0.000 A 
ATOM      6  C   UNL     1       3.825   6.168  17.396  0.00  0.00    +0.000 A 
ATOM      7  C   UNL     1       4.197   4.888  17.426  0.00  0.00    +0.000 A 
ATOM      8  C   UNL     1       3.666   3.942  18.438  0.00  0.00    +0.000 A 
ATOM      9  O   UNL     1       4.050   2.773  18.368  0.00  0.00    +0.000 OA
ATOM     10  N   UNL     1       2.750   4.432  19.363  0.00  0.00    +0.000 N 
ATOM     11  C   UNL     1       2.445   5.832  19.433  0.00  0.00    +0.000 A 
ATOM     12  N   UNL     1       1.688   6.318  20.446  0.00  0.00    +0.000 NA
ATOM     13  H   UNL     1       0.678   7.518  22.302  0.00  0.00    +0.000 HD
ENDROOT
BRANCH   1  17
ATOM     14  C   UNL     1      -1.746  11.653  21.752  0.00  0.00    +0.000 C 
ATOM     15  C   UNL     1      -0.978  11.378  20.453  0.00  0.00    +0.000 C 
ATOM     16  C   UNL     1      -0.529   9.921  20.383  0.00  0.00    +0.000 C 
ATOM     17  C   UNL     1       0.321   9.521  21.600  0.00  0.00    +0.000 C 
ATOM     18  C   UNL     1      -0.418   9.835  22.909  0.00  0.00    +0.000 C 
ATOM     19  C   UNL     1      -0.877  11.298  22.964  0.00  0.00    +0.000 C 
BRANCH  14  23
ATOM     20  N   UNL     1      -4.436  12.675  22.175  0.00  0.00    +0.000 N 
ATOM     21  C   UNL     1      -3.431  13.561  21.933  0.00  0.00    +0.000 C 
ATOM     22  O   UNL     1      -3.592  14.776  21.869  0.00  0.00    +0.000 OA
ATOM     23  N   UNL     1      -2.181  13.042  21.801  0.00  0.00    +0.000 N 
ATOM     24  H   UNL     1      -4.277  11.715  21.922  0.00  0.00    +0.000 HD
ATOM     25  H   UNL     1      -1.502  13.763  21.589  0.00  0.00    +0.000 HD
BRANCH  20  27
ATOM     26  C   UNL     1      -6.750  12.293  21.421  0.00  0.00    +0.000 C 
ATOM     27  C   UNL     1      -5.824  13.093  22.334  0.00  0.00    +0.000 C 
ATOM     28  C   UNL     1      -6.245  12.935  23.793  0.00  0.00    +0.000 C 
ENDBRANCH  20  27
ENDBRANCH  14  23
ENDBRANCH   1  17
BRANCH  10  29
ATOM     29  C   UNL     1       2.005   3.489  20.228  0.00  0.00    +0.000 C 
ATOM     30  C   UNL     1       1.124   2.537  19.400  0.00  0.00    +0.000 C 
ATOM     31  C   UNL     1       2.906   2.681  21.166  0.00  0.00    +0.000 C 
ENDBRANCH  10  29
TORSDOF 4
ENDMDL
MODEL 2
REMARK VINA RESULT:      -7.8      0.982      1.245
REMARK  Name = 
REMARK  8 active torsions:
REMARK  status: ('A' for Active; 'I' for Inactive)
REMARK    1  A    between atoms: C_1  and  C_2
REMARK    2  A    between atoms: C_2  and  C_3
REMARK    3  A    between atoms: C_2  and  N_4
REMARK    4  A    between atoms: N_7  and  C_8
REMARK    5  A    between atoms: C_11  and  N_12
REMARK    6  A    between atoms: N_21  and  C_22
REMARK    7  A    between atoms: C_22  and  C_23
REMARK    8  A    between atoms: C_22  and  C_24
REMARK                            x       y       z     vdW  Elec       q    Type
REMARK                         _______ _______ _______ _____ _____    ______ ____
ROOT
ATOM      1  N   UNL     1       1.126   7.531  21.164  0.00  0.00    +0.000 N 
ATOM      2  C   UNL     1       1.853   6.985  20.134  0.00  0.00    +0.000 A 
ATOM      3  N   UNL     1       2.332   7.788  19.178  0.00  0.00    +0.000 NA
ATOM      4  C   UNL     1       3.055   7.218  18.204  0.00  0.00    +0.000 A 
ATOM      5  C   UNL     1       3.315   5.869  18.141  0.00  0.00    +0.000 A 
ATOM      6  C   UNL     1       4.143   5.297  17.098  0.00  0.00    +0.000 A 
ATOM      7  C   UNL     1       4.414   3.992  17.143  0.00  0.00    +0.000 A 
ATOM      8  C   UNL     1       3.812   3.104  18.168  0.00  0.00    +0.000 A 
ATOM      9  O   UNL     1       4.104   1.908  18.112  0.00  0.00    +0.000 OA
ATOM     10  N   UNL     1       2.940   3.675  19.088  0.00  0.00    +0.000 N 
ATOM     11  C   UNL     1       2.745   5.096  19.140  0.00  0.00    +0.000 A 
ATOM     12  N   UNL     1       2.031   5.652  20.147  0.00  0.00    +0.000 NA
ATOM     13  H   UNL     1       1.122   6.950  21.990  0.00  0.00    +0.000 HD
ENDROOT
BRANCH   1  17
ATOM     14  C   UNL     1      -0.973  11.255  21.388  0.00  0.00    +0.000 C 
ATOM     15  C   UNL     1      -0.229  10.905  20.093  0.00  0.00    +0.000 C 
ATOM     16  C   UNL     1       0.104   9.416  20.041  0.00  0.00    +0.000 C 
ATOM     17  C   UNL     1       0.920   8.966  21.263  0.00  0.00    +0.000 C 
ATOM     18  C   UNL     1       0.208   9.353  22.567  0.00  0.00    +0.000 C 
ATOM     19  C   UNL     1      -0.134  10.848  22.605  0.00  0.00    +0.000 C 
BRANCH  14  23
ATOM     20  N   UNL     1      -3.221  12.550  22.703  0.00  0.00    +0.000 N 
ATOM     21  C   UNL     1      -2.367  13.313  21.966  0.00  0.00    +0.000 C 
ATOM     22  O   UNL     1      -2.494  14.523  21.809  0.00  0.00    +0.000 OA
ATOM     23  N   UNL     1      -1.298  12.675  21.420  0.00  0.00    +0.000 N 
ATOM     24  H   UNL     1      -3.215  11.558  22.538  0.00  0.00    +0.000 HD
ATOM     25  H   UNL     1      -0.736  13.306  20.861  0.00  0.00    +0.000 HD
BRANCH  20  27
ATOM     26  C   UNL     1      -5.649  12.898  22.474  0.00  0.00    +0.000 C 
ATOM     27  C   UNL     1      -4.409  13.104  23.342  0.00  0.00    +0.000 C 
ATOM     28  C   UNL     1      -4.604  12.461  24.712  0.00  0.00    +0.000 C 
ENDBRANCH  20  27
ENDBRANCH  14  23
ENDBRANCH   1  17
BRANCH  10  29
ATOM     29  C   UNL     1       2.125   2.804  19.964  0.00  0.00    +0.000 C 
ATOM     30  C   UNL     1       2.460   3.024  21.450  0.00  0.00    +0.000 C 
ATOM     31  C   UNL     1       0.617   2.958  19.743  0.00  0.00    +0.000 C 
ENDBRANCH  10  29
TORSDOF 4
ENDMDL
MODEL 3
REMARK VINA RESULT:      -7.6      2.732      4.006
REMARK  Name = 
REMARK  8 active torsions:
REMARK  status: ('A' for Active; 'I' for Inactive)
REMARK    1  A    between atoms: C_1  and  C_2
REMARK    2  A    between atoms: C_2  and  C_3
REMARK    3  A    between atoms: C_2  and  N_4
REMARK    4  A    between atoms: N_7  and  C_8
REMARK    5  A    between atoms: C_11  and  N_12
REMARK    6  A    between atoms: N_21  and  C_22
REMARK    7  A    between atoms: C_22  and  C_23
REMARK    8  A    between atoms: C_22  and  C_24
REMARK                            x       y       z     vdW  Elec       q    Type
REMARK                         _______ _______ _______ _____ _____    ______ ____
ROOT
ATOM      1  N   UNL     1       1.033   8.678  20.174  0.00  0.00    +0.000 N 
ATOM      2  C   UNL     1       1.865   7.858  19.452  0.00  0.00    +0.000 A 
ATOM      3  N   UNL     1       2.519   8.359  18.399  0.00  0.00    +0.000 NA
ATOM      4  C   UNL     1       3.339   7.531  17.736  0.00  0.00    +0.000 A 
ATOM      5  C   UNL     1       3.528   6.213  18.079  0.00  0.00    +0.000 A 
ATOM      6  C   UNL     1       4.462   5.363  17.367  0.00  0.00    +0.000 A 
ATOM      7  C   UNL     1       4.649   4.117  17.803  0.00  0.00    +0.000 A 
ATOM      8  C   UNL     1       3.859   3.555  18.927  0.00  0.00    +0.000 A 
ATOM      9  O   UNL     1       4.088   2.385  19.240  0.00  0.00    +0.000 OA
ATOM     10  N   UNL     1       2.900   4.371  19.515  0.00  0.00    +0.000 N 
ATOM     11  C   UNL     1       2.780   5.754  19.152  0.00  0.00    +0.000 A 
ATOM     12  N   UNL     1       1.963   6.577  19.852  0.00  0.00    +0.000 NA
ATOM     13  H   UNL     1       0.879   8.347  21.116  0.00  0.00    +0.000 HD
ENDROOT
BRANCH   1  17
ATOM     14  C   UNL     1      -0.808  12.522  19.782  0.00  0.00    +0.000 C 
ATOM     15  C   UNL     1      -0.541  11.701  18.515  0.00  0.00    +0.000 C 
ATOM     16  C   UNL     1      -0.270  10.239  18.860  0.00  0.00    +0.000 C 
ATOM     17  C   UNL     1       0.896  10.088  19.850  0.00  0.00    +0.000 C 
ATOM     18  C   UNL     1       0.663  10.943  21.104  0.00  0.00    +0.000 C 
ATOM     19  C   UNL     1       0.378  12.407  20.746  0.00  0.00    +0.000 C 
BRANCH  14  23
ATOM     20  N   UNL     1       1.099  14.593  19.049  0.00  0.00    +0.000 N 
ATOM     21  C   UNL     1      -0.217  14.925  19.153  0.00  0.00    +0.000 C 
ATOM     22  O   UNL     1      -0.654  16.056  18.969  0.00  0.00    +0.000 OA
ATOM     23  N   UNL     1      -1.079  13.912  19.439  0.00  0.00    +0.000 N 
ATOM     24  H   UNL     1       1.398  13.742  19.494  0.00  0.00    +0.000 HD
ATOM     25  H   UNL     1      -2.030  14.251  19.533  0.00  0.00    +0.000 HD
BRANCH  20  27
ATOM     26  C   UNL     1       2.765  16.119  20.031  0.00  0.00    +0.000 C 
ATOM     27  C   UNL     1       2.131  15.579  18.751  0.00  0.00    +0.000 C 
ATOM     28  C   UNL     1       3.194  14.955  17.851  0.00  0.00    +0.000 C 
ENDBRANCH  20  27
ENDBRANCH  14  23
ENDBRANCH   1  17
BRANCH  10  29
ATOM     29  C   UNL     1       1.921   3.789  20.461  0.00  0.00    +0.000 C 
ATOM     30  C   UNL     1       0.869   2.933  19.733  0.00  0.00    +0.000 C 
ATOM     31  C   UNL     1       2.570   2.972  21.583  0.00  0.00    +0.000 C 
ENDBRANCH  10  29
TORSDOF 4
ENDMDL
MODEL 4
REMARK VINA RESULT:      -7.6      1.221      1.532
REMARK  Name = 
REMARK  8 active torsions:
REMARK  status: ('A' for Active; 'I' for Inactive)
REMARK    1  A    between atoms: C_1  and  C_2
REMARK    2  A    between atoms: C_2  and  C_3
REMARK    3  A    between atoms: C_2  and  N_4
REMARK    4  A    between atoms: N_7  and  C_8
REMARK    5  A    between atoms: C_11  and  N_12
REMARK    6  A    between atoms: N_21  and  C_22
REMARK    7  A    between atoms: C_22  and  C_23
REMARK    8  A    between atoms: C_22  and  C_24
REMARK                            x       y       z     vdW  Elec       q    Type
REMARK                         _______ _______ _______ _____ _____    ______ ____
ROOT
ATOM      1  N   UNL     1       1.260   7.442  21.091  0.00  0.00    +0.000 N 
ATOM      2  C   UNL     1       1.959   6.851  20.066  0.00  0.00    +0.000 A 
ATOM      3  N   UNL     1       2.452   7.618  19.088  0.00  0.00    +0.000 NA
ATOM      4  C   UNL     1       3.148   7.005  18.119  0.00  0.00    +0.000 A 
ATOM      5  C   UNL     1       3.364   5.647  18.083  0.00  0.00    +0.000 A 
ATOM      6  C   UNL     1       4.163   5.027  17.044  0.00  0.00    +0.000 A 
ATOM      7  C   UNL     1       4.393   3.716  17.115  0.00  0.00    +0.000 A 
ATOM      8  C   UNL     1       3.775   2.869  18.165  0.00  0.00    +0.000 A 
ATOM      9  O   UNL     1       4.028   1.663  18.132  0.00  0.00    +0.000 OA
ATOM     10  N   UNL     1       2.930   3.487  19.081  0.00  0.00    +0.000 N 
ATOM     11  C   UNL     1       2.781   4.914  19.104  0.00  0.00    +0.000 A 
ATOM     12  N   UNL     1       2.095   5.513  20.106  0.00  0.00    +0.000 NA
ATOM     13  H   UNL     1       1.246   6.879  21.929  0.00  0.00    +0.000 HD
ENDROOT
BRANCH   1  17
ATOM     14  C   UNL     1      -0.702  11.246  21.043  0.00  0.00    +0.000 C 
ATOM     15  C   UNL     1       0.183  10.858  19.852  0.00  0.00    +0.000 C 
ATOM     16  C   UNL     1       0.461   9.358  19.845  0.00  0.00    +0.000 C 
ATOM     17  C   UNL     1       1.100   8.884  21.160  0.00  0.00    +0.000 C 
ATOM     18  C   UNL     1       0.247   9.307  22.365  0.00  0.00    +0.000 C 
ATOM     19  C   UNL     1      -0.038  10.814  22.356  0.00  0.00    +0.000 C 
BRANCH  14  23
ATOM     20  N   UNL     1      -3.269  12.583  20.758  0.00  0.00    +0.000 N 
ATOM     21  C   UNL     1      -2.142  13.343  20.839  0.00  0.00    +0.000 C 
ATOM     22  O   UNL     1      -2.138  14.569  20.786  0.00  0.00    +0.000 OA
ATOM     23  N   UNL     1      -0.972  12.677  21.032  0.00  0.00    +0.000 N 
ATOM     24  H   UNL     1      -3.157  11.614  20.516  0.00  0.00    +0.000 HD
ATOM     25  H   UNL     1      -0.183  13.312  21.045  0.00  0.00    +0.000 HD
BRANCH  20  27
ATOM     26  C   UNL     1      -5.263  12.578  19.310  0.00  0.00    +0.000 C 
ATOM     27  C   UNL     1      -4.589  13.166  20.549  0.00  0.00    +0.000 C 
ATOM     28  C   UNL     1      -5.454  12.937  21.786  0.00  0.00    +0.000 C 
ENDBRANCH  20  27
ENDBRANCH  14  23
ENDBRANCH   1  17
BRANCH  10  29
ATOM     29  C   UNL     1       2.098   2.661  19.984  0.00  0.00    +0.000 C 
ATOM     30  C   UNL     1       2.454   2.904  21.462  0.00  0.00    +0.000 C 
ATOM     31  C   UNL     1       0.593   2.856  19.773  0.00  0.00    +0.000 C 
ENDBRANCH  10  29
TORSDOF 4
ENDMDL
MODEL 5
REMARK VINA RESULT:      -7.5      0.998      1.131
REMARK  Name = 
REMARK  8 active torsions:
REMARK  status: ('A' for Active; 'I' for Inactive)
REMARK    1  A    between atoms: C_1  and  C_2
REMARK    2  A    between atoms: C_2  and  C_3
REMARK    3  A    between atoms: C_2  and  N_4
REMARK    4  A    between atoms: N_7  and  C_8
REMARK    5  A    between atoms: C_11  and  N_12
REMARK    6  A    between atoms: N_21  and  C_22
REMARK    7  A    between atoms: C_22  and  C_23
REMARK    8  A    between atoms: C_22  and  C_24
REMARK                            x       y       z     vdW  Elec       q    Type
REMARK                         _______ _______ _______ _____ _____    ______ ____
ROOT
ATOM      1  N   UNL     1       0.784   8.459  20.941  0.00  0.00    +0.000 N 
ATOM      2  C   UNL     1       1.570   7.781  20.041  0.00  0.00    +0.000 A 
ATOM      3  N   UNL     1       2.087   8.443  19.001  0.00  0.00    +0.000 NA
ATOM      4  C   UNL     1       2.867   7.750  18.159  0.00  0.00    +0.000 A 
ATOM      5  C   UNL     1       3.146   6.412  18.311  0.00  0.00    +0.000 A 
ATOM      6  C   UNL     1       4.035   5.709  17.406  0.00  0.00    +0.000 A 
ATOM      7  C   UNL     1       4.320   4.431  17.659  0.00  0.00    +0.000 A 
ATOM      8  C   UNL     1       3.677   3.692  18.774  0.00  0.00    +0.000 A 
ATOM      9  O   UNL     1       3.986   2.507  18.911  0.00  0.00    +0.000 OA
ATOM     10  N   UNL     1       2.751   4.375  19.554  0.00  0.00    +0.000 N 
ATOM     11  C   UNL     1       2.536   5.784  19.384  0.00  0.00    +0.000 A 
ATOM     12  N   UNL     1       1.763   6.468  20.261  0.00  0.00    +0.000 NA
ATOM     13  H   UNL     1       0.744   8.006  21.843  0.00  0.00    +0.000 HD
ENDROOT
BRANCH   1  17
ATOM     14  C   UNL     1      -1.353  12.168  20.879  0.00  0.00    +0.000 C 
ATOM     15  C   UNL     1      -0.855  11.582  19.552  0.00  0.00    +0.000 C 
ATOM     16  C   UNL     1      -0.490  10.108  19.709  0.00  0.00    +0.000 C 
ATOM     17  C   UNL     1       0.555   9.888  20.814  0.00  0.00    +0.000 C 
ATOM     18  C   UNL     1       0.088  10.511  22.138  0.00  0.00    +0.000 C 
ATOM     19  C   UNL     1      -0.288  11.989  21.967  0.00  0.00    +0.000 C 
BRANCH  14  23
ATOM     20  N   UNL     1      -3.395  13.676  22.298  0.00  0.00    +0.000 N 
ATOM     21  C   UNL     1      -2.695  14.295  21.308  0.00  0.00    +0.000 C 
ATOM     22  O   UNL     1      -2.882  15.458  20.963  0.00  0.00    +0.000 OA
ATOM     23  N   UNL     1      -1.711  13.570  20.713  0.00  0.00    +0.000 N 
ATOM     24  H   UNL     1      -3.386  12.671  22.312  0.00  0.00    +0.000 HD
ATOM     25  H   UNL     1      -1.266  14.092  19.967  0.00  0.00    +0.000 HD
BRANCH  20  27
ATOM     26  C   UNL     1      -5.629  13.367  23.290  0.00  0.00    +0.000 C 
ATOM     27  C   UNL     1      -4.479  14.335  23.017  0.00  0.00    +0.000 C 
ATOM     28  C   UNL     1      -3.950  14.917  24.325  0.00  0.00    +0.000 C 
ENDBRANCH  20  27
ENDBRANCH  14  23
ENDBRANCH   1  17
BRANCH  10  29
ATOM     29  C   UNL     1       1.902   3.628  20.509  0.00  0.00    +0.000 C 
ATOM     30  C   UNL     1       0.870   2.748  19.782  0.00  0.00    +0.000 C 
ATOM     31  C   UNL     1       2.704   2.778  21.500  0.00  0.00    +0.000 C 
ENDBRANCH  10  29
TORSDOF 4
ENDMDL
MODEL 6
REMARK VINA RESULT:      -7.5      1.758      2.079
REMARK  Name = 
REMARK  8 active torsions:
REMARK  status: ('A' for Active; 'I' for Inactive)
REMARK    1  A    between atoms: C_1  and  C_2
REMARK    2  A    between atoms: C_2  and  C_3
REMARK    3  A    between atoms: C_2  and  N_4
REMARK    4  A    between atoms: N_7  and  C_8
REMARK    5  A    between atoms: C_11  and  N_12
REMARK    6  A    between atoms: N_21  and  C_22
REMARK    7  A    between atoms: C_22  and  C_23
REMARK    8  A    between atoms: C_22  and  C_24
REMARK                            x       y       z     vdW  Elec       q    Type
REMARK                         _______ _______ _______ _____ _____    ______ ____
ROOT
ATOM      1  N   UNL     1       1.022   8.634  20.214  0.00  0.00    +0.000 N 
ATOM      2  C   UNL     1       1.848   7.824  19.472  0.00  0.00    +0.000 A 
ATOM      3  N   UNL     1       2.491   8.342  18.420  0.00  0.00    +0.000 NA
ATOM      4  C   UNL     1       3.305   7.524  17.737  0.00  0.00    +0.000 A 
ATOM      5  C   UNL     1       3.497   6.201  18.059  0.00  0.00    +0.000 A 
ATOM      6  C   UNL     1       4.425   5.362  17.325  0.00  0.00    +0.000 A 
ATOM      7  C   UNL     1       4.617   4.110  17.741  0.00  0.00    +0.000 A 
ATOM      8  C   UNL     1       3.838   3.531  18.864  0.00  0.00    +0.000 A 
ATOM      9  O   UNL     1       4.070   2.357  19.158  0.00  0.00    +0.000 OA
ATOM     10  N   UNL     1       2.884   4.337  19.474  0.00  0.00    +0.000 N 
ATOM     11  C   UNL     1       2.760   5.726  19.132  0.00  0.00    +0.000 A 
ATOM     12  N   UNL     1       1.950   6.538  19.851  0.00  0.00    +0.000 NA
ATOM     13  H   UNL     1       0.877   8.288  21.152  0.00  0.00    +0.000 HD
ENDROOT
BRANCH   1  17
ATOM     14  C   UNL     1      -0.684  12.560  20.192  0.00  0.00    +0.000 C 
ATOM     15  C   UNL     1      -0.739  11.725  18.907  0.00  0.00    +0.000 C 
ATOM     16  C   UNL     1      -0.466  10.253  19.200  0.00  0.00    +0.000 C 
ATOM     17  C   UNL     1       0.882  10.048  19.911  0.00  0.00    +0.000 C 
ATOM     18  C   UNL     1       0.968  10.914  21.177  0.00  0.00    +0.000 C 
ATOM     19  C   UNL     1       0.679  12.390  20.874  0.00  0.00    +0.000 C 
BRANCH  14  23
ATOM     20  N   UNL     1      -2.024  14.511  21.883  0.00  0.00    +0.000 N 
ATOM     21  C   UNL     1      -1.635  14.886  20.634  0.00  0.00    +0.000 C 
ATOM     22  O   UNL     1      -1.828  16.004  20.165  0.00  0.00    +0.000 OA
ATOM     23  N   UNL     1      -0.960  13.960  19.902  0.00  0.00    +0.000 N 
ATOM     24  H   UNL     1      -2.092  13.525  22.069  0.00  0.00    +0.000 HD
ATOM     25  H   UNL     1      -0.741  14.308  18.976  0.00  0.00    +0.000 HD
BRANCH  20  27
ATOM     26  C   UNL     1      -4.221  14.982  22.892  0.00  0.00    +0.000 C 
ATOM     27  C   UNL     1      -2.757  15.402  22.773  0.00  0.00    +0.000 C 
ATOM     28  C   UNL     1      -2.093  15.418  24.148  0.00  0.00    +0.000 C 
ENDBRANCH  20  27
ENDBRANCH  14  23
ENDBRANCH   1  17
BRANCH  10  29
ATOM     29  C   UNL     1       1.915   3.741  20.420  0.00  0.00    +0.000 C 
ATOM     30  C   UNL     1       0.862   2.887  19.690  0.00  0.00    +0.000 C 
ATOM     31  C   UNL     1       2.575   2.916  21.529  0.00  0.00    +0.000 C 
ENDBRANCH  10  29
TORSDOF 4
ENDMDL
MODEL 7
REMARK VINA RESULT:      -7.4      2.306      3.785
REMARK  Name = 
REMARK  8 active torsions:
REMARK  status: ('A' for Active; 'I' for Inactive)
REMARK    1  A    between atoms: C_1  and  C_2
REMARK    2  A    between atoms: C_2  and  C_3
REMARK    3  A    between atoms: C_2  and  N_4
REMARK    4  A    between atoms: N_7  and  C_8
REMARK    5  A    between atoms: C_11  and  N_12
REMARK    6  A    between atoms: N_21  and  C_22
REMARK    7  A    between atoms: C_22  and  C_23
REMARK    8  A    between atoms: C_22  and  C_24
REMARK                            x       y       z     vdW  Elec       q    Type
REMARK                         _______ _______ _______ _____ _____    ______ ____
ROOT
ATOM      1  N   UNL     1       2.071   9.371  17.873  0.00  0.00    +0.000 N 
ATOM      2  C   UNL     1       2.475   8.141  18.332  0.00  0.00    +0.000 A 
ATOM      3  N   UNL     1       1.930   7.655  19.452  0.00  0.00    +0.000 NA
ATOM      4  C   UNL     1       2.334   6.441  19.854  0.00  0.00    +0.000 A 
ATOM      5  C   UNL     1       3.272   5.693  19.182  0.00  0.00    +0.000 A 
ATOM      6  C   UNL     1       3.646   4.362  19.621  0.00  0.00    +0.000 A 
ATOM      7  C   UNL     1       4.506   3.665  18.878  0.00  0.00    +0.000 A 
ATOM      8  C   UNL     1       5.158   4.250  17.679  0.00  0.00    +0.000 A 
ATOM      9  O   UNL     1       5.957   3.535  17.073  0.00  0.00    +0.000 OA
ATOM     10  N   UNL     1       4.850   5.566  17.353  0.00  0.00    +0.000 N 
ATOM     11  C   UNL     1       3.826   6.283  18.057  0.00  0.00    +0.000 A 
ATOM     12  N   UNL     1       3.417   7.498  17.619  0.00  0.00    +0.000 NA
ATOM     13  H   UNL     1       2.241   9.494  16.884  0.00  0.00    +0.000 HD
ENDROOT
BRANCH   1  17
ATOM     14  C   UNL     1      -0.934  12.357  18.487  0.00  0.00    +0.000 C 
ATOM     15  C   UNL     1       0.394  12.481  19.243  0.00  0.00    +0.000 C 
ATOM     16  C   UNL     1       1.465  11.594  18.615  0.00  0.00    +0.000 C 
ATOM     17  C   UNL     1       1.027  10.123  18.547  0.00  0.00    +0.000 C 
ATOM     18  C   UNL     1      -0.326   9.989  17.832  0.00  0.00    +0.000 C 
ATOM     19  C   UNL     1      -1.392  10.894  18.463  0.00  0.00    +0.000 C 
BRANCH  14  23
ATOM     20  N   UNL     1      -1.651  12.591  21.296  0.00  0.00    +0.000 N 
ATOM     21  C   UNL     1      -2.353  13.313  20.380  0.00  0.00    +0.000 C 
ATOM     22  O   UNL     1      -3.289  14.054  20.665  0.00  0.00    +0.000 OA
ATOM     23  N   UNL     1      -1.944  13.218  19.087  0.00  0.00    +0.000 N 
ATOM     24  H   UNL     1      -1.117  11.809  20.958  0.00  0.00    +0.000 HD
ATOM     25  H   UNL     1      -2.541  13.756  18.469  0.00  0.00    +0.000 HD
BRANCH  20  27
ATOM     26  C   UNL     1      -1.668  11.251  23.363  0.00  0.00    +0.000 C 
ATOM     27  C   UNL     1      -1.983  12.598  22.716  0.00  0.00    +0.000 C 
ATOM     28  C   UNL     1      -1.219  13.718  23.417  0.00  0.00    +0.000 C 
ENDBRANCH  20  27
ENDBRANCH  14  23
ENDBRANCH   1  17
BRANCH  10  29
ATOM     29  C   UNL     1       5.650   6.274  16.329  0.00  0.00    +0.000 C 
ATOM     30  C   UNL     1       7.093   6.517  16.806  0.00  0.00    +0.000 C 
ATOM     31  C   UNL     1       5.663   5.567  14.970  0.00  0.00    +0.000 C 
ENDBRANCH  10  29
TORSDOF 4
ENDMDL
MODEL 8
REMARK VINA RESULT:      -7.4      2.875      4.444
REMARK  Name = 
REMARK  8 active torsions:
REMARK  status: ('A' for Active; 'I' for Inactive)
REMARK    1  A    between atoms: C_1  and  C_2
REMARK    2  A    between atoms: C_2  and  C_3
REMARK    3  A    between atoms: C_2  and  N_4
REMARK    4  A    between atoms: N_7  and  C_8
REMARK    5  A    between atoms: C_11  and  N_12
REMARK    6  A    between atoms: N_21  and  C_22
REMARK    7  A    between atoms: C_22  and  C_23
REMARK    8  A    between atoms: C_22  and  C_24
REMARK                            x       y       z     vdW  Elec       q    Type
REMARK                         _______ _______ _______ _____ _____    ______ ____
ROOT
ATOM      1  N   UNL     1       1.958   9.476  18.134  0.00  0.00    +0.000 N 
ATOM      2  C   UNL     1       2.335   8.215  18.529  0.00  0.00    +0.000 A 
ATOM      3  N   UNL     1       1.854   7.722  19.675  0.00  0.00    +0.000 NA
ATOM      4  C   UNL     1       2.229   6.480  20.013  0.00  0.00    +0.000 A 
ATOM      5  C   UNL     1       3.076   5.709  19.252  0.00  0.00    +0.000 A 
ATOM      6  C   UNL     1       3.418   4.350  19.627  0.00  0.00    +0.000 A 
ATOM      7  C   UNL     1       4.185   3.636  18.801  0.00  0.00    +0.000 A 
ATOM      8  C   UNL     1       4.771   4.225  17.572  0.00  0.00    +0.000 A 
ATOM      9  O   UNL     1       5.487   3.492  16.887  0.00  0.00    +0.000 OA
ATOM     10  N   UNL     1       4.503   5.563  17.304  0.00  0.00    +0.000 N 
ATOM     11  C   UNL     1       3.571   6.306  18.103  0.00  0.00    +0.000 A 
ATOM     12  N   UNL     1       3.188   7.550  17.730  0.00  0.00    +0.000 NA
ATOM     13  H   UNL     1       2.058   9.619  17.139  0.00  0.00    +0.000 HD
ENDROOT
BRANCH   1  17
ATOM     14  C   UNL     1      -0.744  12.650  19.106  0.00  0.00    +0.000 C 
ATOM     15  C   UNL     1       0.610  12.588  19.824  0.00  0.00    +0.000 C 
ATOM     16  C   UNL     1       1.578  11.669  19.085  0.00  0.00    +0.000 C 
ATOM     17  C   UNL     1       1.005  10.254  18.906  0.00  0.00    +0.000 C 
ATOM     18  C   UNL     1      -0.373  10.305  18.229  0.00  0.00    +0.000 C 
ATOM     19  C   UNL     1      -1.335  11.242  18.971  0.00  0.00    +0.000 C 
BRANCH  14  23
ATOM     20  N   UNL     1      -0.763  15.559  19.109  0.00  0.00    +0.000 N 
ATOM     21  C   UNL     1      -1.661  14.899  19.891  0.00  0.00    +0.000 C 
ATOM     22  O   UNL     1      -2.478  15.458  20.615  0.00  0.00    +0.000 OA
ATOM     23  N   UNL     1      -1.655  13.541  19.812  0.00  0.00    +0.000 N 
ATOM     24  H   UNL     1       0.039  15.043  18.789  0.00  0.00    +0.000 HD
ATOM     25  H   UNL     1      -2.326  13.130  20.449  0.00  0.00    +0.000 HD
BRANCH  20  27
ATOM     26  C   UNL     1       0.529  17.488  19.932  0.00  0.00    +0.000 C 
ATOM     27  C   UNL     1      -0.659  17.013  19.098  0.00  0.00    +0.000 C 
ATOM     28  C   UNL     1      -0.534  17.509  17.660  0.00  0.00    +0.000 C 
ENDBRANCH  20  27
ENDBRANCH  14  23
ENDBRANCH   1  17
BRANCH  10  29
ATOM     29  C   UNL     1       5.256   6.264  16.240  0.00  0.00    +0.000 C 
ATOM     30  C   UNL     1       6.658   6.680  16.719  0.00  0.00    +0.000 C 
ATOM     31  C   UNL     1       5.368   5.458  14.942  0.00  0.00    +0.000 C 
ENDBRANCH  10  29
TORSDOF 4
ENDMDL
MODEL 9
REMARK VINA RESULT:      -7.3      3.263      4.795
REMARK  Name = 
REMARK  8 active torsions:
REMARK  status: ('A' for Active; 'I' for Inactive)
REMARK    1  A    between atoms: C_1  and  C_2
REMARK    2  A    between atoms: C_2  and  C_3
REMARK    3  A    between atoms: C_2  and  N_4
REMARK    4  A    between atoms: N_7  and  C_8
REMARK    5  A    between atoms: C_11  and  N_12
REMARK    6  A    between atoms: N_21  and  C_22
REMARK    7  A    between atoms: C_22  and  C_23
REMARK    8  A    between atoms: C_22  and  C_24
REMARK                            x       y       z     vdW  Elec       q    Type
REMARK                         _______ _______ _______ _____ _____    ______ ____
ROOT
ATOM      1  N   UNL     1       1.729   9.737  18.468  0.00  0.00    +0.000 N 
ATOM      2  C   UNL     1       1.868   8.525  19.100  0.00  0.00    +0.000 A 
ATOM      3  N   UNL     1       1.328   8.358  20.312  0.00  0.00    +0.000 NA
ATOM      4  C   UNL     1       1.466   7.154  20.884  0.00  0.00    +0.000 A 
ATOM      5  C   UNL     1       2.132   6.105  20.295  0.00  0.00    +0.000 A 
ATOM      6  C   UNL     1       2.217   4.802  20.925  0.00  0.00    +0.000 A 
ATOM      7  C   UNL     1       2.814   3.811  20.261  0.00  0.00    +0.000 A 
ATOM      8  C   UNL     1       3.473   4.034  18.950  0.00  0.00    +0.000 A 
ATOM      9  O   UNL     1       4.019   3.061  18.426  0.00  0.00    +0.000 OA
ATOM     10  N   UNL     1       3.459   5.323  18.429  0.00  0.00    +0.000 N 
ATOM     11  C   UNL     1       2.705   6.368  19.061  0.00  0.00    +0.000 A 
ATOM     12  N   UNL     1       2.559   7.570  18.453  0.00  0.00    +0.000 NA
ATOM     13  H   UNL     1       1.831   9.667  17.465  0.00  0.00    +0.000 HD
ENDROOT
BRANCH   1  17
ATOM     14  C   UNL     1      -0.302  13.492  18.780  0.00  0.00    +0.000 C 
ATOM     15  C   UNL     1       1.035  13.314  19.509  0.00  0.00    +0.000 C 
ATOM     16  C   UNL     1       1.793  12.103  18.972  0.00  0.00    +0.000 C 
ATOM     17  C   UNL     1       0.960  10.815  19.065  0.00  0.00    +0.000 C 
ATOM     18  C   UNL     1      -0.402  10.995  18.378  0.00  0.00    +0.000 C 
ATOM     19  C   UNL     1      -1.150  12.221  18.916  0.00  0.00    +0.000 C 
BRANCH  14  23
ATOM     20  N   UNL     1       0.207  16.296  18.198  0.00  0.00    +0.000 N 
ATOM     21  C   UNL     1      -0.766  15.981  19.096  0.00  0.00    +0.000 C 
ATOM     22  O   UNL     1      -1.442  16.815  19.692  0.00  0.00    +0.000 OA
ATOM     23  N   UNL     1      -1.010  14.658  19.291  0.00  0.00    +0.000 N 
ATOM     24  H   UNL     1       0.890  15.588  17.989  0.00  0.00    +0.000 HD
ATOM     25  H   UNL     1      -1.721  14.512  19.998  0.00  0.00    +0.000 HD
BRANCH  20  27
ATOM     26  C   UNL     1       1.990  17.757  17.329  0.00  0.00    +0.000 C 
ATOM     27  C   UNL     1       0.573  17.674  17.894  0.00  0.00    +0.000 C 
ATOM     28  C   UNL     1      -0.430  18.267  16.908  0.00  0.00    +0.000 C 
ENDBRANCH  20  27
ENDBRANCH  14  23
ENDBRANCH   1  17
BRANCH  10  29
ATOM     29  C   UNL     1       4.307   5.652  17.262  0.00  0.00    +0.000 C 
ATOM     30  C   UNL     1       5.716   6.098  17.693  0.00  0.00    +0.000 C 
ATOM     31  C   UNL     1       4.410   4.513  16.244  0.00  0.00    +0.000 C 
ENDBRANCH  10  29
TORSDOF 4
ENDMDL
