MODEL 1
REMARK VINA RESULT:      -7.9      0.000      0.000
REMARK  Name = 
REMARK  2 active torsions:
REMARK  status: ('A' for Active; 'I' for Inactive)
REMARK    1  A    between atoms: C_8  and  C_9
REMARK    2  A    between atoms: C_14  and  N_15
REMARK                            x       y       z     vdW  Elec       q    Type
REMARK                         _______ _______ _______ _____ _____    ______ ____
ROOT
ATOM      1  O   UNL     1       1.914   7.140  21.369  0.00  0.00    +0.000 OA
ATOM      2  C   UNL     1       1.844   7.535  20.206  0.00  0.00    +0.000 C 
ATOM      3  C   UNL     1       0.759   8.490  19.784  0.00  0.00    +0.000 C 
ATOM      4  C   UNL     1       1.086   9.375  18.594  0.00  0.00    +0.000 C 
ATOM      5  C   UNL     1       2.209   8.917  17.662  0.00  0.00    +0.000 C 
ATOM      6  C   UNL     1       2.909   7.641  18.013  0.00  0.00    +0.000 C 
ATOM      7  C   UNL     1       2.756   6.985  19.172  0.00  0.00    +0.000 C 
ATOM      8  C   UNL     1       3.514   5.708  19.492  0.00  0.00    +0.000 C 
ATOM      9  C   UNL     1       4.340   5.237  18.310  0.00  0.00    +0.000 A 
ATOM     10  C   UNL     1       4.454   5.982  17.198  0.00  0.00    +0.000 A 
ATOM     11  C   UNL     1       5.303   5.539  16.090  0.00  0.00    +0.000 A 
ATOM     12  C   UNL     1       5.623   6.324  14.977  0.00  0.00    +0.000 A 
ATOM     13  C   UNL     1       6.436   5.811  13.957  0.00  0.00    +0.000 A 
ATOM     14  C   UNL     1       6.927   4.506  14.030  0.00  0.00    +0.000 A 
ATOM     15  C   UNL     1       6.627   3.720  15.136  0.00  0.00    +0.000 A 
ATOM     16  C   UNL     1       5.838   4.255  16.153  0.00  0.00    +0.000 A 
ATOM     17  O   UNL     1       5.639   3.441  17.277  0.00  0.00    +0.000 OA
ATOM     18  C   UNL     1       5.038   3.936  18.424  0.00  0.00    +0.000 A 
ATOM     19  O   UNL     1       5.046   3.281  19.458  0.00  0.00    +0.000 OA
ATOM     20  O   UNL     1       3.787   7.191  17.027  0.00  0.00    +0.000 OA
ENDROOT
BRANCH   8  21
ATOM     21  C   UNL     1       2.568   4.621  20.015  0.00  0.00    +0.000 A 
ATOM     22  C   UNL     1       2.580   4.369  21.412  0.00  0.00    +0.000 A 
ATOM     23  C   UNL     1       1.801   3.364  21.988  0.00  0.00    +0.000 A 
ATOM     24  C   UNL     1       0.975   2.593  21.184  0.00  0.00    +0.000 A 
ATOM     25  C   UNL     1       0.920   2.823  19.810  0.00  0.00    +0.000 A 
ATOM     26  C   UNL     1       1.704   3.834  19.211  0.00  0.00    +0.000 A 
BRANCH  26  27
ATOM     27  N   UNL     1       1.540   3.995  17.742  0.00  0.00    +0.000 N 
ATOM     28  O   UNL     1       0.865   4.930  17.297  0.00  0.00    +0.000 OA
ATOM     29  O   UNL     1       2.085   3.151  17.013  0.00  0.00    +0.000 OA
ENDBRANCH  26  27
ENDBRANCH   8  21
TORSDOF 2
ENDMDL
MODEL 2
REMARK VINA RESULT:      -7.7      6.379     10.450
REMARK  Name = 
REMARK  2 active torsions:
REMARK  status: ('A' for Active; 'I' for Inactive)
REMARK    1  A    between atoms: C_8  and  C_9
REMARK    2  A    between atoms: C_14  and  N_15
REMARK                            x       y       z     vdW  Elec       q    Type
REMARK                         _______ _______ _______ _____ _____    ______ ____
ROOT
ATOM      1  O   UNL     1      -1.153   9.811  17.306  0.00  0.00    +0.000 OA
ATOM      2  C   UNL     1      -2.101  10.590  17.391  0.00  0.00    +0.000 C 
ATOM      3  C   UNL     1      -2.920  10.938  16.177  0.00  0.00    +0.000 C 
ATOM      4  C   UNL     1      -4.354  11.359  16.448  0.00  0.00    +0.000 C 
ATOM      5  C   UNL     1      -4.690  11.854  17.856  0.00  0.00    +0.000 C 
ATOM      6  C   UNL     1      -3.578  11.862  18.859  0.00  0.00    +0.000 C 
ATOM      7  C   UNL     1      -2.379  11.294  18.669  0.00  0.00    +0.000 C 
ATOM      8  C   UNL     1      -1.294  11.303  19.732  0.00  0.00    +0.000 C 
ATOM      9  C   UNL     1      -1.703  12.124  20.940  0.00  0.00    +0.000 A 
ATOM     10  C   UNL     1      -2.941  12.632  21.051  0.00  0.00    +0.000 A 
ATOM     11  C   UNL     1      -3.336  13.371  22.252  0.00  0.00    +0.000 A 
ATOM     12  C   UNL     1      -4.645  13.779  22.534  0.00  0.00    +0.000 A 
ATOM     13  C   UNL     1      -4.929  14.494  23.706  0.00  0.00    +0.000 A 
ATOM     14  C   UNL     1      -3.909  14.821  24.601  0.00  0.00    +0.000 A 
ATOM     15  C   UNL     1      -2.606  14.412  24.339  0.00  0.00    +0.000 A 
ATOM     16  C   UNL     1      -2.347  13.680  23.182  0.00  0.00    +0.000 A 
ATOM     17  O   UNL     1      -1.030  13.227  23.016  0.00  0.00    +0.000 OA
ATOM     18  C   UNL     1      -0.700  12.334  22.010  0.00  0.00    +0.000 A 
ATOM     19  O   UNL     1       0.401  11.799  21.994  0.00  0.00    +0.000 OA
ATOM     20  O   UNL     1      -3.905  12.496  20.058  0.00  0.00    +0.000 OA
ENDROOT
BRANCH   8  21
ATOM     21  C   UNL     1       0.049  11.755  19.145  0.00  0.00    +0.000 A 
ATOM     22  C   UNL     1       0.162  13.118  18.763  0.00  0.00    +0.000 A 
ATOM     23  C   UNL     1       1.318  13.624  18.166  0.00  0.00    +0.000 A 
ATOM     24  C   UNL     1       2.400  12.784  17.949  0.00  0.00    +0.000 A 
ATOM     25  C   UNL     1       2.334  11.444  18.328  0.00  0.00    +0.000 A 
ATOM     26  C   UNL     1       1.172  10.915  18.930  0.00  0.00    +0.000 A 
BRANCH  26  27
ATOM     27  N   UNL     1       1.234   9.479  19.309  0.00  0.00    +0.000 N 
ATOM     28  O   UNL     1       0.856   9.122  20.430  0.00  0.00    +0.000 OA
ATOM     29  O   UNL     1       1.692   8.689  18.468  0.00  0.00    +0.000 OA
ENDBRANCH  26  27
ENDBRANCH   8  21
TORSDOF 2
ENDMDL
MODEL 3
REMARK VINA RESULT:      -7.5      7.581     11.286
REMARK  Name = 
REMARK  2 active torsions:
REMARK  status: ('A' for Active; 'I' for Inactive)
REMARK    1  A    between atoms: C_8  and  C_9
REMARK    2  A    between atoms: C_14  and  N_15
REMARK                            x       y       z     vdW  Elec       q    Type
REMARK                         _______ _______ _______ _____ _____    ______ ____
ROOT
ATOM      1  O   UNL     1      -0.914  10.195  17.842  0.00  0.00    +0.000 OA
ATOM      2  C   UNL     1      -1.979  10.769  17.618  0.00  0.00    +0.000 C 
ATOM      3  C   UNL     1      -2.519  10.862  16.216  0.00  0.00    +0.000 C 
ATOM      4  C   UNL     1      -4.027  11.000  16.099  0.00  0.00    +0.000 C 
ATOM      5  C   UNL     1      -4.786  11.508  17.325  0.00  0.00    +0.000 C 
ATOM      6  C   UNL     1      -3.979  11.809  18.551  0.00  0.00    +0.000 C 
ATOM      7  C   UNL     1      -2.688  11.484  18.708  0.00  0.00    +0.000 C 
ATOM      8  C   UNL     1      -1.922  11.784  19.985  0.00  0.00    +0.000 C 
ATOM      9  C   UNL     1      -2.760  12.583  20.965  0.00  0.00    +0.000 A 
ATOM     10  C   UNL     1      -4.058  12.835  20.729  0.00  0.00    +0.000 A 
ATOM     11  C   UNL     1      -4.867  13.556  21.714  0.00  0.00    +0.000 A 
ATOM     12  C   UNL     1      -6.256  13.707  21.637  0.00  0.00    +0.000 A 
ATOM     13  C   UNL     1      -6.947  14.425  22.623  0.00  0.00    +0.000 A 
ATOM     14  C   UNL     1      -6.258  15.011  23.687  0.00  0.00    +0.000 A 
ATOM     15  C   UNL     1      -4.880  14.858  23.781  0.00  0.00    +0.000 A 
ATOM     16  C   UNL     1      -4.213  14.120  22.806  0.00  0.00    +0.000 A 
ATOM     17  O   UNL     1      -2.836  13.934  23.002  0.00  0.00    +0.000 OA
ATOM     18  C   UNL     1      -2.111  13.062  22.207  0.00  0.00    +0.000 A 
ATOM     19  O   UNL     1      -0.962  12.762  22.507  0.00  0.00    +0.000 OA
ATOM     20  O   UNL     1      -4.704  12.441  19.561  0.00  0.00    +0.000 OA
ENDROOT
BRANCH   8  21
ATOM     21  C   UNL     1      -0.580  12.460  19.677  0.00  0.00    +0.000 A 
ATOM     22  C   UNL     1      -0.625  13.721  19.026  0.00  0.00    +0.000 A 
ATOM     23  C   UNL     1       0.535  14.398  18.648  0.00  0.00    +0.000 A 
ATOM     24  C   UNL     1       1.774  13.841  18.924  0.00  0.00    +0.000 A 
ATOM     25  C   UNL     1       1.860  12.613  19.580  0.00  0.00    +0.000 A 
ATOM     26  C   UNL     1       0.697  11.914  19.967  0.00  0.00    +0.000 A 
BRANCH  26  27
ATOM     27  N   UNL     1       0.920  10.627  20.678  0.00  0.00    +0.000 N 
ATOM     28  O   UNL     1       1.091  10.623  21.902  0.00  0.00    +0.000 OA
ATOM     29  O   UNL     1       0.946   9.594  19.990  0.00  0.00    +0.000 OA
ENDBRANCH  26  27
ENDBRANCH   8  21
TORSDOF 2
ENDMDL
MODEL 4
REMARK VINA RESULT:      -7.3      9.414     11.901
REMARK  Name = 
REMARK  2 active torsions:
REMARK  status: ('A' for Active; 'I' for Inactive)
REMARK    1  A    between atoms: C_8  and  C_9
REMARK    2  A    between atoms: C_14  and  N_15
REMARK                            x       y       z     vdW  Elec       q    Type
REMARK                         _______ _______ _______ _____ _____    ______ ____
ROOT
ATOM      1  O   UNL     1      -3.448  13.955  24.760  0.00  0.00    +0.000 OA
ATOM      2  C   UNL     1      -2.666  14.209  23.845  0.00  0.00    +0.000 C 
ATOM      3  C   UNL     1      -1.578  15.233  24.027  0.00  0.00    +0.000 C 
ATOM      4  C   UNL     1      -0.346  15.047  23.158  0.00  0.00    +0.000 C 
ATOM      5  C   UNL     1      -0.496  14.198  21.895  0.00  0.00    +0.000 C 
ATOM      6  C   UNL     1      -1.844  13.601  21.630  0.00  0.00    +0.000 C 
ATOM      7  C   UNL     1      -2.858  13.597  22.506  0.00  0.00    +0.000 C 
ATOM      8  C   UNL     1      -4.198  12.951  22.199  0.00  0.00    +0.000 C 
ATOM      9  C   UNL     1      -4.259  12.443  20.771  0.00  0.00    +0.000 A 
ATOM     10  C   UNL     1      -3.177  12.465  19.976  0.00  0.00    +0.000 A 
ATOM     11  C   UNL     1      -3.238  11.916  18.620  0.00  0.00    +0.000 A 
ATOM     12  C   UNL     1      -2.127  11.734  17.789  0.00  0.00    +0.000 A 
ATOM     13  C   UNL     1      -2.284  11.210  16.498  0.00  0.00    +0.000 A 
ATOM     14  C   UNL     1      -3.552  10.877  16.017  0.00  0.00    +0.000 A 
ATOM     15  C   UNL     1      -4.662  11.041  16.836  0.00  0.00    +0.000 A 
ATOM     16  C   UNL     1      -4.485  11.540  18.126  0.00  0.00    +0.000 A 
ATOM     17  O   UNL     1      -5.633  11.606  18.929  0.00  0.00    +0.000 OA
ATOM     18  C   UNL     1      -5.546  11.899  20.280  0.00  0.00    +0.000 A 
ATOM     19  O   UNL     1      -6.523  11.764  21.006  0.00  0.00    +0.000 OA
ATOM     20  O   UNL     1      -1.956  13.001  20.375  0.00  0.00    +0.000 OA
ENDROOT
BRANCH   8  21
ATOM     21  C   UNL     1      -5.356  13.898  22.533  0.00  0.00    +0.000 A 
ATOM     22  C   UNL     1      -5.359  15.167  21.896  0.00  0.00    +0.000 A 
ATOM     23  C   UNL     1      -6.333  16.128  22.169  0.00  0.00    +0.000 A 
ATOM     24  C   UNL     1      -7.343  15.842  23.076  0.00  0.00    +0.000 A 
ATOM     25  C   UNL     1      -7.385  14.599  23.706  0.00  0.00    +0.000 A 
ATOM     26  C   UNL     1      -6.407  13.616  23.444  0.00  0.00    +0.000 A 
BRANCH  26  27
ATOM     27  N   UNL     1      -6.575  12.326  24.163  0.00  0.00    +0.000 N 
ATOM     28  O   UNL     1      -5.654  11.886  24.860  0.00  0.00    +0.000 OA
ATOM     29  O   UNL     1      -7.650  11.725  24.009  0.00  0.00    +0.000 OA
ENDBRANCH  26  27
ENDBRANCH   8  21
TORSDOF 2
ENDMDL
MODEL 5
REMARK VINA RESULT:      -7.3      9.082     11.983
REMARK  Name = 
REMARK  2 active torsions:
REMARK  status: ('A' for Active; 'I' for Inactive)
REMARK    1  A    between atoms: C_8  and  C_9
REMARK    2  A    between atoms: C_14  and  N_15
REMARK                            x       y       z     vdW  Elec       q    Type
REMARK                         _______ _______ _______ _____ _____    ______ ____
ROOT
ATOM      1  O   UNL     1      -4.683  13.457  24.205  0.00  0.00    +0.000 OA
ATOM      2  C   UNL     1      -3.664  13.553  23.523  0.00  0.00    +0.000 C 
ATOM      3  C   UNL     1      -2.467  14.309  24.035  0.00  0.00    +0.000 C 
ATOM      4  C   UNL     1      -1.125  13.877  23.471  0.00  0.00    +0.000 C 
ATOM      5  C   UNL     1      -1.129  13.109  22.148  0.00  0.00    +0.000 C 
ATOM      6  C   UNL     1      -2.463  12.829  21.527  0.00  0.00    +0.000 C 
ATOM      7  C   UNL     1      -3.641  13.028  22.135  0.00  0.00    +0.000 C 
ATOM      8  C   UNL     1      -4.966  12.698  21.471  0.00  0.00    +0.000 C 
ATOM      9  C   UNL     1      -4.776  12.247  20.035  0.00  0.00    +0.000 A 
ATOM     10  C   UNL     1      -3.550  12.049  19.523  0.00  0.00    +0.000 A 
ATOM     11  C   UNL     1      -3.386  11.558  18.154  0.00  0.00    +0.000 A 
ATOM     12  C   UNL     1      -2.167  11.155  17.600  0.00  0.00    +0.000 A 
ATOM     13  C   UNL     1      -2.104  10.707  16.272  0.00  0.00    +0.000 A 
ATOM     14  C   UNL     1      -3.254  10.670  15.481  0.00  0.00    +0.000 A 
ATOM     15  C   UNL     1      -4.474  11.056  16.024  0.00  0.00    +0.000 A 
ATOM     16  C   UNL     1      -4.522  11.475  17.352  0.00  0.00    +0.000 A 
ATOM     17  O   UNL     1      -5.794  11.773  17.863  0.00  0.00    +0.000 OA
ATOM     18  C   UNL     1      -5.986  12.010  19.214  0.00  0.00    +0.000 A 
ATOM     19  O   UNL     1      -7.118  12.076  19.676  0.00  0.00    +0.000 OA
ATOM     20  O   UNL     1      -2.383  12.296  20.240  0.00  0.00    +0.000 OA
ENDROOT
BRANCH   8  21
ATOM     21  C   UNL     1      -5.949  13.868  21.591  0.00  0.00    +0.000 A 
ATOM     22  C   UNL     1      -5.653  15.042  20.849  0.00  0.00    +0.000 A 
ATOM     23  C   UNL     1      -6.448  16.186  20.928  0.00  0.00    +0.000 A 
ATOM     24  C   UNL     1      -7.572  16.184  21.740  0.00  0.00    +0.000 A 
ATOM     25  C   UNL     1      -7.907  15.045  22.470  0.00  0.00    +0.000 A 
ATOM     26  C   UNL     1      -7.113  13.879  22.404  0.00  0.00    +0.000 A 
BRANCH  26  27
ATOM     27  N   UNL     1      -7.588  12.724  23.211  0.00  0.00    +0.000 N 
ATOM     28  O   UNL     1      -7.916  12.893  24.390  0.00  0.00    +0.000 OA
ATOM     29  O   UNL     1      -7.614  11.615  22.655  0.00  0.00    +0.000 OA
ENDBRANCH  26  27
ENDBRANCH   8  21
TORSDOF 2
ENDMDL
MODEL 6
REMARK VINA RESULT:      -7.2      5.201      9.199
REMARK  Name = 
REMARK  2 active torsions:
REMARK  status: ('A' for Active; 'I' for Inactive)
REMARK    1  A    between atoms: C_8  and  C_9
REMARK    2  A    between atoms: C_14  and  N_15
REMARK                            x       y       z     vdW  Elec       q    Type
REMARK                         _______ _______ _______ _____ _____    ______ ____
ROOT
ATOM      1  O   UNL     1       2.611  12.618  18.907  0.00  0.00    +0.000 OA
ATOM      2  C   UNL     1       1.790  13.041  19.720  0.00  0.00    +0.000 C 
ATOM      3  C   UNL     1       2.243  13.749  20.969  0.00  0.00    +0.000 C 
ATOM      4  C   UNL     1       1.253  14.738  21.561  0.00  0.00    +0.000 C 
ATOM      5  C   UNL     1      -0.217  14.584  21.170  0.00  0.00    +0.000 C 
ATOM      6  C   UNL     1      -0.558  13.480  20.217  0.00  0.00    +0.000 C 
ATOM      7  C   UNL     1       0.345  12.754  19.543  0.00  0.00    +0.000 C 
ATOM      8  C   UNL     1      -0.054  11.664  18.562  0.00  0.00    +0.000 C 
ATOM      9  C   UNL     1      -1.555  11.443  18.553  0.00  0.00    +0.000 A 
ATOM     10  C   UNL     1      -2.382  12.244  19.244  0.00  0.00    +0.000 A 
ATOM     11  C   UNL     1      -3.832  12.052  19.176  0.00  0.00    +0.000 A 
ATOM     12  C   UNL     1      -4.773  12.938  19.712  0.00  0.00    +0.000 A 
ATOM     13  C   UNL     1      -6.144  12.666  19.609  0.00  0.00    +0.000 A 
ATOM     14  C   UNL     1      -6.590  11.500  18.983  0.00  0.00    +0.000 A 
ATOM     15  C   UNL     1      -5.667  10.618  18.435  0.00  0.00    +0.000 A 
ATOM     16  C   UNL     1      -4.309  10.917  18.525  0.00  0.00    +0.000 A 
ATOM     17  O   UNL     1      -3.434  10.028  17.883  0.00  0.00    +0.000 OA
ATOM     18  C   UNL     1      -2.088  10.325  17.741  0.00  0.00    +0.000 A 
ATOM     19  O   UNL     1      -1.377   9.641  17.015  0.00  0.00    +0.000 OA
ATOM     20  O   UNL     1      -1.929  13.282  20.052  0.00  0.00    +0.000 OA
ENDROOT
BRANCH   8  21
ATOM     21  C   UNL     1       0.726  10.372  18.828  0.00  0.00    +0.000 A 
ATOM     22  C   UNL     1       1.444   9.812  17.738  0.00  0.00    +0.000 A 
ATOM     23  C   UNL     1       2.142   8.610  17.853  0.00  0.00    +0.000 A 
ATOM     24  C   UNL     1       2.155   7.939  19.066  0.00  0.00    +0.000 A 
ATOM     25  C   UNL     1       1.479   8.466  20.165  0.00  0.00    +0.000 A 
ATOM     26  C   UNL     1       0.766   9.680  20.067  0.00  0.00    +0.000 A 
BRANCH  26  27
ATOM     27  N   UNL     1       0.106  10.148  21.314  0.00  0.00    +0.000 N 
ATOM     28  O   UNL     1       0.760  10.765  22.162  0.00  0.00    +0.000 OA
ATOM     29  O   UNL     1      -1.096   9.873  21.459  0.00  0.00    +0.000 OA
ENDBRANCH  26  27
ENDBRANCH   8  21
TORSDOF 2
ENDMDL
MODEL 7
REMARK VINA RESULT:      -7.2      9.944     12.630
REMARK  Name = 
REMARK  2 active torsions:
REMARK  status: ('A' for Active; 'I' for Inactive)
REMARK    1  A    between atoms: C_8  and  C_9
REMARK    2  A    between atoms: C_14  and  N_15
REMARK                            x       y       z     vdW  Elec       q    Type
REMARK                         _______ _______ _______ _____ _____    ______ ____
ROOT
ATOM      1  O   UNL     1      11.954  13.854  18.354  0.00  0.00    +0.000 OA
ATOM      2  C   UNL     1      11.073  13.027  18.584  0.00  0.00    +0.000 C 
ATOM      3  C   UNL     1      10.597  12.092  17.505  0.00  0.00    +0.000 C 
ATOM      4  C   UNL     1      10.019  10.772  17.985  0.00  0.00    +0.000 C 
ATOM      5  C   UNL     1       9.530  10.700  19.432  0.00  0.00    +0.000 C 
ATOM      6  C   UNL     1       9.680  11.935  20.265  0.00  0.00    +0.000 C 
ATOM      7  C   UNL     1      10.379  13.018  19.897  0.00  0.00    +0.000 C 
ATOM      8  C   UNL     1      10.528  14.236  20.793  0.00  0.00    +0.000 C 
ATOM      9  C   UNL     1       9.701  14.103  22.058  0.00  0.00    +0.000 A 
ATOM     10  C   UNL     1       9.055  12.963  22.352  0.00  0.00    +0.000 A 
ATOM     11  C   UNL     1       8.310  12.832  23.606  0.00  0.00    +0.000 A 
ATOM     12  C   UNL     1       7.761  11.635  24.078  0.00  0.00    +0.000 A 
ATOM     13  C   UNL     1       7.052  11.607  25.287  0.00  0.00    +0.000 A 
ATOM     14  C   UNL     1       6.872  12.775  26.031  0.00  0.00    +0.000 A 
ATOM     15  C   UNL     1       7.423  13.969  25.579  0.00  0.00    +0.000 A 
ATOM     16  C   UNL     1       8.146  13.973  24.387  0.00  0.00    +0.000 A 
ATOM     17  O   UNL     1       8.744  15.189  24.029  0.00  0.00    +0.000 OA
ATOM     18  C   UNL     1       9.641  15.264  22.975  0.00  0.00    +0.000 A 
ATOM     19  O   UNL     1      10.300  16.281  22.795  0.00  0.00    +0.000 OA
ATOM     20  O   UNL     1       9.048  11.858  21.506  0.00  0.00    +0.000 OA
ENDROOT
BRANCH   8  21
ATOM     21  C   UNL     1      10.218  15.526  20.025  0.00  0.00    +0.000 A 
ATOM     22  C   UNL     1      11.261  16.485  19.923  0.00  0.00    +0.000 A 
ATOM     23  C   UNL     1      11.073  17.717  19.295  0.00  0.00    +0.000 A 
ATOM     24  C   UNL     1       9.840  18.020  18.738  0.00  0.00    +0.000 A 
ATOM     25  C   UNL     1       8.797  17.097  18.800  0.00  0.00    +0.000 A 
ATOM     26  C   UNL     1       8.969  15.847  19.433  0.00  0.00    +0.000 A 
BRANCH  26  27
ATOM     27  N   UNL     1       7.789  14.942  19.414  0.00  0.00    +0.000 N 
ATOM     28  O   UNL     1       7.621  14.171  18.463  0.00  0.00    +0.000 OA
ATOM     29  O   UNL     1       6.998  15.019  20.367  0.00  0.00    +0.000 OA
ENDBRANCH  26  27
ENDBRANCH   8  21
TORSDOF 2
ENDMDL
MODEL 8
REMARK VINA RESULT:      -7.1      1.295      5.751
REMARK  Name = 
REMARK  2 active torsions:
REMARK  status: ('A' for Active; 'I' for Inactive)
REMARK    1  A    between atoms: C_8  and  C_9
REMARK    2  A    between atoms: C_14  and  N_15
REMARK                            x       y       z     vdW  Elec       q    Type
REMARK                         _______ _______ _______ _____ _____    ______ ____
ROOT
ATOM      1  O   UNL     1       5.437   3.035  19.712  0.00  0.00    +0.000 OA
ATOM      2  C   UNL     1       4.281   3.198  20.102  0.00  0.00    +0.000 C 
ATOM      3  C   UNL     1       3.494   2.049  20.673  0.00  0.00    +0.000 C 
ATOM      4  C   UNL     1       2.398   2.424  21.654  0.00  0.00    +0.000 C 
ATOM      5  C   UNL     1       1.873   3.860  21.610  0.00  0.00    +0.000 C 
ATOM      6  C   UNL     1       2.500   4.785  20.614  0.00  0.00    +0.000 C 
ATOM      7  C   UNL     1       3.603   4.504  19.905  0.00  0.00    +0.000 C 
ATOM      8  C   UNL     1       4.218   5.491  18.928  0.00  0.00    +0.000 C 
ATOM      9  C   UNL     1       3.368   6.738  18.784  0.00  0.00    +0.000 A 
ATOM     10  C   UNL     1       2.292   6.943  19.562  0.00  0.00    +0.000 A 
ATOM     11  C   UNL     1       1.517   8.180  19.450  0.00  0.00    +0.000 A 
ATOM     12  C   UNL     1       0.498   8.557  20.331  0.00  0.00    +0.000 A 
ATOM     13  C   UNL     1      -0.199   9.758  20.139  0.00  0.00    +0.000 A 
ATOM     14  C   UNL     1       0.104  10.588  19.057  0.00  0.00    +0.000 A 
ATOM     15  C   UNL     1       1.122  10.231  18.181  0.00  0.00    +0.000 A 
ATOM     16  C   UNL     1       1.821   9.046  18.402  0.00  0.00    +0.000 A 
ATOM     17  O   UNL     1       2.889   8.783  17.532  0.00  0.00    +0.000 OA
ATOM     18  C   UNL     1       3.770   7.741  17.772  0.00  0.00    +0.000 A 
ATOM     19  O   UNL     1       4.802   7.642  17.120  0.00  0.00    +0.000 OA
ATOM     20  O   UNL     1       1.850   6.015  20.500  0.00  0.00    +0.000 OA
ENDROOT
BRANCH   8  21
ATOM     21  C   UNL     1       4.509   4.822  17.580  0.00  0.00    +0.000 A 
ATOM     22  C   UNL     1       5.807   5.005  17.033  0.00  0.00    +0.000 A 
ATOM     23  C   UNL     1       6.162   4.489  15.786  0.00  0.00    +0.000 A 
ATOM     24  C   UNL     1       5.233   3.761  15.056  0.00  0.00    +0.000 A 
ATOM     25  C   UNL     1       3.955   3.543  15.568  0.00  0.00    +0.000 A 
ATOM     26  C   UNL     1       3.578   4.060  16.827  0.00  0.00    +0.000 A 
BRANCH  26  27
ATOM     27  N   UNL     1       2.196   3.741  17.271  0.00  0.00    +0.000 N 
ATOM     28  O   UNL     1       1.335   4.627  17.285  0.00  0.00    +0.000 OA
ATOM     29  O   UNL     1       1.970   2.576  17.635  0.00  0.00    +0.000 OA
ENDBRANCH  26  27
ENDBRANCH   8  21
TORSDOF 2
ENDMDL
MODEL 9
REMARK VINA RESULT:      -7.1      1.994      6.034
REMARK  Name = 
REMARK  2 active torsions:
REMARK  status: ('A' for Active; 'I' for Inactive)
REMARK    1  A    between atoms: C_8  and  C_9
REMARK    2  A    between atoms: C_14  and  N_15
REMARK                            x       y       z     vdW  Elec       q    Type
REMARK                         _______ _______ _______ _____ _____    ______ ____
ROOT
ATOM      1  O   UNL     1       5.317   2.944  19.801  0.00  0.00    +0.000 OA
ATOM      2  C   UNL     1       4.142   3.153  20.100  0.00  0.00    +0.000 C 
ATOM      3  C   UNL     1       3.264   2.031  20.588  0.00  0.00    +0.000 C 
ATOM      4  C   UNL     1       2.109   2.442  21.484  0.00  0.00    +0.000 C 
ATOM      5  C   UNL     1       1.650   3.899  21.420  0.00  0.00    +0.000 C 
ATOM      6  C   UNL     1       2.393   4.809  20.491  0.00  0.00    +0.000 C 
ATOM      7  C   UNL     1       3.537   4.488  19.869  0.00  0.00    +0.000 C 
ATOM      8  C   UNL     1       4.270   5.459  18.960  0.00  0.00    +0.000 C 
ATOM      9  C   UNL     1       3.487   6.744  18.767  0.00  0.00    +0.000 A 
ATOM     10  C   UNL     1       2.362   6.985  19.459  0.00  0.00    +0.000 A 
ATOM     11  C   UNL     1       1.651   8.256  19.304  0.00  0.00    +0.000 A 
ATOM     12  C   UNL     1       0.581   8.666  20.107  0.00  0.00    +0.000 A 
ATOM     13  C   UNL     1      -0.047   9.898  19.878  0.00  0.00    +0.000 A 
ATOM     14  C   UNL     1       0.376  10.727  18.837  0.00  0.00    +0.000 A 
ATOM     15  C   UNL     1       1.446  10.337  18.040  0.00  0.00    +0.000 A 
ATOM     16  C   UNL     1       2.074   9.120  18.298  0.00  0.00    +0.000 A 
ATOM     17  O   UNL     1       3.197   8.823  17.511  0.00  0.00    +0.000 OA
ATOM     18  C   UNL     1       4.011   7.741  17.805  0.00  0.00    +0.000 A 
ATOM     19  O   UNL     1       5.087   7.605  17.237  0.00  0.00    +0.000 OA
ATOM     20  O   UNL     1       1.807   6.066  20.344  0.00  0.00    +0.000 OA
ENDROOT
BRANCH   8  21
ATOM     21  C   UNL     1       4.640   4.795  17.628  0.00  0.00    +0.000 A 
ATOM     22  C   UNL     1       3.579   4.239  16.865  0.00  0.00    +0.000 A 
ATOM     23  C   UNL     1       3.809   3.562  15.666  0.00  0.00    +0.000 A 
ATOM     24  C   UNL     1       5.104   3.435  15.189  0.00  0.00    +0.000 A 
ATOM     25  C   UNL     1       6.170   3.984  15.900  0.00  0.00    +0.000 A 
ATOM     26  C   UNL     1       5.957   4.670  17.115  0.00  0.00    +0.000 A 
BRANCH  26  27
ATOM     27  N   UNL     1       7.172   5.228  17.766  0.00  0.00    +0.000 N 
ATOM     28  O   UNL     1       7.579   4.742  18.826  0.00  0.00    +0.000 OA
ATOM     29  O   UNL     1       7.722   6.192  17.211  0.00  0.00    +0.000 OA
ENDBRANCH  26  27
ENDBRANCH   8  21
TORSDOF 2
ENDMDL
