MODEL 1
REMARK VINA RESULT:      -7.0      0.000      0.000
REMARK  Name = 
REMARK  6 active torsions:
REMARK  status: ('A' for Active; 'I' for Inactive)
REMARK    1  A    between atoms: C_1  and  S_2
REMARK    2  A    between atoms: S_2  and  N_5
REMARK    3  A    between atoms: N_8  and  C_9
REMARK    4  A    between atoms: C_13  and  C_14
REMARK    5  A    between atoms: C_25  and  C_26
REMARK    6  A    between atoms: C_29  and  C_30
REMARK                            x       y       z     vdW  Elec       q    Type
REMARK                         _______ _______ _______ _____ _____    ______ ____
ROOT
ATOM      1  N   UNL     1       0.349  12.718  19.512  0.00  0.00    +0.000 N 
ATOM      2  C   UNL     1      -0.611  13.189  20.448  0.00  0.00    +0.000 C 
ATOM      3  O   UNL     1      -0.289  13.972  21.337  0.00  0.00    +0.000 OA
ATOM      4  N   UNL     1      -1.948  12.752  20.303  0.00  0.00    +0.000 N 
ATOM      5  C   UNL     1      -2.294  11.852  19.314  0.00  0.00    +0.000 C 
ATOM      6  C   UNL     1      -1.369  11.360  18.494  0.00  0.00    +0.000 C 
ATOM      7  C   UNL     1      -2.078  10.510  17.537  0.00  0.00    +0.000 C 
ATOM      8  O   UNL     1      -1.529   9.947  16.603  0.00  0.00    +0.000 OA
ATOM      9  C   UNL     1      -3.542  10.433  17.851  0.00  0.00    +0.000 C 
ATOM     10  C   UNL     1      -3.690  11.394  19.028  0.00  0.00    +0.000 C 
ATOM     11  C   UNL     1       0.090  11.607  18.544  0.00  0.00    +0.000 C 
ENDROOT
BRANCH   4  12
ATOM     12  C   UNL     1      -2.929  13.363  21.133  0.00  0.00    +0.000 A 
ATOM     13  C   UNL     1      -3.514  14.577  20.765  0.00  0.00    +0.000 A 
ATOM     14  C   UNL     1      -4.453  15.180  21.602  0.00  0.00    +0.000 A 
ATOM     15  C   UNL     1      -4.793  14.584  22.818  0.00  0.00    +0.000 A 
ATOM     16  C   UNL     1      -4.211  13.368  23.205  0.00  0.00    +0.000 A 
ATOM     17  C   UNL     1      -3.290  12.754  22.343  0.00  0.00    +0.000 A 
BRANCH  16  18
ATOM     18  C   UNL     1      -4.542  12.723  24.529  0.00  0.00    +0.000 C 
ATOM     19  F   UNL     1      -4.090  11.444  24.643  0.00  0.00    +0.000 F 
ATOM     20  F   UNL     1      -4.023  13.402  25.588  0.00  0.00    +0.000 F 
ATOM     21  F   UNL     1      -5.886  12.664  24.747  0.00  0.00    +0.000 F 
ENDBRANCH  16  18
ENDBRANCH   4  12
BRANCH  11  22
ATOM     22  C   UNL     1       0.816  10.302  18.863  0.00  0.00    +0.000 A 
ATOM     23  C   UNL     1       1.567   9.659  17.865  0.00  0.00    +0.000 A 
ATOM     24  C   UNL     1       2.170   8.422  18.110  0.00  0.00    +0.000 A 
ATOM     25  C   UNL     1       2.030   7.808  19.357  0.00  0.00    +0.000 A 
ATOM     26  C   UNL     1       1.297   8.444  20.363  0.00  0.00    +0.000 A 
ATOM     27  C   UNL     1       0.703   9.687  20.122  0.00  0.00    +0.000 A 
BRANCH  25  28
ATOM     28  C   UNL     1       2.626   6.528  19.603  0.00  0.00    +0.000 C 
ATOM     29  N   UNL     1       3.120   5.498  19.804  0.00  0.00    +0.000 NA
ENDBRANCH  25  28
ENDBRANCH  11  22
BRANCH   1  31
ATOM     30  C   UNL     1       2.024  14.944  19.528  0.00  0.00    +0.000 C 
ATOM     31  S   UNL     1       1.972  13.157  19.621  0.00  0.00    +0.000 S 
ATOM     32  O   UNL     1       2.614  12.682  18.407  0.00  0.00    +0.000 OA
ATOM     33  O   UNL     1       2.469  12.747  20.916  0.00  0.00    +0.000 OA
ENDBRANCH   1  31
TORSDOF 5
ENDMDL
MODEL 2
REMARK VINA RESULT:      -7.0      1.500      1.812
REMARK  Name = 
REMARK  6 active torsions:
REMARK  status: ('A' for Active; 'I' for Inactive)
REMARK    1  A    between atoms: C_1  and  S_2
REMARK    2  A    between atoms: S_2  and  N_5
REMARK    3  A    between atoms: N_8  and  C_9
REMARK    4  A    between atoms: C_13  and  C_14
REMARK    5  A    between atoms: C_25  and  C_26
REMARK    6  A    between atoms: C_29  and  C_30
REMARK                            x       y       z     vdW  Elec       q    Type
REMARK                         _______ _______ _______ _____ _____    ______ ____
ROOT
ATOM      1  N   UNL     1      -1.104  13.366  20.064  0.00  0.00    +0.000 N 
ATOM      2  C   UNL     1      -2.275  13.684  20.803  0.00  0.00    +0.000 C 
ATOM      3  O   UNL     1      -2.221  14.433  21.774  0.00  0.00    +0.000 OA
ATOM      4  N   UNL     1      -3.504  13.139  20.365  0.00  0.00    +0.000 N 
ATOM      5  C   UNL     1      -3.550  12.278  19.285  0.00  0.00    +0.000 C 
ATOM      6  C   UNL     1      -2.434  11.927  18.652  0.00  0.00    +0.000 C 
ATOM      7  C   UNL     1      -2.845  11.083  17.531  0.00  0.00    +0.000 C 
ATOM      8  O   UNL     1      -2.065  10.634  16.705  0.00  0.00    +0.000 OA
ATOM      9  C   UNL     1      -4.327  10.853  17.531  0.00  0.00    +0.000 C 
ATOM     10  C   UNL     1      -4.806  11.716  18.696  0.00  0.00    +0.000 C 
ATOM     11  C   UNL     1      -1.048  12.302  19.013  0.00  0.00    +0.000 C 
ENDROOT
BRANCH   4  12
ATOM     12  C   UNL     1      -4.689  13.602  21.001  0.00  0.00    +0.000 A 
ATOM     13  C   UNL     1      -5.326  14.763  20.558  0.00  0.00    +0.000 A 
ATOM     14  C   UNL     1      -6.471  15.222  21.210  0.00  0.00    +0.000 A 
ATOM     15  C   UNL     1      -6.969  14.537  22.319  0.00  0.00    +0.000 A 
ATOM     16  C   UNL     1      -6.338  13.371  22.781  0.00  0.00    +0.000 A 
ATOM     17  C   UNL     1      -5.205  12.901  22.100  0.00  0.00    +0.000 A 
BRANCH  16  18
ATOM     18  C   UNL     1      -6.842  12.632  23.996  0.00  0.00    +0.000 C 
ATOM     19  F   UNL     1      -5.851  12.133  24.783  0.00  0.00    +0.000 F 
ATOM     20  F   UNL     1      -7.609  13.413  24.804  0.00  0.00    +0.000 F 
ATOM     21  F   UNL     1      -7.622  11.566  23.659  0.00  0.00    +0.000 F 
ENDBRANCH  16  18
ENDBRANCH   4  12
BRANCH  11  22
ATOM     22  C   UNL     1      -0.271  11.051  19.415  0.00  0.00    +0.000 A 
ATOM     23  C   UNL     1       0.721  10.540  18.561  0.00  0.00    +0.000 A 
ATOM     24  C   UNL     1       1.385   9.350  18.868  0.00  0.00    +0.000 A 
ATOM     25  C   UNL     1       1.067   8.649  20.033  0.00  0.00    +0.000 A 
ATOM     26  C   UNL     1       0.091   9.153  20.899  0.00  0.00    +0.000 A 
ATOM     27  C   UNL     1      -0.565  10.350  20.598  0.00  0.00    +0.000 A 
BRANCH  25  28
ATOM     28  C   UNL     1       1.729   7.414  20.339  0.00  0.00    +0.000 C 
ATOM     29  N   UNL     1       2.268   6.420  20.597  0.00  0.00    +0.000 NA
ENDBRANCH  25  28
ENDBRANCH  11  22
BRANCH   1  31
ATOM     30  C   UNL     1       0.236  15.708  20.756  0.00  0.00    +0.000 C 
ATOM     31  S   UNL     1       0.411  13.941  20.527  0.00  0.00    +0.000 S 
ATOM     32  O   UNL     1       1.286  13.780  19.378  0.00  0.00    +0.000 OA
ATOM     33  O   UNL     1       0.758  13.343  21.797  0.00  0.00    +0.000 OA
ENDBRANCH   1  31
TORSDOF 5
ENDMDL
MODEL 3
REMARK VINA RESULT:      -6.7      1.485      1.934
REMARK  Name = 
REMARK  6 active torsions:
REMARK  status: ('A' for Active; 'I' for Inactive)
REMARK    1  A    between atoms: C_1  and  S_2
REMARK    2  A    between atoms: S_2  and  N_5
REMARK    3  A    between atoms: N_8  and  C_9
REMARK    4  A    between atoms: C_13  and  C_14
REMARK    5  A    between atoms: C_25  and  C_26
REMARK    6  A    between atoms: C_29  and  C_30
REMARK                            x       y       z     vdW  Elec       q    Type
REMARK                         _______ _______ _______ _____ _____    ______ ____
ROOT
ATOM      1  N   UNL     1      -0.976  13.299  20.077  0.00  0.00    +0.000 N 
ATOM      2  C   UNL     1      -2.139  13.645  20.817  0.00  0.00    +0.000 C 
ATOM      3  O   UNL     1      -2.067  14.398  21.784  0.00  0.00    +0.000 OA
ATOM      4  N   UNL     1      -3.380  13.121  20.386  0.00  0.00    +0.000 N 
ATOM      5  C   UNL     1      -3.446  12.256  19.311  0.00  0.00    +0.000 C 
ATOM      6  C   UNL     1      -2.339  11.879  18.676  0.00  0.00    +0.000 C 
ATOM      7  C   UNL     1      -2.770  11.037  17.561  0.00  0.00    +0.000 C 
ATOM      8  O   UNL     1      -2.002  10.568  16.736  0.00  0.00    +0.000 OA
ATOM      9  C   UNL     1      -4.256  10.836  17.567  0.00  0.00    +0.000 C 
ATOM     10  C   UNL     1      -4.715  11.715  18.729  0.00  0.00    +0.000 C 
ATOM     11  C   UNL     1      -0.945  12.229  19.032  0.00  0.00    +0.000 C 
ENDROOT
BRANCH   4  12
ATOM     12  C   UNL     1      -4.554  13.611  21.023  0.00  0.00    +0.000 A 
ATOM     13  C   UNL     1      -5.155  14.795  20.590  0.00  0.00    +0.000 A 
ATOM     14  C   UNL     1      -6.288  15.280  21.243  0.00  0.00    +0.000 A 
ATOM     15  C   UNL     1      -6.810  14.597  22.343  0.00  0.00    +0.000 A 
ATOM     16  C   UNL     1      -6.215  13.409  22.794  0.00  0.00    +0.000 A 
ATOM     17  C   UNL     1      -5.094  12.914  22.112  0.00  0.00    +0.000 A 
BRANCH  16  18
ATOM     18  C   UNL     1      -6.745  12.672  23.999  0.00  0.00    +0.000 C 
ATOM     19  F   UNL     1      -7.528  13.437  24.809  0.00  0.00    +0.000 F 
ATOM     20  F   UNL     1      -7.497  11.589  23.663  0.00  0.00    +0.000 F 
ATOM     21  F   UNL     1      -5.742  12.198  24.791  0.00  0.00    +0.000 F 
ENDBRANCH  16  18
ENDBRANCH   4  12
BRANCH  11  22
ATOM     22  C   UNL     1      -0.191  10.964  19.438  0.00  0.00    +0.000 A 
ATOM     23  C   UNL     1       0.807  10.445  18.597  0.00  0.00    +0.000 A 
ATOM     24  C   UNL     1       1.449   9.244  18.907  0.00  0.00    +0.000 A 
ATOM     25  C   UNL     1       1.103   8.540  20.063  0.00  0.00    +0.000 A 
ATOM     26  C   UNL     1       0.120   9.053  20.916  0.00  0.00    +0.000 A 
ATOM     27  C   UNL     1      -0.515  10.260  20.612  0.00  0.00    +0.000 A 
BRANCH  25  28
ATOM     28  C   UNL     1       1.742   7.295  20.372  0.00  0.00    +0.000 C 
ATOM     29  N   UNL     1       2.258   6.283  20.609  0.00  0.00    +0.000 NA
ENDBRANCH  25  28
ENDBRANCH  11  22
BRANCH   1  31
ATOM     30  C   UNL     1       1.628  13.578  19.127  0.00  0.00    +0.000 C 
ATOM     31  S   UNL     1       0.551  13.847  20.532  0.00  0.00    +0.000 S 
ATOM     32  O   UNL     1       1.025  12.944  21.568  0.00  0.00    +0.000 OA
ATOM     33  O   UNL     1       0.468  15.268  20.786  0.00  0.00    +0.000 OA
ENDBRANCH   1  31
TORSDOF 5
ENDMDL
MODEL 4
REMARK VINA RESULT:      -6.5      1.839      2.291
REMARK  Name = 
REMARK  6 active torsions:
REMARK  status: ('A' for Active; 'I' for Inactive)
REMARK    1  A    between atoms: C_1  and  S_2
REMARK    2  A    between atoms: S_2  and  N_5
REMARK    3  A    between atoms: N_8  and  C_9
REMARK    4  A    between atoms: C_13  and  C_14
REMARK    5  A    between atoms: C_25  and  C_26
REMARK    6  A    between atoms: C_29  and  C_30
REMARK                            x       y       z     vdW  Elec       q    Type
REMARK                         _______ _______ _______ _____ _____    ______ ____
ROOT
ATOM      1  N   UNL     1       0.111  12.830  19.690  0.00  0.00    +0.000 N 
ATOM      2  C   UNL     1      -0.893  13.266  20.597  0.00  0.00    +0.000 C 
ATOM      3  O   UNL     1      -0.618  14.027  21.519  0.00  0.00    +0.000 OA
ATOM      4  N   UNL     1      -2.218  12.821  20.383  0.00  0.00    +0.000 N 
ATOM      5  C   UNL     1      -2.512  11.944  19.357  0.00  0.00    +0.000 C 
ATOM      6  C   UNL     1      -1.548  11.484  18.564  0.00  0.00    +0.000 C 
ATOM      7  C   UNL     1      -2.206  10.654  17.555  0.00  0.00    +0.000 C 
ATOM      8  O   UNL     1      -1.613  10.122  16.630  0.00  0.00    +0.000 OA
ATOM      9  C   UNL     1      -3.682  10.555  17.803  0.00  0.00    +0.000 C 
ATOM     10  C   UNL     1      -3.890  11.481  18.999  0.00  0.00    +0.000 C 
ATOM     11  C   UNL     1      -0.095  11.744  18.682  0.00  0.00    +0.000 C 
ENDROOT
BRANCH   4  12
ATOM     12  C   UNL     1      -3.240  13.399  21.187  0.00  0.00    +0.000 A 
ATOM     13  C   UNL     1      -3.644  12.783  22.373  0.00  0.00    +0.000 A 
ATOM     14  C   UNL     1      -4.668  13.346  23.136  0.00  0.00    +0.000 A 
ATOM     15  C   UNL     1      -5.306  14.510  22.705  0.00  0.00    +0.000 A 
ATOM     16  C   UNL     1      -4.916  15.138  21.512  0.00  0.00    +0.000 A 
ATOM     17  C   UNL     1      -3.865  14.582  20.767  0.00  0.00    +0.000 A 
BRANCH  16  18
ATOM     18  C   UNL     1      -5.612  16.380  21.013  0.00  0.00    +0.000 C 
ATOM     19  F   UNL     1      -6.970  16.285  21.016  0.00  0.00    +0.000 F 
ATOM     20  F   UNL     1      -5.310  17.483  21.749  0.00  0.00    +0.000 F 
ATOM     21  F   UNL     1      -5.263  16.681  19.730  0.00  0.00    +0.000 F 
ENDBRANCH  16  18
ENDBRANCH   4  12
BRANCH  11  22
ATOM     22  C   UNL     1       0.631  10.438  18.997  0.00  0.00    +0.000 A 
ATOM     23  C   UNL     1       1.390   9.803  18.000  0.00  0.00    +0.000 A 
ATOM     24  C   UNL     1       1.993   8.566  18.239  0.00  0.00    +0.000 A 
ATOM     25  C   UNL     1       1.845   7.941  19.480  0.00  0.00    +0.000 A 
ATOM     26  C   UNL     1       1.103   8.568  20.485  0.00  0.00    +0.000 A 
ATOM     27  C   UNL     1       0.509   9.812  20.250  0.00  0.00    +0.000 A 
BRANCH  25  28
ATOM     28  C   UNL     1       2.442   6.660  19.721  0.00  0.00    +0.000 C 
ATOM     29  N   UNL     1       2.914   5.618  19.911  0.00  0.00    +0.000 NA
ENDBRANCH  25  28
ENDBRANCH  11  22
BRANCH   1  31
ATOM     30  C   UNL     1       1.748  15.070  19.938  0.00  0.00    +0.000 C 
ATOM     31  S   UNL     1       1.723  13.281  19.880  0.00  0.00    +0.000 S 
ATOM     32  O   UNL     1       2.404  12.919  18.648  0.00  0.00    +0.000 OA
ATOM     33  O   UNL     1       2.193  12.771  21.149  0.00  0.00    +0.000 OA
ENDBRANCH   1  31
TORSDOF 5
ENDMDL
MODEL 5
REMARK VINA RESULT:      -6.5      3.798      7.495
REMARK  Name = 
REMARK  6 active torsions:
REMARK  status: ('A' for Active; 'I' for Inactive)
REMARK    1  A    between atoms: C_1  and  S_2
REMARK    2  A    between atoms: S_2  and  N_5
REMARK    3  A    between atoms: N_8  and  C_9
REMARK    4  A    between atoms: C_13  and  C_14
REMARK    5  A    between atoms: C_25  and  C_26
REMARK    6  A    between atoms: C_29  and  C_30
REMARK                            x       y       z     vdW  Elec       q    Type
REMARK                         _______ _______ _______ _____ _____    ______ ____
ROOT
ATOM      1  N   UNL     1      -0.886  11.129  21.312  0.00  0.00    +0.000 N 
ATOM      2  C   UNL     1       0.215  10.372  20.828  0.00  0.00    +0.000 C 
ATOM      3  O   UNL     1       1.142  10.067  21.572  0.00  0.00    +0.000 OA
ATOM      4  N   UNL     1       0.192   9.956  19.477  0.00  0.00    +0.000 N 
ATOM      5  C   UNL     1      -0.846  10.325  18.642  0.00  0.00    +0.000 C 
ATOM      6  C   UNL     1      -1.830  11.099  19.089  0.00  0.00    +0.000 C 
ATOM      7  C   UNL     1      -2.784  11.230  17.987  0.00  0.00    +0.000 C 
ATOM      8  O   UNL     1      -3.841  11.833  18.080  0.00  0.00    +0.000 OA
ATOM      9  C   UNL     1      -2.296  10.529  16.754  0.00  0.00    +0.000 C 
ATOM     10  C   UNL     1      -1.003   9.868  17.225  0.00  0.00    +0.000 C 
ATOM     11  C   UNL     1      -1.939  11.721  20.429  0.00  0.00    +0.000 C 
ENDROOT
BRANCH   4  12
ATOM     12  C   UNL     1       1.207   9.055  19.052  0.00  0.00    +0.000 A 
ATOM     13  C   UNL     1       2.035   9.375  17.974  0.00  0.00    +0.000 A 
ATOM     14  C   UNL     1       3.007   8.469  17.549  0.00  0.00    +0.000 A 
ATOM     15  C   UNL     1       3.140   7.234  18.184  0.00  0.00    +0.000 A 
ATOM     16  C   UNL     1       2.313   6.894  19.266  0.00  0.00    +0.000 A 
ATOM     17  C   UNL     1       1.359   7.823  19.705  0.00  0.00    +0.000 A 
BRANCH  16  18
ATOM     18  C   UNL     1       2.421   5.552  19.947  0.00  0.00    +0.000 C 
ATOM     19  F   UNL     1       1.996   5.559  21.240  0.00  0.00    +0.000 F 
ATOM     20  F   UNL     1       1.700   4.585  19.319  0.00  0.00    +0.000 F 
ATOM     21  F   UNL     1       3.706   5.096  19.981  0.00  0.00    +0.000 F 
ENDBRANCH  16  18
ENDBRANCH   4  12
BRANCH  11  22
ATOM     22  C   UNL     1      -1.874  13.240  20.291  0.00  0.00    +0.000 A 
ATOM     23  C   UNL     1      -0.749  13.841  19.703  0.00  0.00    +0.000 A 
ATOM     24  C   UNL     1      -0.630  15.232  19.644  0.00  0.00    +0.000 A 
ATOM     25  C   UNL     1      -1.635  16.045  20.173  0.00  0.00    +0.000 A 
ATOM     26  C   UNL     1      -2.766  15.460  20.749  0.00  0.00    +0.000 A 
ATOM     27  C   UNL     1      -2.891  14.069  20.798  0.00  0.00    +0.000 A 
BRANCH  25  28
ATOM     28  C   UNL     1      -1.504  17.472  20.136  0.00  0.00    +0.000 C 
ATOM     29  N   UNL     1      -1.386  18.626  20.105  0.00  0.00    +0.000 NA
ENDBRANCH  25  28
ENDBRANCH  11  22
BRANCH   1  31
ATOM     30  C   UNL     1      -2.651  12.052  23.259  0.00  0.00    +0.000 C 
ATOM     31  S   UNL     1      -0.934  11.697  22.897  0.00  0.00    +0.000 S 
ATOM     32  O   UNL     1      -0.259  12.984  22.899  0.00  0.00    +0.000 OA
ATOM     33  O   UNL     1      -0.486  10.638  23.775  0.00  0.00    +0.000 OA
ENDBRANCH   1  31
TORSDOF 5
ENDMDL
MODEL 6
REMARK VINA RESULT:      -6.5      1.349      1.794
REMARK  Name = 
REMARK  6 active torsions:
REMARK  status: ('A' for Active; 'I' for Inactive)
REMARK    1  A    between atoms: C_1  and  S_2
REMARK    2  A    between atoms: S_2  and  N_5
REMARK    3  A    between atoms: N_8  and  C_9
REMARK    4  A    between atoms: C_13  and  C_14
REMARK    5  A    between atoms: C_25  and  C_26
REMARK    6  A    between atoms: C_29  and  C_30
REMARK                            x       y       z     vdW  Elec       q    Type
REMARK                         _______ _______ _______ _____ _____    ______ ____
ROOT
ATOM      1  N   UNL     1      -0.712  13.137  19.992  0.00  0.00    +0.000 N 
ATOM      2  C   UNL     1      -1.807  13.544  20.802  0.00  0.00    +0.000 C 
ATOM      3  O   UNL     1      -1.628  14.252  21.788  0.00  0.00    +0.000 OA
ATOM      4  N   UNL     1      -3.104  13.134  20.418  0.00  0.00    +0.000 N 
ATOM      5  C   UNL     1      -3.291  12.317  19.320  0.00  0.00    +0.000 C 
ATOM      6  C   UNL     1      -2.250  11.880  18.617  0.00  0.00    +0.000 C 
ATOM      7  C   UNL     1      -2.799  11.115  17.498  0.00  0.00    +0.000 C 
ATOM      8  O   UNL     1      -2.112  10.620  16.619  0.00  0.00    +0.000 OA
ATOM      9  C   UNL     1      -4.295  11.030  17.574  0.00  0.00    +0.000 C 
ATOM     10  C   UNL     1      -4.625  11.898  18.786  0.00  0.00    +0.000 C 
ATOM     11  C   UNL     1      -0.816  12.107  18.911  0.00  0.00    +0.000 C 
ENDROOT
BRANCH   4  12
ATOM     12  C   UNL     1      -4.203  13.689  21.131  0.00  0.00    +0.000 A 
ATOM     13  C   UNL     1      -4.638  14.989  20.864  0.00  0.00    +0.000 A 
ATOM     14  C   UNL     1      -5.699  15.531  21.592  0.00  0.00    +0.000 A 
ATOM     15  C   UNL     1      -6.311  14.786  22.601  0.00  0.00    +0.000 A 
ATOM     16  C   UNL     1      -5.882  13.480  22.885  0.00  0.00    +0.000 A 
ATOM     17  C   UNL     1      -4.835  12.933  22.128  0.00  0.00    +0.000 A 
BRANCH  16  18
ATOM     18  C   UNL     1      -6.510  12.669  23.991  0.00  0.00    +0.000 C 
ATOM     19  F   UNL     1      -7.291  11.648  23.545  0.00  0.00    +0.000 F 
ATOM     20  F   UNL     1      -5.588  12.106  24.818  0.00  0.00    +0.000 F 
ATOM     21  F   UNL     1      -7.312  13.429  24.791  0.00  0.00    +0.000 F 
ENDBRANCH  16  18
ENDBRANCH   4  12
BRANCH  11  22
ATOM     22  C   UNL     1      -0.146  10.774  19.236  0.00  0.00    +0.000 A 
ATOM     23  C   UNL     1      -0.461  10.107  20.430  0.00  0.00    +0.000 A 
ATOM     24  C   UNL     1       0.201   8.929  20.788  0.00  0.00    +0.000 A 
ATOM     25  C   UNL     1       1.192   8.401  19.957  0.00  0.00    +0.000 A 
ATOM     26  C   UNL     1       1.506   9.049  18.758  0.00  0.00    +0.000 A 
ATOM     27  C   UNL     1       0.836  10.220  18.395  0.00  0.00    +0.000 A 
BRANCH  25  28
ATOM     28  C   UNL     1       1.890   7.207  20.333  0.00  0.00    +0.000 C 
ATOM     29  N   UNL     1       2.445   6.236  20.640  0.00  0.00    +0.000 NA
ENDBRANCH  25  28
ENDBRANCH  11  22
BRANCH   1  31
ATOM     30  C   UNL     1       1.833  13.374  18.884  0.00  0.00    +0.000 C 
ATOM     31  S   UNL     1       0.874  13.548  20.385  0.00  0.00    +0.000 S 
ATOM     32  O   UNL     1       1.361  12.515  21.284  0.00  0.00    +0.000 OA
ATOM     33  O   UNL     1       0.898  14.937  20.791  0.00  0.00    +0.000 OA
ENDBRANCH   1  31
TORSDOF 5
ENDMDL
MODEL 7
REMARK VINA RESULT:      -6.5      1.810      2.412
REMARK  Name = 
REMARK  6 active torsions:
REMARK  status: ('A' for Active; 'I' for Inactive)
REMARK    1  A    between atoms: C_1  and  S_2
REMARK    2  A    between atoms: S_2  and  N_5
REMARK    3  A    between atoms: N_8  and  C_9
REMARK    4  A    between atoms: C_13  and  C_14
REMARK    5  A    between atoms: C_25  and  C_26
REMARK    6  A    between atoms: C_29  and  C_30
REMARK                            x       y       z     vdW  Elec       q    Type
REMARK                         _______ _______ _______ _____ _____    ______ ____
ROOT
ATOM      1  N   UNL     1       0.034  12.782  19.695  0.00  0.00    +0.000 N 
ATOM      2  C   UNL     1      -0.941  13.202  20.640  0.00  0.00    +0.000 C 
ATOM      3  O   UNL     1      -0.624  13.896  21.603  0.00  0.00    +0.000 OA
ATOM      4  N   UNL     1      -2.285  12.825  20.419  0.00  0.00    +0.000 N 
ATOM      5  C   UNL     1      -2.627  12.025  19.346  0.00  0.00    +0.000 C 
ATOM      6  C   UNL     1      -1.692  11.574  18.514  0.00  0.00    +0.000 C 
ATOM      7  C   UNL     1      -2.395  10.834  17.467  0.00  0.00    +0.000 C 
ATOM      8  O   UNL     1      -1.835  10.334  16.504  0.00  0.00    +0.000 OA
ATOM      9  C   UNL     1      -3.871  10.779  17.729  0.00  0.00    +0.000 C 
ATOM     10  C   UNL     1      -4.027  11.640  18.981  0.00  0.00    +0.000 C 
ATOM     11  C   UNL     1      -0.228  11.767  18.628  0.00  0.00    +0.000 C 
ENDROOT
BRANCH   4  12
ATOM     12  C   UNL     1      -3.273  13.395  21.269  0.00  0.00    +0.000 A 
ATOM     13  C   UNL     1      -3.683  12.730  22.427  0.00  0.00    +0.000 A 
ATOM     14  C   UNL     1      -4.674  13.286  23.236  0.00  0.00    +0.000 A 
ATOM     15  C   UNL     1      -5.274  14.496  22.880  0.00  0.00    +0.000 A 
ATOM     16  C   UNL     1      -4.877  15.174  21.717  0.00  0.00    +0.000 A 
ATOM     17  C   UNL     1      -3.859  14.622  20.926  0.00  0.00    +0.000 A 
BRANCH  16  18
ATOM     18  C   UNL     1      -5.533  16.467  21.299  0.00  0.00    +0.000 C 
ATOM     19  F   UNL     1      -5.427  17.460  22.224  0.00  0.00    +0.000 F 
ATOM     20  F   UNL     1      -5.014  16.970  20.146  0.00  0.00    +0.000 F 
ATOM     21  F   UNL     1      -6.868  16.313  21.070  0.00  0.00    +0.000 F 
ENDBRANCH  16  18
ENDBRANCH   4  12
BRANCH  11  22
ATOM     22  C   UNL     1       0.447  10.416  18.854  0.00  0.00    +0.000 A 
ATOM     23  C   UNL     1       0.330   9.776  20.099  0.00  0.00    +0.000 A 
ATOM     24  C   UNL     1       1.008   8.582  20.356  0.00  0.00    +0.000 A 
ATOM     25  C   UNL     1       1.817   8.008  19.372  0.00  0.00    +0.000 A 
ATOM     26  C   UNL     1       1.931   8.628  18.123  0.00  0.00    +0.000 A 
ATOM     27  C   UNL     1       1.244   9.816  17.862  0.00  0.00    +0.000 A 
BRANCH  25  28
ATOM     28  C   UNL     1       2.533   6.796  19.641  0.00  0.00    +0.000 C 
ATOM     29  N   UNL     1       3.119   5.817  19.847  0.00  0.00    +0.000 NA
ENDBRANCH  25  28
ENDBRANCH  11  22
BRANCH   1  31
ATOM     30  C   UNL     1       1.770  14.938  20.006  0.00  0.00    +0.000 C 
ATOM     31  S   UNL     1       1.666  13.154  19.890  0.00  0.00    +0.000 S 
ATOM     32  O   UNL     1       2.324  12.803  18.643  0.00  0.00    +0.000 OA
ATOM     33  O   UNL     1       2.118  12.582  21.139  0.00  0.00    +0.000 OA
ENDBRANCH   1  31
TORSDOF 5
ENDMDL
MODEL 8
REMARK VINA RESULT:      -6.5      0.692      1.028
REMARK  Name = 
REMARK  6 active torsions:
REMARK  status: ('A' for Active; 'I' for Inactive)
REMARK    1  A    between atoms: C_1  and  S_2
REMARK    2  A    between atoms: S_2  and  N_5
REMARK    3  A    between atoms: N_8  and  C_9
REMARK    4  A    between atoms: C_13  and  C_14
REMARK    5  A    between atoms: C_25  and  C_26
REMARK    6  A    between atoms: C_29  and  C_30
REMARK                            x       y       z     vdW  Elec       q    Type
REMARK                         _______ _______ _______ _____ _____    ______ ____
ROOT
ATOM      1  N   UNL     1       0.071  12.763  19.492  0.00  0.00    +0.000 N 
ATOM      2  C   UNL     1      -0.937  13.183  20.401  0.00  0.00    +0.000 C 
ATOM      3  O   UNL     1      -0.676  13.970  21.307  0.00  0.00    +0.000 OA
ATOM      4  N   UNL     1      -2.249  12.692  20.211  0.00  0.00    +0.000 N 
ATOM      5  C   UNL     1      -2.526  11.789  19.203  0.00  0.00    +0.000 C 
ATOM      6  C   UNL     1      -1.556  11.345  18.408  0.00  0.00    +0.000 C 
ATOM      7  C   UNL     1      -2.198  10.476  17.422  0.00  0.00    +0.000 C 
ATOM      8  O   UNL     1      -1.598   9.946  16.500  0.00  0.00    +0.000 OA
ATOM      9  C   UNL     1      -3.667  10.334  17.688  0.00  0.00    +0.000 C 
ATOM     10  C   UNL     1      -3.892  11.276  18.870  0.00  0.00    +0.000 C 
ATOM     11  C   UNL     1      -0.111  11.653  18.506  0.00  0.00    +0.000 C 
ENDROOT
BRANCH   4  12
ATOM     12  C   UNL     1      -3.281  13.253  21.015  0.00  0.00    +0.000 A 
ATOM     13  C   UNL     1      -4.029  14.338  20.554  0.00  0.00    +0.000 A 
ATOM     14  C   UNL     1      -5.018  14.897  21.365  0.00  0.00    +0.000 A 
ATOM     15  C   UNL     1      -5.245  14.388  22.645  0.00  0.00    +0.000 A 
ATOM     16  C   UNL     1      -4.498  13.302  23.125  0.00  0.00    +0.000 A 
ATOM     17  C   UNL     1      -3.527  12.728  22.291  0.00  0.00    +0.000 A 
BRANCH  16  18
ATOM     18  C   UNL     1      -4.707  12.756  24.516  0.00  0.00    +0.000 C 
ATOM     19  F   UNL     1      -4.038  13.445  25.481  0.00  0.00    +0.000 F 
ATOM     20  F   UNL     1      -6.015  12.759  24.890  0.00  0.00    +0.000 F 
ATOM     21  F   UNL     1      -4.291  11.462  24.627  0.00  0.00    +0.000 F 
ENDBRANCH  16  18
ENDBRANCH   4  12
BRANCH  11  22
ATOM     22  C   UNL     1       0.660  10.376  18.836  0.00  0.00    +0.000 A 
ATOM     23  C   UNL     1       1.454   9.766  17.851  0.00  0.00    +0.000 A 
ATOM     24  C   UNL     1       2.100   8.553  18.104  0.00  0.00    +0.000 A 
ATOM     25  C   UNL     1       1.961   7.929  19.346  0.00  0.00    +0.000 A 
ATOM     26  C   UNL     1       1.184   8.533  20.340  0.00  0.00    +0.000 A 
ATOM     27  C   UNL     1       0.547   9.753  20.091  0.00  0.00    +0.000 A 
BRANCH  25  28
ATOM     28  C   UNL     1       2.602   6.673  19.601  0.00  0.00    +0.000 C 
ATOM     29  N   UNL     1       3.130   5.659  19.798  0.00  0.00    +0.000 NA
ENDBRANCH  25  28
ENDBRANCH  11  22
BRANCH   1  31
ATOM     30  C   UNL     1       2.534  12.708  18.192  0.00  0.00    +0.000 C 
ATOM     31  S   UNL     1       1.670  13.269  19.656  0.00  0.00    +0.000 S 
ATOM     32  O   UNL     1       2.234  12.510  20.759  0.00  0.00    +0.000 OA
ATOM     33  O   UNL     1       1.691  14.715  19.679  0.00  0.00    +0.000 OA
ENDBRANCH   1  31
TORSDOF 5
ENDMDL
MODEL 9
REMARK VINA RESULT:      -6.4      0.697      1.327
REMARK  Name = 
REMARK  6 active torsions:
REMARK  status: ('A' for Active; 'I' for Inactive)
REMARK    1  A    between atoms: C_1  and  S_2
REMARK    2  A    between atoms: S_2  and  N_5
REMARK    3  A    between atoms: N_8  and  C_9
REMARK    4  A    between atoms: C_13  and  C_14
REMARK    5  A    between atoms: C_25  and  C_26
REMARK    6  A    between atoms: C_29  and  C_30
REMARK                            x       y       z     vdW  Elec       q    Type
REMARK                         _______ _______ _______ _____ _____    ______ ____
ROOT
ATOM      1  N   UNL     1       0.103  12.717  19.520  0.00  0.00    +0.000 N 
ATOM      2  C   UNL     1      -0.854  13.156  20.475  0.00  0.00    +0.000 C 
ATOM      3  O   UNL     1      -0.521  13.878  21.410  0.00  0.00    +0.000 OA
ATOM      4  N   UNL     1      -2.200  12.761  20.296  0.00  0.00    +0.000 N 
ATOM      5  C   UNL     1      -2.559  11.928  19.254  0.00  0.00    +0.000 C 
ATOM      6  C   UNL     1      -1.639  11.462  18.413  0.00  0.00    +0.000 C 
ATOM      7  C   UNL     1      -2.360  10.687  17.403  0.00  0.00    +0.000 C 
ATOM      8  O   UNL     1      -1.817  10.165  16.442  0.00  0.00    +0.000 OA
ATOM      9  C   UNL     1      -3.828  10.627  17.702  0.00  0.00    +0.000 C 
ATOM     10  C   UNL     1      -3.963  11.522  18.932  0.00  0.00    +0.000 C 
ATOM     11  C   UNL     1      -0.175  11.670  18.487  0.00  0.00    +0.000 C 
ENDROOT
BRANCH   4  12
ATOM     12  C   UNL     1      -3.173  13.346  21.152  0.00  0.00    +0.000 A 
ATOM     13  C   UNL     1      -3.805  14.540  20.797  0.00  0.00    +0.000 A 
ATOM     14  C   UNL     1      -4.736  15.119  21.660  0.00  0.00    +0.000 A 
ATOM     15  C   UNL     1      -5.020  14.520  22.889  0.00  0.00    +0.000 A 
ATOM     16  C   UNL     1      -4.389  13.324  23.264  0.00  0.00    +0.000 A 
ATOM     17  C   UNL     1      -3.477  12.734  22.376  0.00  0.00    +0.000 A 
BRANCH  16  18
ATOM     18  C   UNL     1      -4.660  12.677  24.599  0.00  0.00    +0.000 C 
ATOM     19  F   UNL     1      -5.984  12.559  24.893  0.00  0.00    +0.000 F 
ATOM     20  F   UNL     1      -4.141  11.423  24.690  0.00  0.00    +0.000 F 
ATOM     21  F   UNL     1      -4.112  13.382  25.630  0.00  0.00    +0.000 F 
ENDBRANCH  16  18
ENDBRANCH   4  12
BRANCH  11  22
ATOM     22  C   UNL     1       0.517  10.332  18.735  0.00  0.00    +0.000 A 
ATOM     23  C   UNL     1       0.442   9.731  20.002  0.00  0.00    +0.000 A 
ATOM     24  C   UNL     1       1.137   8.550  20.276  0.00  0.00    +0.000 A 
ATOM     25  C   UNL     1       1.921   7.952  19.287  0.00  0.00    +0.000 A 
ATOM     26  C   UNL     1       1.994   8.533  18.017  0.00  0.00    +0.000 A 
ATOM     27  C   UNL     1       1.290   9.708  17.739  0.00  0.00    +0.000 A 
BRANCH  25  28
ATOM     28  C   UNL     1       2.655   6.754  19.572  0.00  0.00    +0.000 C 
ATOM     29  N   UNL     1       3.260   5.791  19.802  0.00  0.00    +0.000 NA
ENDBRANCH  25  28
ENDBRANCH  11  22
BRANCH   1  31
ATOM     30  C   UNL     1       2.533  12.533  18.170  0.00  0.00    +0.000 C 
ATOM     31  S   UNL     1       1.735  13.108  19.665  0.00  0.00    +0.000 S 
ATOM     32  O   UNL     1       2.267  12.283  20.737  0.00  0.00    +0.000 OA
ATOM     33  O   UNL     1       1.854  14.548  19.728  0.00  0.00    +0.000 OA
ENDBRANCH   1  31
TORSDOF 5
ENDMDL
