MODEL 1
REMARK VINA RESULT:      -8.2      0.000      0.000
REMARK  Name = 
REMARK  6 active torsions:
REMARK  status: ('A' for Active; 'I' for Inactive)
REMARK    1  A    between atoms: C_1  and  O_2
REMARK    2  A    between atoms: O_2  and  C_3
REMARK    3  A    between atoms: C_4  and  N_5
REMARK    4  A    between atoms: C_6  and  C_8
REMARK    5  A    between atoms: N_22  and  C_23
REMARK    6  A    between atoms: C_23  and  C_24
REMARK                            x       y       z     vdW  Elec       q    Type
REMARK                         _______ _______ _______ _____ _____    ______ ____
ROOT
ATOM      1  C   UNL     1      -1.608  11.570  21.480  0.00  0.00    +0.000 C 
ATOM      2  C   UNL     1      -2.024  12.950  20.864  0.00  0.00    +0.000 C 
ATOM      3  C   UNL     1      -0.798  13.398  20.133  0.00  0.00    +0.000 A 
ATOM      4  C   UNL     1      -0.613  14.626  19.505  0.00  0.00    +0.000 A 
ATOM      5  C   UNL     1       0.555  14.843  18.775  0.00  0.00    +0.000 A 
ATOM      6  C   UNL     1       1.518  13.833  18.671  0.00  0.00    +0.000 A 
ATOM      7  C   UNL     1       1.336  12.613  19.323  0.00  0.00    +0.000 A 
ATOM      8  C   UNL     1       0.177  12.407  20.069  0.00  0.00    +0.000 A 
ATOM      9  C   UNL     1      -0.205  11.169  20.857  0.00  0.00    +0.000 C 
ATOM     10  C   UNL     1      -0.365   9.971  19.894  0.00  0.00    +0.000 C 
ATOM     11  C   UNL     1      -0.484   8.645  20.649  0.00  0.00    +0.000 C 
ATOM     12  N   UNL     1       0.634   8.385  21.571  0.00  0.00    +0.000 NA
ATOM     13  C   UNL     1       0.722   9.477  22.553  0.00  0.00    +0.000 C 
ATOM     14  C   UNL     1       0.882  10.862  21.917  0.00  0.00    +0.000 C 
ENDROOT
BRANCH   2  15
ATOM     15  N   UNL     1      -3.126  12.831  19.929  0.00  0.00    +0.000 N 
ATOM     16  C   UNL     1      -4.443  12.714  20.304  0.00  0.00    +0.000 C 
ATOM     17  O   UNL     1      -4.806  12.725  21.474  0.00  0.00    +0.000 OA
ATOM     18  H   UNL     1      -2.922  12.799  18.935  0.00  0.00    +0.000 HD
BRANCH  16  19
ATOM     19  C   UNL     1      -5.351  12.570  19.189  0.00  0.00    +0.000 A 
ATOM     20  C   UNL     1      -6.724  12.719  19.107  0.00  0.00    +0.000 A 
ATOM     21  C   UNL     1      -7.084  12.456  17.765  0.00  0.00    +0.000 A 
ATOM     22  C   UNL     1      -5.914  12.161  17.105  0.00  0.00    +0.000 A 
ATOM     23  O   UNL     1      -4.860  12.224  17.956  0.00  0.00    +0.000 OA
ENDBRANCH  16  19
ENDBRANCH   2  15
BRANCH   1  25
ATOM     24  C   UNL     1      -1.924  12.924  23.425  0.00  0.00    +0.000 C 
ATOM     25  O   UNL     1      -1.530  11.653  22.915  0.00  0.00    +0.000 OA
ENDBRANCH   1  25
BRANCH  12  26
ATOM     26  C   UNL     1       1.930   8.167  20.881  0.00  0.00    +0.000 C 
BRANCH  26  27
ATOM     27  C   UNL     1       1.940   6.967  19.948  0.00  0.00    +0.000 A 
ATOM     28  C   UNL     1       2.357   7.118  18.632  0.00  0.00    +0.000 A 
ATOM     29  C   UNL     1       2.498   5.982  17.847  0.00  0.00    +0.000 A 
ATOM     30  C   UNL     1       2.217   4.721  18.385  0.00  0.00    +0.000 A 
ATOM     31  C   UNL     1       2.420   3.552  17.629  0.00  0.00    +0.000 A 
ATOM     32  C   UNL     1       2.131   2.300  18.166  0.00  0.00    +0.000 A 
ATOM     33  C   UNL     1       1.611   2.215  19.451  0.00  0.00    +0.000 A 
ATOM     34  C   UNL     1       1.417   3.379  20.198  0.00  0.00    +0.000 A 
ATOM     35  F   UNL     1       0.914   3.246  21.438  0.00  0.00    +0.000 F 
ATOM     36  C   UNL     1       1.734   4.651  19.708  0.00  0.00    +0.000 A 
ATOM     37  N   UNL     1       1.605   5.759  20.473  0.00  0.00    +0.000 NA
ENDBRANCH  26  27
ENDBRANCH  12  26
TORSDOF 5
ENDMDL
MODEL 2
REMARK VINA RESULT:      -8.1      2.924      4.347
REMARK  Name = 
REMARK  6 active torsions:
REMARK  status: ('A' for Active; 'I' for Inactive)
REMARK    1  A    between atoms: C_1  and  O_2
REMARK    2  A    between atoms: O_2  and  C_3
REMARK    3  A    between atoms: C_4  and  N_5
REMARK    4  A    between atoms: C_6  and  C_8
REMARK    5  A    between atoms: N_22  and  C_23
REMARK    6  A    between atoms: C_23  and  C_24
REMARK                            x       y       z     vdW  Elec       q    Type
REMARK                         _______ _______ _______ _____ _____    ______ ____
ROOT
ATOM      1  C   UNL     1      -0.586  11.810  20.092  0.00  0.00    +0.000 C 
ATOM      2  C   UNL     1      -1.986  12.485  19.897  0.00  0.00    +0.000 C 
ATOM      3  C   UNL     1      -2.602  11.710  18.775  0.00  0.00    +0.000 A 
ATOM      4  C   UNL     1      -3.810  11.991  18.143  0.00  0.00    +0.000 A 
ATOM      5  C   UNL     1      -4.291  11.103  17.182  0.00  0.00    +0.000 A 
ATOM      6  C   UNL     1      -3.572   9.944  16.870  0.00  0.00    +0.000 A 
ATOM      7  C   UNL     1      -2.350   9.682  17.491  0.00  0.00    +0.000 A 
ATOM      8  C   UNL     1      -1.861  10.582  18.436  0.00  0.00    +0.000 A 
ATOM      9  C   UNL     1      -0.560  10.491  19.209  0.00  0.00    +0.000 C 
ATOM     10  C   UNL     1      -0.581   9.237  20.113  0.00  0.00    +0.000 C 
ATOM     11  C   UNL     1       0.796   8.942  20.711  0.00  0.00    +0.000 C 
ATOM     12  N   UNL     1       1.862   8.803  19.706  0.00  0.00    +0.000 NA
ATOM     13  C   UNL     1       1.951  10.039  18.912  0.00  0.00    +0.000 C 
ATOM     14  C   UNL     1       0.636  10.423  18.227  0.00  0.00    +0.000 C 
ENDROOT
BRANCH   2  15
ATOM     15  N   UNL     1      -2.824  12.375  21.075  0.00  0.00    +0.000 N 
ATOM     16  C   UNL     1      -3.416  13.446  21.702  0.00  0.00    +0.000 C 
ATOM     17  O   UNL     1      -3.304  14.597  21.299  0.00  0.00    +0.000 OA
ATOM     18  H   UNL     1      -2.965  11.459  21.491  0.00  0.00    +0.000 HD
BRANCH  16  19
ATOM     19  C   UNL     1      -4.171  13.083  22.879  0.00  0.00    +0.000 A 
ATOM     20  C   UNL     1      -3.762  12.635  24.122  0.00  0.00    +0.000 A 
ATOM     21  C   UNL     1      -4.932  12.434  24.890  0.00  0.00    +0.000 A 
ATOM     22  C   UNL     1      -5.988  12.768  24.074  0.00  0.00    +0.000 A 
ATOM     23  O   UNL     1      -5.540  13.159  22.855  0.00  0.00    +0.000 OA
ENDBRANCH  16  19
ENDBRANCH   2  15
BRANCH   1  25
ATOM     24  C   UNL     1       0.228  14.057  20.093  0.00  0.00    +0.000 C 
ATOM     25  O   UNL     1       0.473  12.707  19.709  0.00  0.00    +0.000 OA
ENDBRANCH   1  25
BRANCH  12  26
ATOM     26  C   UNL     1       1.704   7.609  18.839  0.00  0.00    +0.000 C 
BRANCH  26  27
ATOM     27  C   UNL     1       2.994   6.838  18.607  0.00  0.00    +0.000 A 
ATOM     28  C   UNL     1       3.485   6.000  19.599  0.00  0.00    +0.000 A 
ATOM     29  C   UNL     1       4.579   5.196  19.305  0.00  0.00    +0.000 A 
ATOM     30  C   UNL     1       5.162   5.247  18.034  0.00  0.00    +0.000 A 
ATOM     31  C   UNL     1       6.226   4.390  17.694  0.00  0.00    +0.000 A 
ATOM     32  C   UNL     1       6.808   4.450  16.430  0.00  0.00    +0.000 A 
ATOM     33  C   UNL     1       6.348   5.386  15.513  0.00  0.00    +0.000 A 
ATOM     34  C   UNL     1       5.288   6.228  15.855  0.00  0.00    +0.000 A 
ATOM     35  F   UNL     1       4.875   7.115  14.933  0.00  0.00    +0.000 F 
ATOM     36  C   UNL     1       4.650   6.170  17.099  0.00  0.00    +0.000 A 
ATOM     37  N   UNL     1       3.580   6.946  17.386  0.00  0.00    +0.000 NA
ENDBRANCH  26  27
ENDBRANCH  12  26
TORSDOF 5
ENDMDL
MODEL 3
REMARK VINA RESULT:      -8.1      2.846      4.594
REMARK  Name = 
REMARK  6 active torsions:
REMARK  status: ('A' for Active; 'I' for Inactive)
REMARK    1  A    between atoms: C_1  and  O_2
REMARK    2  A    between atoms: O_2  and  C_3
REMARK    3  A    between atoms: C_4  and  N_5
REMARK    4  A    between atoms: C_6  and  C_8
REMARK    5  A    between atoms: N_22  and  C_23
REMARK    6  A    between atoms: C_23  and  C_24
REMARK                            x       y       z     vdW  Elec       q    Type
REMARK                         _______ _______ _______ _____ _____    ______ ____
ROOT
ATOM      1  C   UNL     1       0.201  11.619  19.724  0.00  0.00    +0.000 C 
ATOM      2  C   UNL     1      -1.100  12.492  19.680  0.00  0.00    +0.000 C 
ATOM      3  C   UNL     1      -2.026  11.707  18.805  0.00  0.00    +0.000 A 
ATOM      4  C   UNL     1      -3.280  12.111  18.359  0.00  0.00    +0.000 A 
ATOM      5  C   UNL     1      -4.061  11.212  17.633  0.00  0.00    +0.000 A 
ATOM      6  C   UNL     1      -3.588   9.922  17.369  0.00  0.00    +0.000 A 
ATOM      7  C   UNL     1      -2.319   9.533  17.800  0.00  0.00    +0.000 A 
ATOM      8  C   UNL     1      -1.532  10.441  18.507  0.00  0.00    +0.000 A 
ATOM      9  C   UNL     1      -0.133  10.223  19.048  0.00  0.00    +0.000 C 
ATOM     10  C   UNL     1      -0.157   9.101  20.111  0.00  0.00    +0.000 C 
ATOM     11  C   UNL     1       1.254   8.652  20.497  0.00  0.00    +0.000 C 
ATOM     12  N   UNL     1       2.074   8.223  19.352  0.00  0.00    +0.000 NA
ATOM     13  C   UNL     1       2.182   9.328  18.386  0.00  0.00    +0.000 C 
ATOM     14  C   UNL     1       0.827   9.845  17.893  0.00  0.00    +0.000 C 
ENDROOT
BRANCH   2  15
ATOM     15  N   UNL     1      -1.701  12.657  20.990  0.00  0.00    +0.000 N 
ATOM     16  C   UNL     1      -2.320  13.810  21.412  0.00  0.00    +0.000 C 
ATOM     17  O   UNL     1      -2.440  14.800  20.700  0.00  0.00    +0.000 OA
ATOM     18  H   UNL     1      -1.639  11.894  21.656  0.00  0.00    +0.000 HD
BRANCH  16  19
ATOM     19  C   UNL     1      -2.805  13.742  22.771  0.00  0.00    +0.000 A 
ATOM     20  C   UNL     1      -3.491  12.747  23.445  0.00  0.00    +0.000 A 
ATOM     21  C   UNL     1      -3.710  13.219  24.760  0.00  0.00    +0.000 A 
ATOM     22  C   UNL     1      -3.148  14.474  24.815  0.00  0.00    +0.000 A 
ATOM     23  O   UNL     1      -2.600  14.801  23.618  0.00  0.00    +0.000 OA
ENDBRANCH  16  19
ENDBRANCH   2  15
BRANCH   1  25
ATOM     24  C   UNL     1       1.156  13.698  19.029  0.00  0.00    +0.000 C 
ATOM     25  O   UNL     1       1.282  12.278  19.039  0.00  0.00    +0.000 OA
ENDBRANCH   1  25
BRANCH  12  26
ATOM     26  C   UNL     1       1.583   6.981  18.705  0.00  0.00    +0.000 C 
BRANCH  26  27
ATOM     27  C   UNL     1       2.686   6.087  18.164  0.00  0.00    +0.000 A 
ATOM     28  C   UNL     1       2.416   4.758  17.867  0.00  0.00    +0.000 A 
ATOM     29  C   UNL     1       3.399   4.007  17.235  0.00  0.00    +0.000 A 
ATOM     30  C   UNL     1       4.630   4.592  16.919  0.00  0.00    +0.000 A 
ATOM     31  C   UNL     1       5.613   3.869  16.217  0.00  0.00    +0.000 A 
ATOM     32  C   UNL     1       6.839   4.453  15.912  0.00  0.00    +0.000 A 
ATOM     33  C   UNL     1       7.098   5.751  16.332  0.00  0.00    +0.000 A 
ATOM     34  C   UNL     1       6.116   6.465  17.022  0.00  0.00    +0.000 A 
ATOM     35  F   UNL     1       6.412   7.719  17.405  0.00  0.00    +0.000 F 
ATOM     36  C   UNL     1       4.857   5.927  17.311  0.00  0.00    +0.000 A 
ATOM     37  N   UNL     1       3.895   6.658  17.920  0.00  0.00    +0.000 NA
ENDBRANCH  26  27
ENDBRANCH  12  26
TORSDOF 5
ENDMDL
MODEL 4
REMARK VINA RESULT:      -8.0      5.716      7.952
REMARK  Name = 
REMARK  6 active torsions:
REMARK  status: ('A' for Active; 'I' for Inactive)
REMARK    1  A    between atoms: C_1  and  O_2
REMARK    2  A    between atoms: O_2  and  C_3
REMARK    3  A    between atoms: C_4  and  N_5
REMARK    4  A    between atoms: C_6  and  C_8
REMARK    5  A    between atoms: N_22  and  C_23
REMARK    6  A    between atoms: C_23  and  C_24
REMARK                            x       y       z     vdW  Elec       q    Type
REMARK                         _______ _______ _______ _____ _____    ______ ____
ROOT
ATOM      1  C   UNL     1       1.534  15.007  19.988  0.00  0.00    +0.000 C 
ATOM      2  C   UNL     1       0.060  15.399  19.629  0.00  0.00    +0.000 C 
ATOM      3  C   UNL     1       0.218  16.503  18.631  0.00  0.00    +0.000 A 
ATOM      4  C   UNL     1      -0.803  17.273  18.083  0.00  0.00    +0.000 A 
ATOM      5  C   UNL     1      -0.492  18.194  17.084  0.00  0.00    +0.000 A 
ATOM      6  C   UNL     1       0.827  18.329  16.635  0.00  0.00    +0.000 A 
ATOM      7  C   UNL     1       1.848  17.569  17.206  0.00  0.00    +0.000 A 
ATOM      8  C   UNL     1       1.538  16.665  18.220  0.00  0.00    +0.000 A 
ATOM      9  C   UNL     1       2.493  15.761  18.974  0.00  0.00    +0.000 C 
ATOM     10  C   UNL     1       3.140  14.756  17.994  0.00  0.00    +0.000 C 
ATOM     11  C   UNL     1       4.305  14.001  18.637  0.00  0.00    +0.000 C 
ATOM     12  N   UNL     1       5.346  14.880  19.194  0.00  0.00    +0.000 NA
ATOM     13  C   UNL     1       4.749  15.768  20.203  0.00  0.00    +0.000 C 
ATOM     14  C   UNL     1       3.588  16.611  19.668  0.00  0.00    +0.000 C 
ENDROOT
BRANCH   2  15
ATOM     15  N   UNL     1      -0.673  14.305  19.024  0.00  0.00    +0.000 N 
ATOM     16  C   UNL     1      -1.088  13.186  19.707  0.00  0.00    +0.000 C 
ATOM     17  O   UNL     1      -0.893  13.027  20.905  0.00  0.00    +0.000 OA
ATOM     18  H   UNL     1      -0.871  14.340  18.028  0.00  0.00    +0.000 HD
BRANCH  16  19
ATOM     19  C   UNL     1      -1.767  12.218  18.875  0.00  0.00    +0.000 A 
ATOM     20  C   UNL     1      -3.112  11.945  18.707  0.00  0.00    +0.000 A 
ATOM     21  C   UNL     1      -3.202  10.894  17.765  0.00  0.00    +0.000 A 
ATOM     22  C   UNL     1      -1.909  10.585  17.412  0.00  0.00    +0.000 A 
ATOM     23  O   UNL     1      -1.032  11.377  18.079  0.00  0.00    +0.000 OA
ENDBRANCH  16  19
ENDBRANCH   2  15
BRANCH   1  25
ATOM     24  C   UNL     1       0.708  15.835  22.074  0.00  0.00    +0.000 C 
ATOM     25  O   UNL     1       1.841  15.362  21.349  0.00  0.00    +0.000 OA
ENDBRANCH   1  25
BRANCH  12  26
ATOM     26  C   UNL     1       6.085  15.648  18.161  0.00  0.00    +0.000 C 
BRANCH  26  27
ATOM     27  C   UNL     1       7.511  15.172  17.937  0.00  0.00    +0.000 A 
ATOM     28  C   UNL     1       8.543  16.096  17.851  0.00  0.00    +0.000 A 
ATOM     29  C   UNL     1       9.849  15.628  17.797  0.00  0.00    +0.000 A 
ATOM     30  C   UNL     1      10.100  14.252  17.825  0.00  0.00    +0.000 A 
ATOM     31  C   UNL     1      11.418  13.759  17.842  0.00  0.00    +0.000 A 
ATOM     32  C   UNL     1      11.663  12.389  17.862  0.00  0.00    +0.000 A 
ATOM     33  C   UNL     1      10.591  11.506  17.836  0.00  0.00    +0.000 A 
ATOM     34  C   UNL     1       9.285  12.002  17.826  0.00  0.00    +0.000 A 
ATOM     35  F   UNL     1       8.281  11.109  17.804  0.00  0.00    +0.000 F 
ATOM     36  C   UNL     1       8.999  13.372  17.847  0.00  0.00    +0.000 A 
ATOM     37  N   UNL     1       7.728  13.830  17.906  0.00  0.00    +0.000 NA
ENDBRANCH  26  27
ENDBRANCH  12  26
TORSDOF 5
ENDMDL
MODEL 5
REMARK VINA RESULT:      -8.0      4.765     10.546
REMARK  Name = 
REMARK  6 active torsions:
REMARK  status: ('A' for Active; 'I' for Inactive)
REMARK    1  A    between atoms: C_1  and  O_2
REMARK    2  A    between atoms: O_2  and  C_3
REMARK    3  A    between atoms: C_4  and  N_5
REMARK    4  A    between atoms: C_6  and  C_8
REMARK    5  A    between atoms: N_22  and  C_23
REMARK    6  A    between atoms: C_23  and  C_24
REMARK                            x       y       z     vdW  Elec       q    Type
REMARK                         _______ _______ _______ _____ _____    ______ ____
ROOT
ATOM      1  C   UNL     1       4.645   5.785  18.280  0.00  0.00    +0.000 C 
ATOM      2  C   UNL     1       4.991   4.335  17.795  0.00  0.00    +0.000 C 
ATOM      3  C   UNL     1       3.713   3.581  17.988  0.00  0.00    +0.000 A 
ATOM      4  C   UNL     1       3.527   2.213  17.810  0.00  0.00    +0.000 A 
ATOM      5  C   UNL     1       2.242   1.686  17.929  0.00  0.00    +0.000 A 
ATOM      6  C   UNL     1       1.159   2.525  18.215  0.00  0.00    +0.000 A 
ATOM      7  C   UNL     1       1.359   3.892  18.415  0.00  0.00    +0.000 A 
ATOM      8  C   UNL     1       2.647   4.413  18.316  0.00  0.00    +0.000 A 
ATOM      9  C   UNL     1       3.077   5.854  18.509  0.00  0.00    +0.000 C 
ATOM     10  C   UNL     1       2.413   6.741  17.431  0.00  0.00    +0.000 C 
ATOM     11  C   UNL     1       2.589   8.231  17.732  0.00  0.00    +0.000 C 
ATOM     12  N   UNL     1       2.101   8.630  19.062  0.00  0.00    +0.000 NA
ATOM     13  C   UNL     1       2.808   7.856  20.095  0.00  0.00    +0.000 C 
ATOM     14  C   UNL     1       2.675   6.340  19.924  0.00  0.00    +0.000 C 
ENDROOT
BRANCH   2  15
ATOM     15  N   UNL     1       5.368   4.293  16.396  0.00  0.00    +0.000 N 
ATOM     16  C   UNL     1       6.656   4.449  15.941  0.00  0.00    +0.000 C 
ATOM     17  O   UNL     1       7.611   4.615  16.691  0.00  0.00    +0.000 OA
ATOM     18  H   UNL     1       4.641   4.173  15.697  0.00  0.00    +0.000 HD
BRANCH  16  19
ATOM     19  C   UNL     1       6.771   4.406  14.501  0.00  0.00    +0.000 A 
ATOM     20  C   UNL     1       6.104   3.647  13.557  0.00  0.00    +0.000 A 
ATOM     21  C   UNL     1       6.621   4.020  12.294  0.00  0.00    +0.000 A 
ATOM     22  C   UNL     1       7.573   4.982  12.538  0.00  0.00    +0.000 A 
ATOM     23  O   UNL     1       7.675   5.222  13.870  0.00  0.00    +0.000 OA
ENDBRANCH  16  19
ENDBRANCH   2  15
BRANCH   1  25
ATOM     24  C   UNL     1       6.665   5.538  19.535  0.00  0.00    +0.000 C 
ATOM     25  O   UNL     1       5.357   6.104  19.489  0.00  0.00    +0.000 OA
ENDBRANCH   1  25
BRANCH  12  26
ATOM     26  C   UNL     1       0.628   8.516  19.210  0.00  0.00    +0.000 C 
BRANCH  26  27
ATOM     27  C   UNL     1      -0.052   9.806  19.639  0.00  0.00    +0.000 A 
ATOM     28  C   UNL     1      -0.469  10.719  18.680  0.00  0.00    +0.000 A 
ATOM     29  C   UNL     1      -1.219  11.814  19.090  0.00  0.00    +0.000 A 
ATOM     30  C   UNL     1      -1.532  11.979  20.443  0.00  0.00    +0.000 A 
ATOM     31  C   UNL     1      -2.349  13.043  20.870  0.00  0.00    +0.000 A 
ATOM     32  C   UNL     1      -2.651  13.208  22.219  0.00  0.00    +0.000 A 
ATOM     33  C   UNL     1      -2.114  12.328  23.149  0.00  0.00    +0.000 A 
ATOM     34  C   UNL     1      -1.310  11.270  22.718  0.00  0.00    +0.000 A 
ATOM     35  F   UNL     1      -0.817  10.442  23.655  0.00  0.00    +0.000 F 
ATOM     36  C   UNL     1      -1.017  11.048  21.368  0.00  0.00    +0.000 A 
ATOM     37  N   UNL     1      -0.294   9.978  20.965  0.00  0.00    +0.000 NA
ENDBRANCH  26  27
ENDBRANCH  12  26
TORSDOF 5
ENDMDL
MODEL 6
REMARK VINA RESULT:      -7.9      4.888     10.647
REMARK  Name = 
REMARK  6 active torsions:
REMARK  status: ('A' for Active; 'I' for Inactive)
REMARK    1  A    between atoms: C_1  and  O_2
REMARK    2  A    between atoms: O_2  and  C_3
REMARK    3  A    between atoms: C_4  and  N_5
REMARK    4  A    between atoms: C_6  and  C_8
REMARK    5  A    between atoms: N_22  and  C_23
REMARK    6  A    between atoms: C_23  and  C_24
REMARK                            x       y       z     vdW  Elec       q    Type
REMARK                         _______ _______ _______ _____ _____    ______ ____
ROOT
ATOM      1  C   UNL     1       4.625   5.753  18.379  0.00  0.00    +0.000 C 
ATOM      2  C   UNL     1       4.988   4.315  17.869  0.00  0.00    +0.000 C 
ATOM      3  C   UNL     1       3.721   3.541  18.055  0.00  0.00    +0.000 A 
ATOM      4  C   UNL     1       3.552   2.175  17.855  0.00  0.00    +0.000 A 
ATOM      5  C   UNL     1       2.274   1.628  17.971  0.00  0.00    +0.000 A 
ATOM      6  C   UNL     1       1.182   2.449  18.274  0.00  0.00    +0.000 A 
ATOM      7  C   UNL     1       1.364   3.815  18.496  0.00  0.00    +0.000 A 
ATOM      8  C   UNL     1       2.645   4.354  18.400  0.00  0.00    +0.000 A 
ATOM      9  C   UNL     1       3.057   5.797  18.615  0.00  0.00    +0.000 C 
ATOM     10  C   UNL     1       2.377   6.693  17.554  0.00  0.00    +0.000 C 
ATOM     11  C   UNL     1       2.535   8.180  17.879  0.00  0.00    +0.000 C 
ATOM     12  N   UNL     1       2.047   8.551  19.217  0.00  0.00    +0.000 NA
ATOM     13  C   UNL     1       2.768   7.770  20.234  0.00  0.00    +0.000 C 
ATOM     14  C   UNL     1       2.654   6.255  20.039  0.00  0.00    +0.000 C 
ENDROOT
BRANCH   2  15
ATOM     15  N   UNL     1       5.360   4.301  16.468  0.00  0.00    +0.000 N 
ATOM     16  C   UNL     1       6.648   4.456  16.012  0.00  0.00    +0.000 C 
ATOM     17  O   UNL     1       7.607   4.596  16.762  0.00  0.00    +0.000 OA
ATOM     18  H   UNL     1       4.630   4.203  15.769  0.00  0.00    +0.000 HD
BRANCH  16  19
ATOM     19  C   UNL     1       6.758   4.444  14.572  0.00  0.00    +0.000 A 
ATOM     20  C   UNL     1       6.071   3.722  13.612  0.00  0.00    +0.000 A 
ATOM     21  C   UNL     1       6.592   4.112  12.356  0.00  0.00    +0.000 A 
ATOM     22  C   UNL     1       7.567   5.047  12.620  0.00  0.00    +0.000 A 
ATOM     23  O   UNL     1       7.678   5.253  13.956  0.00  0.00    +0.000 OA
ENDBRANCH  16  19
ENDBRANCH   2  15
BRANCH   1  25
ATOM     24  C   UNL     1       6.655   5.518  19.619  0.00  0.00    +0.000 C 
ATOM     25  O   UNL     1       5.338   6.061  19.591  0.00  0.00    +0.000 OA
ENDBRANCH   1  25
BRANCH  12  26
ATOM     26  C   UNL     1       0.577   8.415  19.368  0.00  0.00    +0.000 C 
BRANCH  26  27
ATOM     27  C   UNL     1      -0.037   9.397  20.353  0.00  0.00    +0.000 A 
ATOM     28  C   UNL     1      -0.093   9.077  21.703  0.00  0.00    +0.000 A 
ATOM     29  C   UNL     1      -0.519  10.051  22.597  0.00  0.00    +0.000 A 
ATOM     30  C   UNL     1      -0.886  11.317  22.129  0.00  0.00    +0.000 A 
ATOM     31  C   UNL     1      -1.255  12.339  23.025  0.00  0.00    +0.000 A 
ATOM     32  C   UNL     1      -1.626  13.595  22.553  0.00  0.00    +0.000 A 
ATOM     33  C   UNL     1      -1.659  13.826  21.184  0.00  0.00    +0.000 A 
ATOM     34  C   UNL     1      -1.286  12.810  20.301  0.00  0.00    +0.000 A 
ATOM     35  F   UNL     1      -1.331  13.082  18.986  0.00  0.00    +0.000 F 
ATOM     36  C   UNL     1      -0.867  11.548  20.738  0.00  0.00    +0.000 A 
ATOM     37  N   UNL     1      -0.444  10.600  19.870  0.00  0.00    +0.000 NA
ENDBRANCH  26  27
ENDBRANCH  12  26
TORSDOF 5
ENDMDL
MODEL 7
REMARK VINA RESULT:      -7.8      1.311      1.693
REMARK  Name = 
REMARK  6 active torsions:
REMARK  status: ('A' for Active; 'I' for Inactive)
REMARK    1  A    between atoms: C_1  and  O_2
REMARK    2  A    between atoms: O_2  and  C_3
REMARK    3  A    between atoms: C_4  and  N_5
REMARK    4  A    between atoms: C_6  and  C_8
REMARK    5  A    between atoms: N_22  and  C_23
REMARK    6  A    between atoms: C_23  and  C_24
REMARK                            x       y       z     vdW  Elec       q    Type
REMARK                         _______ _______ _______ _____ _____    ______ ____
ROOT
ATOM      1  C   UNL     1      -1.605  11.816  21.384  0.00  0.00    +0.000 C 
ATOM      2  C   UNL     1      -2.013  13.238  20.868  0.00  0.00    +0.000 C 
ATOM      3  C   UNL     1      -0.817  13.692  20.092  0.00  0.00    +0.000 A 
ATOM      4  C   UNL     1      -0.631  14.948  19.521  0.00  0.00    +0.000 A 
ATOM      5  C   UNL     1       0.501  15.172  18.738  0.00  0.00    +0.000 A 
ATOM      6  C   UNL     1       1.426  14.144  18.525  0.00  0.00    +0.000 A 
ATOM      7  C   UNL     1       1.243  12.895  19.120  0.00  0.00    +0.000 A 
ATOM      8  C   UNL     1       0.123  12.680  19.920  0.00  0.00    +0.000 A 
ATOM      9  C   UNL     1      -0.252  11.412  20.661  0.00  0.00    +0.000 C 
ATOM     10  C   UNL     1      -0.502  10.273  19.646  0.00  0.00    +0.000 C 
ATOM     11  C   UNL     1      -0.618   8.911  20.335  0.00  0.00    +0.000 C 
ATOM     12  N   UNL     1       0.541   8.571  21.176  0.00  0.00    +0.000 NA
ATOM     13  C   UNL     1       0.717   9.604  22.208  0.00  0.00    +0.000 C 
ATOM     14  C   UNL     1       0.883  11.017  21.639  0.00  0.00    +0.000 C 
ENDROOT
BRANCH   2  15
ATOM     15  N   UNL     1      -3.168  13.200  19.992  0.00  0.00    +0.000 N 
ATOM     16  C   UNL     1      -4.439  12.881  20.409  0.00  0.00    +0.000 C 
ATOM     17  O   UNL     1      -4.712  12.621  21.575  0.00  0.00    +0.000 OA
ATOM     18  H   UNL     1      -3.039  13.389  19.003  0.00  0.00    +0.000 HD
BRANCH  16  19
ATOM     19  C   UNL     1      -5.413  12.874  19.342  0.00  0.00    +0.000 A 
ATOM     20  C   UNL     1      -6.671  13.444  19.253  0.00  0.00    +0.000 A 
ATOM     21  C   UNL     1      -7.179  13.117  17.974  0.00  0.00    +0.000 A 
ATOM     22  C   UNL     1      -6.205  12.366  17.356  0.00  0.00    +0.000 A 
ATOM     23  O   UNL     1      -5.135  12.210  18.175  0.00  0.00    +0.000 OA
ENDBRANCH  16  19
ENDBRANCH   2  15
BRANCH   1  25
ATOM     24  C   UNL     1      -1.671  13.096  23.402  0.00  0.00    +0.000 C 
ATOM     25  O   UNL     1      -1.445  11.817  22.815  0.00  0.00    +0.000 OA
ENDBRANCH   1  25
BRANCH  12  26
ATOM     26  C   UNL     1       1.789   8.356  20.402  0.00  0.00    +0.000 C 
BRANCH  26  27
ATOM     27  C   UNL     1       2.062   6.900  20.060  0.00  0.00    +0.000 A 
ATOM     28  C   UNL     1       1.462   5.891  20.802  0.00  0.00    +0.000 A 
ATOM     29  C   UNL     1       1.609   4.578  20.375  0.00  0.00    +0.000 A 
ATOM     30  C   UNL     1       2.353   4.296  19.225  0.00  0.00    +0.000 A 
ATOM     31  C   UNL     1       2.456   2.980  18.737  0.00  0.00    +0.000 A 
ATOM     32  C   UNL     1       3.205   2.704  17.596  0.00  0.00    +0.000 A 
ATOM     33  C   UNL     1       3.877   3.737  16.956  0.00  0.00    +0.000 A 
ATOM     34  C   UNL     1       3.765   5.042  17.442  0.00  0.00    +0.000 A 
ATOM     35  F   UNL     1       4.431   6.008  16.787  0.00  0.00    +0.000 F 
ATOM     36  C   UNL     1       2.989   5.365  18.561  0.00  0.00    +0.000 A 
ATOM     37  N   UNL     1       2.838   6.644  18.974  0.00  0.00    +0.000 NA
ENDBRANCH  26  27
ENDBRANCH  12  26
TORSDOF 5
ENDMDL
MODEL 8
REMARK VINA RESULT:      -7.7      2.298      3.850
REMARK  Name = 
REMARK  6 active torsions:
REMARK  status: ('A' for Active; 'I' for Inactive)
REMARK    1  A    between atoms: C_1  and  O_2
REMARK    2  A    between atoms: O_2  and  C_3
REMARK    3  A    between atoms: C_4  and  N_5
REMARK    4  A    between atoms: C_6  and  C_8
REMARK    5  A    between atoms: N_22  and  C_23
REMARK    6  A    between atoms: C_23  and  C_24
REMARK                            x       y       z     vdW  Elec       q    Type
REMARK                         _______ _______ _______ _____ _____    ______ ____
ROOT
ATOM      1  C   UNL     1      -0.612  12.008  19.840  0.00  0.00    +0.000 C 
ATOM      2  C   UNL     1      -2.058  12.609  19.794  0.00  0.00    +0.000 C 
ATOM      3  C   UNL     1      -2.730  11.837  18.702  0.00  0.00    +0.000 A 
ATOM      4  C   UNL     1      -4.003  12.069  18.190  0.00  0.00    +0.000 A 
ATOM      5  C   UNL     1      -4.521  11.187  17.243  0.00  0.00    +0.000 A 
ATOM      6  C   UNL     1      -3.771  10.081  16.826  0.00  0.00    +0.000 A 
ATOM      7  C   UNL     1      -2.486   9.869  17.328  0.00  0.00    +0.000 A 
ATOM      8  C   UNL     1      -1.963  10.764  18.258  0.00  0.00    +0.000 A 
ATOM      9  C   UNL     1      -0.595  10.723  18.911  0.00  0.00    +0.000 C 
ATOM     10  C   UNL     1      -0.468   9.441  19.766  0.00  0.00    +0.000 C 
ATOM     11  C   UNL     1       0.972   9.206  20.229  0.00  0.00    +0.000 C 
ATOM     12  N   UNL     1       1.949   9.159  19.129  0.00  0.00    +0.000 NA
ATOM     13  C   UNL     1       1.899  10.423  18.377  0.00  0.00    +0.000 C 
ATOM     14  C   UNL     1       0.509  10.754  17.825  0.00  0.00    +0.000 C 
ENDROOT
BRANCH   2  15
ATOM     15  N   UNL     1      -2.780  12.414  21.036  0.00  0.00    +0.000 N 
ATOM     16  C   UNL     1      -3.664  13.325  21.564  0.00  0.00    +0.000 C 
ATOM     17  O   UNL     1      -3.940  14.382  21.010  0.00  0.00    +0.000 OA
ATOM     18  H   UNL     1      -2.607  11.571  21.575  0.00  0.00    +0.000 HD
BRANCH  16  19
ATOM     19  C   UNL     1      -4.227  12.918  22.831  0.00  0.00    +0.000 A 
ATOM     20  C   UNL     1      -3.628  12.646  24.048  0.00  0.00    +0.000 A 
ATOM     21  C   UNL     1      -4.664  12.292  24.944  0.00  0.00    +0.000 A 
ATOM     22  C   UNL     1      -5.834  12.367  24.224  0.00  0.00    +0.000 A 
ATOM     23  O   UNL     1      -5.582  12.741  22.945  0.00  0.00    +0.000 OA
ENDBRANCH  16  19
ENDBRANCH   2  15
BRANCH   1  25
ATOM     24  C   UNL     1       0.317  14.190  20.144  0.00  0.00    +0.000 C 
ATOM     25  O   UNL     1       0.359  12.976  19.399  0.00  0.00    +0.000 OA
ENDBRANCH   1  25
BRANCH  12  26
ATOM     26  C   UNL     1       1.778   7.986  18.236  0.00  0.00    +0.000 C 
BRANCH  26  27
ATOM     27  C   UNL     1       2.257   6.675  18.837  0.00  0.00    +0.000 A 
ATOM     28  C   UNL     1       2.071   6.426  20.190  0.00  0.00    +0.000 A 
ATOM     29  C   UNL     1       2.381   5.165  20.681  0.00  0.00    +0.000 A 
ATOM     30  C   UNL     1       2.875   4.181  19.817  0.00  0.00    +0.000 A 
ATOM     31  C   UNL     1       3.130   2.877  20.280  0.00  0.00    +0.000 A 
ATOM     32  C   UNL     1       3.629   1.903  19.418  0.00  0.00    +0.000 A 
ATOM     33  C   UNL     1       3.902   2.238  18.098  0.00  0.00    +0.000 A 
ATOM     34  C   UNL     1       3.640   3.533  17.644  0.00  0.00    +0.000 A 
ATOM     35  F   UNL     1       3.918   3.809  16.358  0.00  0.00    +0.000 F 
ATOM     36  C   UNL     1       3.101   4.527  18.469  0.00  0.00    +0.000 A 
ATOM     37  N   UNL     1       2.791   5.754  17.992  0.00  0.00    +0.000 NA
ENDBRANCH  26  27
ENDBRANCH  12  26
TORSDOF 5
ENDMDL
MODEL 9
REMARK VINA RESULT:      -7.7      1.752      2.050
REMARK  Name = 
REMARK  6 active torsions:
REMARK  status: ('A' for Active; 'I' for Inactive)
REMARK    1  A    between atoms: C_1  and  O_2
REMARK    2  A    between atoms: O_2  and  C_3
REMARK    3  A    between atoms: C_4  and  N_5
REMARK    4  A    between atoms: C_6  and  C_8
REMARK    5  A    between atoms: N_22  and  C_23
REMARK    6  A    between atoms: C_23  and  C_24
REMARK                            x       y       z     vdW  Elec       q    Type
REMARK                         _______ _______ _______ _____ _____    ______ ____
ROOT
ATOM      1  C   UNL     1      -1.289  11.868  21.601  0.00  0.00    +0.000 C 
ATOM      2  C   UNL     1      -1.962  13.282  21.669  0.00  0.00    +0.000 C 
ATOM      3  C   UNL     1      -1.194  14.090  20.671  0.00  0.00    +0.000 A 
ATOM      4  C   UNL     1      -1.330  15.454  20.434  0.00  0.00    +0.000 A 
ATOM      5  C   UNL     1      -0.609  16.033  19.391  0.00  0.00    +0.000 A 
ATOM      6  C   UNL     1       0.230  15.247  18.592  0.00  0.00    +0.000 A 
ATOM      7  C   UNL     1       0.378  13.884  18.852  0.00  0.00    +0.000 A 
ATOM      8  C   UNL     1      -0.327  13.312  19.909  0.00  0.00    +0.000 A 
ATOM      9  C   UNL     1      -0.297  11.866  20.363  0.00  0.00    +0.000 C 
ATOM     10  C   UNL     1      -0.842  10.958  19.236  0.00  0.00    +0.000 C 
ATOM     11  C   UNL     1      -0.589   9.477  19.526  0.00  0.00    +0.000 C 
ATOM     12  N   UNL     1       0.826   9.154  19.772  0.00  0.00    +0.000 NA
ATOM     13  C   UNL     1       1.317   9.945  20.912  0.00  0.00    +0.000 C 
ATOM     14  C   UNL     1       1.152  11.456  20.726  0.00  0.00    +0.000 C 
ENDROOT
BRANCH   2  15
ATOM     15  N   UNL     1      -3.360  13.249  21.289  0.00  0.00    +0.000 N 
ATOM     16  C   UNL     1      -4.362  12.744  22.083  0.00  0.00    +0.000 C 
ATOM     17  O   UNL     1      -4.160  12.295  23.205  0.00  0.00    +0.000 OA
ATOM     18  H   UNL     1      -3.625  13.588  20.369  0.00  0.00    +0.000 HD
BRANCH  16  19
ATOM     19  C   UNL     1      -5.668  12.789  21.466  0.00  0.00    +0.000 A 
ATOM     20  C   UNL     1      -6.346  13.821  20.842  0.00  0.00    +0.000 A 
ATOM     21  C   UNL     1      -7.591  13.297  20.423  0.00  0.00    +0.000 A 
ATOM     22  C   UNL     1      -7.604  11.979  20.815  0.00  0.00    +0.000 A 
ATOM     23  O   UNL     1      -6.448  11.661  21.449  0.00  0.00    +0.000 OA
ENDBRANCH  16  19
ENDBRANCH   2  15
BRANCH   1  25
ATOM     24  C   UNL     1      -0.960  10.324  23.397  0.00  0.00    +0.000 C 
ATOM     25  O   UNL     1      -0.587  11.575  22.824  0.00  0.00    +0.000 OA
ENDBRANCH   1  25
BRANCH  12  26
ATOM     26  C   UNL     1       1.689   9.328  18.577  0.00  0.00    +0.000 C 
BRANCH  26  27
ATOM     27  C   UNL     1       2.403   8.059  18.140  0.00  0.00    +0.000 A 
ATOM     28  C   UNL     1       3.550   8.145  17.363  0.00  0.00    +0.000 A 
ATOM     29  C   UNL     1       4.264   6.982  17.105  0.00  0.00    +0.000 A 
ATOM     30  C   UNL     1       3.820   5.760  17.621  0.00  0.00    +0.000 A 
ATOM     31  C   UNL     1       4.566   4.582  17.430  0.00  0.00    +0.000 A 
ATOM     32  C   UNL     1       4.115   3.367  17.939  0.00  0.00    +0.000 A 
ATOM     33  C   UNL     1       2.903   3.320  18.615  0.00  0.00    +0.000 A 
ATOM     34  C   UNL     1       2.171   4.494  18.807  0.00  0.00    +0.000 A 
ATOM     35  F   UNL     1       1.005   4.399  19.470  0.00  0.00    +0.000 F 
ATOM     36  C   UNL     1       2.610   5.741  18.346  0.00  0.00    +0.000 A 
ATOM     37  N   UNL     1       1.921   6.876  18.602  0.00  0.00    +0.000 NA
ENDBRANCH  26  27
ENDBRANCH  12  26
TORSDOF 5
ENDMDL
