MODEL 1
REMARK VINA RESULT:      -7.6      0.000      0.000
REMARK  Name = 
REMARK  4 active torsions:
REMARK  status: ('A' for Active; 'I' for Inactive)
REMARK    1  A    between atoms: C_1  and  C_2
REMARK    2  A    between atoms: C_9  and  C_10
REMARK    3  A    between atoms: C_21  and  C_22
REMARK    4  A    between atoms: C_21  and  C_23
REMARK                            x       y       z     vdW  Elec       q    Type
REMARK                         _______ _______ _______ _____ _____    ______ ____
ROOT
ATOM      1  C   UNL     1      12.333  11.388  19.269  0.00  0.00    +0.000 C 
ATOM      2  C   UNL     1      11.076  11.959  18.689  0.00  0.00    +0.000 A 
ATOM      3  C   UNL     1       9.909  11.199  18.611  0.00  0.00    +0.000 A 
ATOM      4  C   UNL     1       8.741  11.757  18.095  0.00  0.00    +0.000 A 
ATOM      5  C   UNL     1       8.701  13.095  17.669  0.00  0.00    +0.000 A 
ATOM      6  C   UNL     1       9.867  13.875  17.766  0.00  0.00    +0.000 A 
ATOM      7  C   UNL     1      11.050  13.288  18.247  0.00  0.00    +0.000 A 
ATOM      8  N   UNL     1       9.854  15.251  17.464  0.00  0.00    +0.000 N 
ATOM      9  C   UNL     1       9.028  16.090  18.356  0.00  0.00    +0.000 C 
ATOM     10  C   UNL     1       7.530  15.861  18.248  0.00  0.00    +0.000 C 
ATOM     11  C   UNL     1       6.879  14.776  17.770  0.00  0.00    +0.000 C 
ATOM     12  C   UNL     1       5.359  14.680  17.857  0.00  0.00    +0.000 C 
ATOM     13  C   UNL     1       4.754  15.458  19.039  0.00  0.00    +0.000 C 
ATOM     14  C   UNL     1       5.170  14.866  20.400  0.00  0.00    +0.000 C 
ATOM     15  C   UNL     1       3.220  15.392  18.964  0.00  0.00    +0.000 C 
ATOM     16  C   UNL     1       5.224  16.908  18.914  0.00  0.00    +0.000 C 
ATOM     17  C   UNL     1       6.730  17.024  18.778  0.00  0.00    +0.000 C 
ATOM     18  O   UNL     1       7.281  18.083  19.070  0.00  0.00    +0.000 OA
ATOM     19  N   UNL     1       7.460  13.627  17.252  0.00  0.00    +0.000 N 
ATOM     20  H   UNL     1      10.797  15.625  17.413  0.00  0.00    +0.000 HD
ATOM     21  H   UNL     1       6.800  12.897  17.001  0.00  0.00    +0.000 HD
ENDROOT
BRANCH   9  22
ATOM     22  C   UNL     1       9.550  16.072  19.787  0.00  0.00    +0.000 A 
ATOM     23  C   UNL     1      10.506  17.003  20.197  0.00  0.00    +0.000 A 
ATOM     24  F   UNL     1      11.028  17.863  19.311  0.00  0.00    +0.000 F 
ATOM     25  C   UNL     1      10.949  17.068  21.520  0.00  0.00    +0.000 A 
ATOM     26  C   UNL     1      10.445  16.183  22.470  0.00  0.00    +0.000 A 
ATOM     27  C   UNL     1       9.526  15.222  22.082  0.00  0.00    +0.000 A 
ATOM     28  C   UNL     1       9.097  15.163  20.753  0.00  0.00    +0.000 A 
ATOM     29  F   UNL     1       8.221  14.200  20.442  0.00  0.00    +0.000 F 
ENDBRANCH   9  22
TORSDOF 1
ENDMDL
MODEL 2
REMARK VINA RESULT:      -7.1      0.219      1.602
REMARK  Name = 
REMARK  4 active torsions:
REMARK  status: ('A' for Active; 'I' for Inactive)
REMARK    1  A    between atoms: C_1  and  C_2
REMARK    2  A    between atoms: C_9  and  C_10
REMARK    3  A    between atoms: C_21  and  C_22
REMARK    4  A    between atoms: C_21  and  C_23
REMARK                            x       y       z     vdW  Elec       q    Type
REMARK                         _______ _______ _______ _____ _____    ______ ____
ROOT
ATOM      1  C   UNL     1      12.333  11.465  18.995  0.00  0.00    +0.000 C 
ATOM      2  C   UNL     1      11.033  12.009  18.489  0.00  0.00    +0.000 A 
ATOM      3  C   UNL     1       9.874  11.232  18.503  0.00  0.00    +0.000 A 
ATOM      4  C   UNL     1       8.667  11.765  18.055  0.00  0.00    +0.000 A 
ATOM      5  C   UNL     1       8.580  13.093  17.606  0.00  0.00    +0.000 A 
ATOM      6  C   UNL     1       9.739  13.890  17.611  0.00  0.00    +0.000 A 
ATOM      7  C   UNL     1      10.959  13.328  18.024  0.00  0.00    +0.000 A 
ATOM      8  N   UNL     1       9.687  15.259  17.284  0.00  0.00    +0.000 N 
ATOM      9  C   UNL     1       8.910  16.105  18.212  0.00  0.00    +0.000 C 
ATOM     10  C   UNL     1       7.411  15.855  18.208  0.00  0.00    +0.000 C 
ATOM     11  C   UNL     1       6.745  14.752  17.795  0.00  0.00    +0.000 C 
ATOM     12  C   UNL     1       5.236  14.639  17.984  0.00  0.00    +0.000 C 
ATOM     13  C   UNL     1       4.700  15.433  19.189  0.00  0.00    +0.000 C 
ATOM     14  C   UNL     1       5.212  14.874  20.531  0.00  0.00    +0.000 C 
ATOM     15  C   UNL     1       3.165  15.347  19.216  0.00  0.00    +0.000 C 
ATOM     16  C   UNL     1       5.140  16.887  19.005  0.00  0.00    +0.000 C 
ATOM     17  C   UNL     1       6.631  17.018  18.767  0.00  0.00    +0.000 C 
ATOM     18  O   UNL     1       7.186  18.090  19.001  0.00  0.00    +0.000 OA
ATOM     19  N   UNL     1       7.307  13.601  17.262  0.00  0.00    +0.000 N 
ATOM     20  H   UNL     1      10.619  15.643  17.163  0.00  0.00    +0.000 HD
ATOM     21  H   UNL     1       6.642  12.858  17.069  0.00  0.00    +0.000 HD
ENDROOT
BRANCH   9  22
ATOM     22  C   UNL     1       9.525  16.123  19.606  0.00  0.00    +0.000 A 
ATOM     23  C   UNL     1       9.155  15.163  20.548  0.00  0.00    +0.000 A 
ATOM     24  F   UNL     1       8.196  14.272  20.258  0.00  0.00    +0.000 F 
ATOM     25  C   UNL     1       9.755  15.100  21.808  0.00  0.00    +0.000 A 
ATOM     26  C   UNL     1      10.744  16.016  22.158  0.00  0.00    +0.000 A 
ATOM     27  C   UNL     1      11.101  17.006  21.256  0.00  0.00    +0.000 A 
ATOM     28  C   UNL     1      10.487  17.062  20.003  0.00  0.00    +0.000 A 
ATOM     29  F   UNL     1      10.867  18.053  19.187  0.00  0.00    +0.000 F 
ENDBRANCH   9  22
TORSDOF 1
ENDMDL
MODEL 3
REMARK VINA RESULT:      -6.5      7.501     10.431
REMARK  Name = 
REMARK  4 active torsions:
REMARK  status: ('A' for Active; 'I' for Inactive)
REMARK    1  A    between atoms: C_1  and  C_2
REMARK    2  A    between atoms: C_9  and  C_10
REMARK    3  A    between atoms: C_21  and  C_22
REMARK    4  A    between atoms: C_21  and  C_23
REMARK                            x       y       z     vdW  Elec       q    Type
REMARK                         _______ _______ _______ _____ _____    ______ ____
ROOT
ATOM      1  C   UNL     1       0.954  16.765  23.406  0.00  0.00    +0.000 C 
ATOM      2  C   UNL     1       1.187  15.913  22.196  0.00  0.00    +0.000 A 
ATOM      3  C   UNL     1       2.414  15.283  21.986  0.00  0.00    +0.000 A 
ATOM      4  C   UNL     1       2.603  14.470  20.870  0.00  0.00    +0.000 A 
ATOM      5  C   UNL     1       1.565  14.245  19.950  0.00  0.00    +0.000 A 
ATOM      6  C   UNL     1       0.318  14.858  20.168  0.00  0.00    +0.000 A 
ATOM      7  C   UNL     1       0.153  15.710  21.273  0.00  0.00    +0.000 A 
ATOM      8  N   UNL     1      -0.791  14.575  19.345  0.00  0.00    +0.000 N 
ATOM      9  C   UNL     1      -1.286  13.185  19.402  0.00  0.00    +0.000 C 
ATOM     10  C   UNL     1      -0.347  12.144  18.815  0.00  0.00    +0.000 C 
ATOM     11  C   UNL     1       0.988  12.235  18.615  0.00  0.00    +0.000 C 
ATOM     12  C   UNL     1       1.784  11.030  18.125  0.00  0.00    +0.000 C 
ATOM     13  C   UNL     1       1.176   9.676  18.532  0.00  0.00    +0.000 C 
ATOM     14  C   UNL     1       1.211   9.457  20.058  0.00  0.00    +0.000 C 
ATOM     15  C   UNL     1       1.986   8.538  17.891  0.00  0.00    +0.000 C 
ATOM     16  C   UNL     1      -0.263   9.652  18.015  0.00  0.00    +0.000 C 
ATOM     17  C   UNL     1      -1.059  10.866  18.452  0.00  0.00    +0.000 C 
ATOM     18  O   UNL     1      -2.287  10.805  18.470  0.00  0.00    +0.000 OA
ATOM     19  N   UNL     1       1.791  13.331  18.896  0.00  0.00    +0.000 N 
ATOM     20  H   UNL     1      -1.553  15.222  19.521  0.00  0.00    +0.000 HD
ATOM     21  H   UNL     1       2.782  13.180  18.732  0.00  0.00    +0.000 HD
ENDROOT
BRANCH   9  22
ATOM     22  C   UNL     1      -1.807  12.830  20.789  0.00  0.00    +0.000 A 
ATOM     23  C   UNL     1      -3.142  13.065  21.118  0.00  0.00    +0.000 A 
ATOM     24  F   UNL     1      -3.951  13.680  20.243  0.00  0.00    +0.000 F 
ATOM     25  C   UNL     1      -3.675  12.680  22.351  0.00  0.00    +0.000 A 
ATOM     26  C   UNL     1      -2.867  12.053  23.296  0.00  0.00    +0.000 A 
ATOM     27  C   UNL     1      -1.526  11.845  23.011  0.00  0.00    +0.000 A 
ATOM     28  C   UNL     1      -1.005  12.243  21.777  0.00  0.00    +0.000 A 
ATOM     29  F   UNL     1       0.300  12.026  21.574  0.00  0.00    +0.000 F 
ENDBRANCH   9  22
TORSDOF 1
ENDMDL
MODEL 4
REMARK VINA RESULT:      -6.4      2.023      4.771
REMARK  Name = 
REMARK  4 active torsions:
REMARK  status: ('A' for Active; 'I' for Inactive)
REMARK    1  A    between atoms: C_1  and  C_2
REMARK    2  A    between atoms: C_9  and  C_10
REMARK    3  A    between atoms: C_21  and  C_22
REMARK    4  A    between atoms: C_21  and  C_23
REMARK                            x       y       z     vdW  Elec       q    Type
REMARK                         _______ _______ _______ _____ _____    ______ ____
ROOT
ATOM      1  C   UNL     1       8.273   9.513  18.190  0.00  0.00    +0.000 C 
ATOM      2  C   UNL     1       9.173  10.649  18.567  0.00  0.00    +0.000 A 
ATOM      3  C   UNL     1      10.282  10.977  17.788  0.00  0.00    +0.000 A 
ATOM      4  C   UNL     1      11.093  12.056  18.138  0.00  0.00    +0.000 A 
ATOM      5  C   UNL     1      10.801  12.849  19.260  0.00  0.00    +0.000 A 
ATOM      6  C   UNL     1       9.671  12.540  20.038  0.00  0.00    +0.000 A 
ATOM      7  C   UNL     1       8.888  11.423  19.699  0.00  0.00    +0.000 A 
ATOM      8  N   UNL     1       9.265  13.369  21.102  0.00  0.00    +0.000 N 
ATOM      9  C   UNL     1       8.826  14.726  20.718  0.00  0.00    +0.000 C 
ATOM     10  C   UNL     1       9.924  15.630  20.185  0.00  0.00    +0.000 C 
ATOM     11  C   UNL     1      11.118  15.278  19.655  0.00  0.00    +0.000 C 
ATOM     12  C   UNL     1      12.044  16.332  19.056  0.00  0.00    +0.000 C 
ATOM     13  C   UNL     1      11.306  17.561  18.495  0.00  0.00    +0.000 C 
ATOM     14  C   UNL     1      10.428  17.208  17.278  0.00  0.00    +0.000 C 
ATOM     15  C   UNL     1      12.333  18.605  18.028  0.00  0.00    +0.000 C 
ATOM     16  C   UNL     1      10.454  18.133  19.629  0.00  0.00    +0.000 C 
ATOM     17  C   UNL     1       9.560  17.091  20.270  0.00  0.00    +0.000 C 
ATOM     18  O   UNL     1       8.560  17.452  20.888  0.00  0.00    +0.000 OA
ATOM     19  N   UNL     1      11.604  13.988  19.501  0.00  0.00    +0.000 N 
ATOM     20  H   UNL     1       8.550  12.919  21.665  0.00  0.00    +0.000 HD
ATOM     21  H   UNL     1      12.498  13.928  19.023  0.00  0.00    +0.000 HD
ENDROOT
BRANCH   9  22
ATOM     22  C   UNL     1       7.582  14.687  19.839  0.00  0.00    +0.000 A 
ATOM     23  C   UNL     1       6.314  14.779  20.414  0.00  0.00    +0.000 A 
ATOM     24  F   UNL     1       6.182  14.822  21.747  0.00  0.00    +0.000 F 
ATOM     25  C   UNL     1       5.155  14.827  19.635  0.00  0.00    +0.000 A 
ATOM     26  C   UNL     1       5.244  14.770  18.246  0.00  0.00    +0.000 A 
ATOM     27  C   UNL     1       6.488  14.636  17.651  0.00  0.00    +0.000 A 
ATOM     28  C   UNL     1       7.638  14.581  18.443  0.00  0.00    +0.000 A 
ATOM     29  F   UNL     1       8.805  14.434  17.805  0.00  0.00    +0.000 F 
ENDBRANCH   9  22
TORSDOF 1
ENDMDL
MODEL 5
REMARK VINA RESULT:      -6.2      7.632     10.506
REMARK  Name = 
REMARK  4 active torsions:
REMARK  status: ('A' for Active; 'I' for Inactive)
REMARK    1  A    between atoms: C_1  and  C_2
REMARK    2  A    between atoms: C_9  and  C_10
REMARK    3  A    between atoms: C_21  and  C_22
REMARK    4  A    between atoms: C_21  and  C_23
REMARK                            x       y       z     vdW  Elec       q    Type
REMARK                         _______ _______ _______ _____ _____    ______ ____
ROOT
ATOM      1  C   UNL     1       0.675  16.685  23.454  0.00  0.00    +0.000 C 
ATOM      2  C   UNL     1       0.966  15.845  22.249  0.00  0.00    +0.000 A 
ATOM      3  C   UNL     1       2.208  15.232  22.082  0.00  0.00    +0.000 A 
ATOM      4  C   UNL     1       2.451  14.430  20.968  0.00  0.00    +0.000 A 
ATOM      5  C   UNL     1       1.453  14.199  20.007  0.00  0.00    +0.000 A 
ATOM      6  C   UNL     1       0.190  14.795  20.180  0.00  0.00    +0.000 A 
ATOM      7  C   UNL     1      -0.028  15.636  21.284  0.00  0.00    +0.000 A 
ATOM      8  N   UNL     1      -0.881  14.505  19.313  0.00  0.00    +0.000 N 
ATOM      9  C   UNL     1      -1.361  13.108  19.339  0.00  0.00    +0.000 C 
ATOM     10  C   UNL     1      -0.387  12.083  18.783  0.00  0.00    +0.000 C 
ATOM     11  C   UNL     1       0.954  12.192  18.636  0.00  0.00    +0.000 C 
ATOM     12  C   UNL     1       1.784  11.001  18.169  0.00  0.00    +0.000 C 
ATOM     13  C   UNL     1       1.178   9.636  18.542  0.00  0.00    +0.000 C 
ATOM     14  C   UNL     1       1.155   9.406  20.067  0.00  0.00    +0.000 C 
ATOM     15  C   UNL     1       2.026   8.513  17.925  0.00  0.00    +0.000 C 
ATOM     16  C   UNL     1      -0.240   9.599  17.969  0.00  0.00    +0.000 C 
ATOM     17  C   UNL     1      -1.068  10.799  18.382  0.00  0.00    +0.000 C 
ATOM     18  O   UNL     1      -2.295  10.724  18.352  0.00  0.00    +0.000 OA
ATOM     19  N   UNL     1       1.732  13.296  18.957  0.00  0.00    +0.000 N 
ATOM     20  H   UNL     1      -1.658  15.141  19.463  0.00  0.00    +0.000 HD
ATOM     21  H   UNL     1       2.730  13.159  18.830  0.00  0.00    +0.000 HD
ENDROOT
BRANCH   9  22
ATOM     22  C   UNL     1      -1.931  12.736  20.702  0.00  0.00    +0.000 A 
ATOM     23  C   UNL     1      -1.103  12.188  21.683  0.00  0.00    +0.000 A 
ATOM     24  F   UNL     1       0.179  11.912  21.403  0.00  0.00    +0.000 F 
ATOM     25  C   UNL     1      -1.572  11.908  22.969  0.00  0.00    +0.000 A 
ATOM     26  C   UNL     1      -2.901  12.164  23.300  0.00  0.00    +0.000 A 
ATOM     27  C   UNL     1      -3.755  12.669  22.332  0.00  0.00    +0.000 A 
ATOM     28  C   UNL     1      -3.274  12.937  21.047  0.00  0.00    +0.000 A 
ATOM     29  F   UNL     1      -4.156  13.407  20.158  0.00  0.00    +0.000 F 
ENDBRANCH   9  22
TORSDOF 1
ENDMDL
MODEL 6
REMARK VINA RESULT:      -5.9      2.302      4.891
REMARK  Name = 
REMARK  4 active torsions:
REMARK  status: ('A' for Active; 'I' for Inactive)
REMARK    1  A    between atoms: C_1  and  C_2
REMARK    2  A    between atoms: C_9  and  C_10
REMARK    3  A    between atoms: C_21  and  C_22
REMARK    4  A    between atoms: C_21  and  C_23
REMARK                            x       y       z     vdW  Elec       q    Type
REMARK                         _______ _______ _______ _____ _____    ______ ____
ROOT
ATOM      1  C   UNL     1       8.295   9.546  18.427  0.00  0.00    +0.000 C 
ATOM      2  C   UNL     1       9.293  10.613  18.755  0.00  0.00    +0.000 A 
ATOM      3  C   UNL     1      10.127  11.143  17.771  0.00  0.00    +0.000 A 
ATOM      4  C   UNL     1      11.030  12.157  18.089  0.00  0.00    +0.000 A 
ATOM      5  C   UNL     1      11.103  12.685  19.388  0.00  0.00    +0.000 A 
ATOM      6  C   UNL     1      10.248  12.172  20.381  0.00  0.00    +0.000 A 
ATOM      7  C   UNL     1       9.374  11.120  20.058  0.00  0.00    +0.000 A 
ATOM      8  N   UNL     1      10.196  12.741  21.668  0.00  0.00    +0.000 N 
ATOM      9  C   UNL     1       9.694  14.129  21.729  0.00  0.00    +0.000 C 
ATOM     10  C   UNL     1      10.605  15.170  21.101  0.00  0.00    +0.000 C 
ATOM     11  C   UNL     1      11.579  14.987  20.180  0.00  0.00    +0.000 C 
ATOM     12  C   UNL     1      12.310  16.181  19.574  0.00  0.00    +0.000 C 
ATOM     13  C   UNL     1      11.467  17.469  19.531  0.00  0.00    +0.000 C 
ATOM     14  C   UNL     1      10.260  17.343  18.581  0.00  0.00    +0.000 C 
ATOM     15  C   UNL     1      12.333  18.630  19.016  0.00  0.00    +0.000 C 
ATOM     16  C   UNL     1      11.004  17.754  20.960  0.00  0.00    +0.000 C 
ATOM     17  C   UNL     1      10.317  16.564  21.599  0.00  0.00    +0.000 C 
ATOM     18  O   UNL     1       9.554  16.745  22.546  0.00  0.00    +0.000 OA
ATOM     19  N   UNL     1      11.967  13.780  19.618  0.00  0.00    +0.000 N 
ATOM     20  H   UNL     1       9.670  12.154  22.308  0.00  0.00    +0.000 HD
ATOM     21  H   UNL     1      12.678  13.859  18.898  0.00  0.00    +0.000 HD
ENDROOT
BRANCH   9  22
ATOM     22  C   UNL     1       8.245  14.224  21.269  0.00  0.00    +0.000 A 
ATOM     23  C   UNL     1       7.206  14.073  22.188  0.00  0.00    +0.000 A 
ATOM     24  F   UNL     1       7.477  13.763  23.464  0.00  0.00    +0.000 F 
ATOM     25  C   UNL     1       5.868  14.232  21.818  0.00  0.00    +0.000 A 
ATOM     26  C   UNL     1       5.539  14.538  20.500  0.00  0.00    +0.000 A 
ATOM     27  C   UNL     1       6.549  14.652  19.558  0.00  0.00    +0.000 A 
ATOM     28  C   UNL     1       7.882  14.483  19.940  0.00  0.00    +0.000 A 
ATOM     29  F   UNL     1       8.806  14.590  18.977  0.00  0.00    +0.000 F 
ENDBRANCH   9  22
TORSDOF 1
ENDMDL
MODEL 7
REMARK VINA RESULT:      -5.9      6.167     10.234
REMARK  Name = 
REMARK  4 active torsions:
REMARK  status: ('A' for Active; 'I' for Inactive)
REMARK    1  A    between atoms: C_1  and  C_2
REMARK    2  A    between atoms: C_9  and  C_10
REMARK    3  A    between atoms: C_21  and  C_22
REMARK    4  A    between atoms: C_21  and  C_23
REMARK                            x       y       z     vdW  Elec       q    Type
REMARK                         _______ _______ _______ _____ _____    ______ ____
ROOT
ATOM      1  C   UNL     1      -4.303  12.632  22.590  0.00  0.00    +0.000 C 
ATOM      2  C   UNL     1      -3.288  13.389  21.789  0.00  0.00    +0.000 A 
ATOM      3  C   UNL     1      -2.719  14.565  22.276  0.00  0.00    +0.000 A 
ATOM      4  C   UNL     1      -1.755  15.240  21.529  0.00  0.00    +0.000 A 
ATOM      5  C   UNL     1      -1.317  14.744  20.290  0.00  0.00    +0.000 A 
ATOM      6  C   UNL     1      -1.869  13.546  19.802  0.00  0.00    +0.000 A 
ATOM      7  C   UNL     1      -2.871  12.899  20.545  0.00  0.00    +0.000 A 
ATOM      8  N   UNL     1      -1.384  12.942  18.626  0.00  0.00    +0.000 N 
ATOM      9  C   UNL     1       0.010  12.460  18.687  0.00  0.00    +0.000 C 
ATOM     10  C   UNL     1       1.064  13.550  18.785  0.00  0.00    +0.000 C 
ATOM     11  C   UNL     1       0.914  14.827  19.207  0.00  0.00    +0.000 C 
ATOM     12  C   UNL     1       2.123  15.745  19.352  0.00  0.00    +0.000 C 
ATOM     13  C   UNL     1       3.435  15.001  19.661  0.00  0.00    +0.000 C 
ATOM     14  C   UNL     1       3.407  14.322  21.045  0.00  0.00    +0.000 C 
ATOM     15  C   UNL     1       4.601  16.002  19.668  0.00  0.00    +0.000 C 
ATOM     16  C   UNL     1       3.639  13.965  18.554  0.00  0.00    +0.000 C 
ATOM     17  C   UNL     1       2.430  13.072  18.361  0.00  0.00    +0.000 C 
ATOM     18  O   UNL     1       2.571  11.975  17.824  0.00  0.00    +0.000 OA
ATOM     19  N   UNL     1      -0.265  15.422  19.632  0.00  0.00    +0.000 N 
ATOM     20  H   UNL     1      -1.997  12.193  18.319  0.00  0.00    +0.000 HD
ATOM     21  H   UNL     1      -0.159  16.374  19.969  0.00  0.00    +0.000 HD
ENDROOT
BRANCH   9  22
ATOM     22  C   UNL     1       0.177  11.351  19.718  0.00  0.00    +0.000 A 
ATOM     23  C   UNL     1       0.027  10.015  19.343  0.00  0.00    +0.000 A 
ATOM     24  F   UNL     1      -0.345   9.707  18.092  0.00  0.00    +0.000 F 
ATOM     25  C   UNL     1       0.250   8.969  20.242  0.00  0.00    +0.000 A 
ATOM     26  C   UNL     1       0.623   9.244  21.555  0.00  0.00    +0.000 A 
ATOM     27  C   UNL     1       0.739  10.562  21.966  0.00  0.00    +0.000 A 
ATOM     28  C   UNL     1       0.504  11.599  21.059  0.00  0.00    +0.000 A 
ATOM     29  F   UNL     1       0.617  12.848  21.525  0.00  0.00    +0.000 F 
ENDBRANCH   9  22
TORSDOF 1
ENDMDL
MODEL 8
REMARK VINA RESULT:      -5.8      7.466     10.170
REMARK  Name = 
REMARK  4 active torsions:
REMARK  status: ('A' for Active; 'I' for Inactive)
REMARK    1  A    between atoms: C_1  and  C_2
REMARK    2  A    between atoms: C_9  and  C_10
REMARK    3  A    between atoms: C_21  and  C_22
REMARK    4  A    between atoms: C_21  and  C_23
REMARK                            x       y       z     vdW  Elec       q    Type
REMARK                         _______ _______ _______ _____ _____    ______ ____
ROOT
ATOM      1  C   UNL     1       1.443   8.396  21.015  0.00  0.00    +0.000 C 
ATOM      2  C   UNL     1       0.377   9.338  21.484  0.00  0.00    +0.000 A 
ATOM      3  C   UNL     1       0.087   9.475  22.842  0.00  0.00    +0.000 A 
ATOM      4  C   UNL     1      -0.889  10.379  23.262  0.00  0.00    +0.000 A 
ATOM      5  C   UNL     1      -1.578  11.185  22.341  0.00  0.00    +0.000 A 
ATOM      6  C   UNL     1      -1.274  11.069  20.973  0.00  0.00    +0.000 A 
ATOM      7  C   UNL     1      -0.320  10.124  20.558  0.00  0.00    +0.000 A 
ATOM      8  N   UNL     1      -1.848  11.932  20.019  0.00  0.00    +0.000 N 
ATOM      9  C   UNL     1      -1.474  13.355  20.144  0.00  0.00    +0.000 C 
ATOM     10  C   UNL     1      -2.014  14.056  21.380  0.00  0.00    +0.000 C 
ATOM     11  C   UNL     1      -2.437  13.504  22.540  0.00  0.00    +0.000 C 
ATOM     12  C   UNL     1      -2.832  14.384  23.721  0.00  0.00    +0.000 C 
ATOM     13  C   UNL     1      -2.105  15.741  23.755  0.00  0.00    +0.000 C 
ATOM     14  C   UNL     1      -0.590  15.585  23.993  0.00  0.00    +0.000 C 
ATOM     15  C   UNL     1      -2.662  16.590  24.910  0.00  0.00    +0.000 C 
ATOM     16  C   UNL     1      -2.375  16.433  22.418  0.00  0.00    +0.000 C 
ATOM     17  C   UNL     1      -2.033  15.556  21.229  0.00  0.00    +0.000 C 
ATOM     18  O   UNL     1      -1.809  16.080  20.139  0.00  0.00    +0.000 OA
ATOM     19  N   UNL     1      -2.481  12.150  22.842  0.00  0.00    +0.000 N 
ATOM     20  H   UNL     1      -1.667  11.608  19.074  0.00  0.00    +0.000 HD
ATOM     21  H   UNL     1      -2.772  11.939  23.792  0.00  0.00    +0.000 HD
ENDROOT
BRANCH   9  22
ATOM     22  C   UNL     1       0.018  13.566  19.922  0.00  0.00    +0.000 A 
ATOM     23  C   UNL     1       0.521  13.712  18.628  0.00  0.00    +0.000 A 
ATOM     24  F   UNL     1      -0.295  13.585  17.572  0.00  0.00    +0.000 F 
ATOM     25  C   UNL     1       1.871  13.985  18.390  0.00  0.00    +0.000 A 
ATOM     26  C   UNL     1       2.757  14.110  19.457  0.00  0.00    +0.000 A 
ATOM     27  C   UNL     1       2.292  13.929  20.750  0.00  0.00    +0.000 A 
ATOM     28  C   UNL     1       0.942  13.647  20.973  0.00  0.00    +0.000 A 
ATOM     29  F   UNL     1       0.564  13.467  22.244  0.00  0.00    +0.000 F 
ENDBRANCH   9  22
TORSDOF 1
ENDMDL
MODEL 9
REMARK VINA RESULT:      -5.8      9.044     11.610
REMARK  Name = 
REMARK  4 active torsions:
REMARK  status: ('A' for Active; 'I' for Inactive)
REMARK    1  A    between atoms: C_1  and  C_2
REMARK    2  A    between atoms: C_9  and  C_10
REMARK    3  A    between atoms: C_21  and  C_22
REMARK    4  A    between atoms: C_21  and  C_23
REMARK                            x       y       z     vdW  Elec       q    Type
REMARK                         _______ _______ _______ _____ _____    ______ ____
ROOT
ATOM      1  C   UNL     1       0.146  17.246  17.699  0.00  0.00    +0.000 C 
ATOM      2  C   UNL     1      -0.529  16.956  19.004  0.00  0.00    +0.000 A 
ATOM      3  C   UNL     1      -1.792  17.474  19.291  0.00  0.00    +0.000 A 
ATOM      4  C   UNL     1      -2.418  17.170  20.499  0.00  0.00    +0.000 A 
ATOM      5  C   UNL     1      -1.810  16.322  21.439  0.00  0.00    +0.000 A 
ATOM      6  C   UNL     1      -0.547  15.776  21.147  0.00  0.00    +0.000 A 
ATOM      7  C   UNL     1       0.092  16.125  19.945  0.00  0.00    +0.000 A 
ATOM      8  N   UNL     1       0.056  14.829  21.998  0.00  0.00    +0.000 N 
ATOM      9  C   UNL     1      -0.651  13.537  22.113  0.00  0.00    +0.000 C 
ATOM     10  C   UNL     1      -1.992  13.599  22.823  0.00  0.00    +0.000 C 
ATOM     11  C   UNL     1      -2.794  14.673  23.011  0.00  0.00    +0.000 C 
ATOM     12  C   UNL     1      -4.171  14.514  23.646  0.00  0.00    +0.000 C 
ATOM     13  C   UNL     1      -4.809  13.132  23.408  0.00  0.00    +0.000 C 
ATOM     14  C   UNL     1      -5.135  12.890  21.921  0.00  0.00    +0.000 C 
ATOM     15  C   UNL     1      -6.132  13.039  24.185  0.00  0.00    +0.000 C 
ATOM     16  C   UNL     1      -3.822  12.084  23.924  0.00  0.00    +0.000 C 
ATOM     17  C   UNL     1      -2.433  12.254  23.341  0.00  0.00    +0.000 C 
ATOM     18  O   UNL     1      -1.663  11.295  23.330  0.00  0.00    +0.000 OA
ATOM     19  N   UNL     1      -2.541  15.973  22.597  0.00  0.00    +0.000 N 
ATOM     20  H   UNL     1       1.026  14.671  21.743  0.00  0.00    +0.000 HD
ATOM     21  H   UNL     1      -3.296  16.628  22.779  0.00  0.00    +0.000 HD
ENDROOT
BRANCH   9  22
ATOM     22  C   UNL     1      -0.696  12.800  20.780  0.00  0.00    +0.000 A 
ATOM     23  C   UNL     1       0.372  11.990  20.390  0.00  0.00    +0.000 A 
ATOM     24  F   UNL     1       1.475  11.922  21.149  0.00  0.00    +0.000 F 
ATOM     25  C   UNL     1       0.332  11.238  19.213  0.00  0.00    +0.000 A 
ATOM     26  C   UNL     1      -0.788  11.291  18.387  0.00  0.00    +0.000 A 
ATOM     27  C   UNL     1      -1.845  12.120  18.729  0.00  0.00    +0.000 A 
ATOM     28  C   UNL     1      -1.788  12.873  19.905  0.00  0.00    +0.000 A 
ATOM     29  F   UNL     1      -2.835  13.665  20.167  0.00  0.00    +0.000 F 
ENDBRANCH   9  22
TORSDOF 1
ENDMDL
