MODEL 1
REMARK VINA RESULT:      -8.2      0.000      0.000
REMARK  Name = 
REMARK  7 active torsions:
REMARK  status: ('A' for Active; 'I' for Inactive)
REMARK    1  A    between atoms: C_1  and  C_2
REMARK    2  A    between atoms: C_2  and  C_3
REMARK    3  A    between atoms: C_3  and  C_4
REMARK    4  A    between atoms: C_4  and  C_5
REMARK    5  A    between atoms: C_5  and  C_6
REMARK    6  A    between atoms: C_6  and  C_7
REMARK    7  A    between atoms: N_9  and  C_10
REMARK                            x       y       z     vdW  Elec       q    Type
REMARK                         _______ _______ _______ _____ _____    ______ ____
ROOT
ATOM      1  C   UNL     1       4.953   4.337  18.930  0.00  0.00    +0.000 A 
ATOM      2  C   UNL     1       4.759   3.156  19.584  0.00  0.00    +0.000 A 
ATOM      3  C   UNL     1       3.688   3.009  20.505  0.00  0.00    +0.000 A 
ATOM      4  N   UNL     1       3.388   2.170  21.474  0.00  0.00    +0.000 NA
ATOM      5  N   UNL     1       2.122   2.530  21.896  0.00  0.00    +0.000 NA
ATOM      6  N   UNL     1       1.623   3.515  21.152  0.00  0.00    +0.000 NA
ATOM      7  N   UNL     1       2.611   3.832  20.305  0.00  0.00    +0.000 N 
ATOM      8  C   UNL     1       2.664   4.934  19.452  0.00  0.00    +0.000 A 
ATOM      9  C   UNL     1       1.593   5.408  18.719  0.00  0.00    +0.000 A 
ATOM     10  C   UNL     1       1.817   6.513  17.903  0.00  0.00    +0.000 A 
ATOM     11  C   UNL     1       2.984   7.265  18.071  0.00  0.00    +0.000 A 
ATOM     12  C   UNL     1       4.038   6.753  18.827  0.00  0.00    +0.000 A 
ATOM     13  C   UNL     1       3.953   5.431  19.233  0.00  0.00    +0.000 A 
ENDROOT
BRANCH   1  16
ATOM     14  C   UNL     1       6.678   4.380  15.749  0.00  0.00    +0.000 A 
ATOM     15  C   UNL     1       5.497   4.302  16.434  0.00  0.00    +0.000 A 
ATOM     16  N   UNL     1       5.813   4.375  17.792  0.00  0.00    +0.000 N 
ATOM     17  N   UNL     1       7.181   4.447  17.863  0.00  0.00    +0.000 NA
ATOM     18  N   UNL     1       7.701   4.435  16.645  0.00  0.00    +0.000 NA
BRANCH  14  19
ATOM     19  C   UNL     1       6.927   4.515  14.290  0.00  0.00    +0.000 C 
BRANCH  19  20
ATOM     20  C   UNL     1       5.843   3.926  13.380  0.00  0.00    +0.000 C 
BRANCH  20  21
ATOM     21  C   UNL     1       6.397   3.101  12.225  0.00  0.00    +0.000 C 
BRANCH  21  22
ATOM     22  C   UNL     1       5.262   2.506  11.384  0.00  0.00    +0.000 C 
BRANCH  22  24
ATOM     23  C   UNL     1       3.346   3.595  10.151  0.00  0.00    +0.000 C 
ATOM     24  C   UNL     1       3.994   3.339  11.516  0.00  0.00    +0.000 C 
ENDBRANCH  22  24
ENDBRANCH  21  22
ENDBRANCH  20  21
ENDBRANCH  19  20
ENDBRANCH  14  19
ENDBRANCH   1  16
TORSDOF 6
ENDMDL
MODEL 2
REMARK VINA RESULT:      -8.0      0.758      1.230
REMARK  Name = 
REMARK  7 active torsions:
REMARK  status: ('A' for Active; 'I' for Inactive)
REMARK    1  A    between atoms: C_1  and  C_2
REMARK    2  A    between atoms: C_2  and  C_3
REMARK    3  A    between atoms: C_3  and  C_4
REMARK    4  A    between atoms: C_4  and  C_5
REMARK    5  A    between atoms: C_5  and  C_6
REMARK    6  A    between atoms: C_6  and  C_7
REMARK    7  A    between atoms: N_9  and  C_10
REMARK                            x       y       z     vdW  Elec       q    Type
REMARK                         _______ _______ _______ _____ _____    ______ ____
ROOT
ATOM      1  C   UNL     1       4.952   4.311  18.956  0.00  0.00    +0.000 A 
ATOM      2  C   UNL     1       4.719   3.137  19.610  0.00  0.00    +0.000 A 
ATOM      3  C   UNL     1       3.628   3.019  20.512  0.00  0.00    +0.000 A 
ATOM      4  N   UNL     1       3.289   2.191  21.477  0.00  0.00    +0.000 NA
ATOM      5  N   UNL     1       2.025   2.582  21.875  0.00  0.00    +0.000 NA
ATOM      6  N   UNL     1       1.564   3.576  21.118  0.00  0.00    +0.000 NA
ATOM      7  N   UNL     1       2.574   3.866  20.289  0.00  0.00    +0.000 N 
ATOM      8  C   UNL     1       2.669   4.964  19.433  0.00  0.00    +0.000 A 
ATOM      9  C   UNL     1       1.624   5.460  18.679  0.00  0.00    +0.000 A 
ATOM     10  C   UNL     1       1.890   6.557  17.863  0.00  0.00    +0.000 A 
ATOM     11  C   UNL     1       3.071   7.281  18.051  0.00  0.00    +0.000 A 
ATOM     12  C   UNL     1       4.097   6.747  18.827  0.00  0.00    +0.000 A 
ATOM     13  C   UNL     1       3.973   5.429  19.237  0.00  0.00    +0.000 A 
ENDROOT
BRANCH   1  16
ATOM     14  C   UNL     1       6.747   4.221  15.815  0.00  0.00    +0.000 A 
ATOM     15  C   UNL     1       5.562   4.096  16.484  0.00  0.00    +0.000 A 
ATOM     16  N   UNL     1       5.835   4.324  17.834  0.00  0.00    +0.000 N 
ATOM     17  N   UNL     1       7.188   4.530  17.921  0.00  0.00    +0.000 NA
ATOM     18  N   UNL     1       7.738   4.454  16.719  0.00  0.00    +0.000 NA
BRANCH  14  19
ATOM     19  C   UNL     1       7.020   4.244  14.354  0.00  0.00    +0.000 C 
BRANCH  19  20
ATOM     20  C   UNL     1       5.832   3.878  13.457  0.00  0.00    +0.000 C 
BRANCH  20  21
ATOM     21  C   UNL     1       6.235   3.479  12.042  0.00  0.00    +0.000 C 
BRANCH  21  22
ATOM     22  C   UNL     1       5.566   2.162  11.634  0.00  0.00    +0.000 C 
BRANCH  22  24
ATOM     23  C   UNL     1       6.108  -0.279  11.281  0.00  0.00    +0.000 C 
ATOM     24  C   UNL     1       6.596   1.165  11.121  0.00  0.00    +0.000 C 
ENDBRANCH  22  24
ENDBRANCH  21  22
ENDBRANCH  20  21
ENDBRANCH  19  20
ENDBRANCH  14  19
ENDBRANCH   1  16
TORSDOF 6
ENDMDL
MODEL 3
REMARK VINA RESULT:      -7.8      3.857      7.323
REMARK  Name = 
REMARK  7 active torsions:
REMARK  status: ('A' for Active; 'I' for Inactive)
REMARK    1  A    between atoms: C_1  and  C_2
REMARK    2  A    between atoms: C_2  and  C_3
REMARK    3  A    between atoms: C_3  and  C_4
REMARK    4  A    between atoms: C_4  and  C_5
REMARK    5  A    between atoms: C_5  and  C_6
REMARK    6  A    between atoms: C_6  and  C_7
REMARK    7  A    between atoms: N_9  and  C_10
REMARK                            x       y       z     vdW  Elec       q    Type
REMARK                         _______ _______ _______ _____ _____    ______ ____
ROOT
ATOM      1  C   UNL     1       2.841   6.640  19.184  0.00  0.00    +0.000 A 
ATOM      2  C   UNL     1       3.514   6.902  18.027  0.00  0.00    +0.000 A 
ATOM      3  C   UNL     1       4.131   5.851  17.298  0.00  0.00    +0.000 A 
ATOM      4  N   UNL     1       5.050   5.769  16.359  0.00  0.00    +0.000 NA
ATOM      5  N   UNL     1       5.096   4.436  16.001  0.00  0.00    +0.000 NA
ATOM      6  N   UNL     1       4.172   3.727  16.646  0.00  0.00    +0.000 NA
ATOM      7  N   UNL     1       3.591   4.604  17.474  0.00  0.00    +0.000 N 
ATOM      8  C   UNL     1       2.696   4.320  18.506  0.00  0.00    +0.000 A 
ATOM      9  C   UNL     1       1.673   3.395  18.421  0.00  0.00    +0.000 A 
ATOM     10  C   UNL     1       0.858   3.240  19.540  0.00  0.00    +0.000 A 
ATOM     11  C   UNL     1       1.267   3.776  20.765  0.00  0.00    +0.000 A 
ATOM     12  C   UNL     1       2.310   4.699  20.807  0.00  0.00    +0.000 A 
ATOM     13  C   UNL     1       2.784   5.187  19.599  0.00  0.00    +0.000 A 
ENDROOT
BRANCH   1  16
ATOM     14  C   UNL     1       0.688   9.407  20.082  0.00  0.00    +0.000 A 
ATOM     15  C   UNL     1       1.481   8.803  19.146  0.00  0.00    +0.000 A 
ATOM     16  N   UNL     1       1.970   7.631  19.728  0.00  0.00    +0.000 N 
ATOM     17  N   UNL     1       1.483   7.609  21.010  0.00  0.00    +0.000 NA
ATOM     18  N   UNL     1       0.730   8.675  21.230  0.00  0.00    +0.000 NA
BRANCH  14  19
ATOM     19  C   UNL     1      -0.209  10.584  19.954  0.00  0.00    +0.000 C 
BRANCH  19  20
ATOM     20  C   UNL     1      -0.590  10.970  18.520  0.00  0.00    +0.000 C 
BRANCH  20  21
ATOM     21  C   UNL     1      -2.053  10.708  18.185  0.00  0.00    +0.000 C 
BRANCH  21  22
ATOM     22  C   UNL     1      -2.185   9.968  16.849  0.00  0.00    +0.000 C 
BRANCH  22  24
ATOM     23  C   UNL     1      -3.019  10.115  14.471  0.00  0.00    +0.000 C 
ATOM     24  C   UNL     1      -2.951  10.808  15.836  0.00  0.00    +0.000 C 
ENDBRANCH  22  24
ENDBRANCH  21  22
ENDBRANCH  20  21
ENDBRANCH  19  20
ENDBRANCH  14  19
ENDBRANCH   1  16
TORSDOF 6
ENDMDL
MODEL 4
REMARK VINA RESULT:      -7.7      2.028      3.168
REMARK  Name = 
REMARK  7 active torsions:
REMARK  status: ('A' for Active; 'I' for Inactive)
REMARK    1  A    between atoms: C_1  and  C_2
REMARK    2  A    between atoms: C_2  and  C_3
REMARK    3  A    between atoms: C_3  and  C_4
REMARK    4  A    between atoms: C_4  and  C_5
REMARK    5  A    between atoms: C_5  and  C_6
REMARK    6  A    between atoms: C_6  and  C_7
REMARK    7  A    between atoms: N_9  and  C_10
REMARK                            x       y       z     vdW  Elec       q    Type
REMARK                         _______ _______ _______ _____ _____    ______ ____
ROOT
ATOM      1  C   UNL     1       3.151   5.530  17.756  0.00  0.00    +0.000 A 
ATOM      2  C   UNL     1       3.256   6.808  18.221  0.00  0.00    +0.000 A 
ATOM      3  C   UNL     1       2.404   7.269  19.259  0.00  0.00    +0.000 A 
ATOM      4  N   UNL     1       2.043   8.445  19.729  0.00  0.00    +0.000 NA
ATOM      5  N   UNL     1       1.272   8.178  20.843  0.00  0.00    +0.000 NA
ATOM      6  N   UNL     1       1.225   6.872  21.101  0.00  0.00    +0.000 NA
ATOM      7  N   UNL     1       1.906   6.306  20.097  0.00  0.00    +0.000 N 
ATOM      8  C   UNL     1       1.981   4.946  19.795  0.00  0.00    +0.000 A 
ATOM      9  C   UNL     1       2.110   3.942  20.734  0.00  0.00    +0.000 A 
ATOM     10  C   UNL     1       2.184   2.633  20.265  0.00  0.00    +0.000 A 
ATOM     11  C   UNL     1       1.834   2.359  18.939  0.00  0.00    +0.000 A 
ATOM     12  C   UNL     1       1.705   3.404  18.025  0.00  0.00    +0.000 A 
ATOM     13  C   UNL     1       2.109   4.666  18.430  0.00  0.00    +0.000 A 
ENDROOT
BRANCH   1  16
ATOM     14  C   UNL     1       5.813   4.637  15.473  0.00  0.00    +0.000 A 
ATOM     15  C   UNL     1       4.920   5.574  15.914  0.00  0.00    +0.000 A 
ATOM     16  N   UNL     1       4.201   4.987  16.957  0.00  0.00    +0.000 N 
ATOM     17  N   UNL     1       4.665   3.700  17.064  0.00  0.00    +0.000 NA
ATOM     18  N   UNL     1       5.616   3.484  16.169  0.00  0.00    +0.000 NA
BRANCH  14  19
ATOM     19  C   UNL     1       6.930   4.767  14.502  0.00  0.00    +0.000 C 
BRANCH  19  20
ATOM     20  C   UNL     1       6.615   4.316  13.071  0.00  0.00    +0.000 C 
BRANCH  20  21
ATOM     21  C   UNL     1       5.204   3.764  12.902  0.00  0.00    +0.000 C 
BRANCH  21  22
ATOM     22  C   UNL     1       5.068   3.007  11.576  0.00  0.00    +0.000 C 
BRANCH  22  24
ATOM     23  C   UNL     1       3.324   4.048  10.076  0.00  0.00    +0.000 C 
ATOM     24  C   UNL     1       3.615   2.966  11.121  0.00  0.00    +0.000 C 
ENDBRANCH  22  24
ENDBRANCH  21  22
ENDBRANCH  20  21
ENDBRANCH  19  20
ENDBRANCH  14  19
ENDBRANCH   1  16
TORSDOF 6
ENDMDL
MODEL 5
REMARK VINA RESULT:      -7.7      1.800      2.979
REMARK  Name = 
REMARK  7 active torsions:
REMARK  status: ('A' for Active; 'I' for Inactive)
REMARK    1  A    between atoms: C_1  and  C_2
REMARK    2  A    between atoms: C_2  and  C_3
REMARK    3  A    between atoms: C_3  and  C_4
REMARK    4  A    between atoms: C_4  and  C_5
REMARK    5  A    between atoms: C_5  and  C_6
REMARK    6  A    between atoms: C_6  and  C_7
REMARK    7  A    between atoms: N_9  and  C_10
REMARK                            x       y       z     vdW  Elec       q    Type
REMARK                         _______ _______ _______ _____ _____    ______ ____
ROOT
ATOM      1  C   UNL     1       4.100   5.308  17.171  0.00  0.00    +0.000 A 
ATOM      2  C   UNL     1       3.918   6.539  17.728  0.00  0.00    +0.000 A 
ATOM      3  C   UNL     1       2.967   6.728  18.766  0.00  0.00    +0.000 A 
ATOM      4  N   UNL     1       2.353   7.759  19.304  0.00  0.00    +0.000 NA
ATOM      5  N   UNL     1       1.636   7.250  20.370  0.00  0.00    +0.000 NA
ATOM      6  N   UNL     1       1.867   5.949  20.532  0.00  0.00    +0.000 NA
ATOM      7  N   UNL     1       2.674   5.619  19.516  0.00  0.00    +0.000 N 
ATOM      8  C   UNL     1       3.046   4.333  19.121  0.00  0.00    +0.000 A 
ATOM      9  C   UNL     1       3.371   3.312  19.992  0.00  0.00    +0.000 A 
ATOM     10  C   UNL     1       3.735   2.089  19.434  0.00  0.00    +0.000 A 
ATOM     11  C   UNL     1       3.477   1.848  18.081  0.00  0.00    +0.000 A 
ATOM     12  C   UNL     1       3.143   2.907  17.239  0.00  0.00    +0.000 A 
ATOM     13  C   UNL     1       3.257   4.192  17.746  0.00  0.00    +0.000 A 
ENDROOT
BRANCH   1  16
ATOM     14  C   UNL     1       6.731   4.868  14.724  0.00  0.00    +0.000 A 
ATOM     15  C   UNL     1       5.450   5.258  15.002  0.00  0.00    +0.000 A 
ATOM     16  N   UNL     1       5.257   5.064  16.372  0.00  0.00    +0.000 N 
ATOM     17  N   UNL     1       6.423   4.520  16.848  0.00  0.00    +0.000 NA
ATOM     18  N   UNL     1       7.299   4.388  15.865  0.00  0.00    +0.000 NA
BRANCH  14  19
ATOM     19  C   UNL     1       7.520   5.009  13.473  0.00  0.00    +0.000 C 
BRANCH  19  20
ATOM     20  C   UNL     1       6.852   4.457  12.208  0.00  0.00    +0.000 C 
BRANCH  20  21
ATOM     21  C   UNL     1       6.188   3.101  12.410  0.00  0.00    +0.000 C 
BRANCH  21  22
ATOM     22  C   UNL     1       4.701   3.160  12.045  0.00  0.00    +0.000 C 
BRANCH  22  24
ATOM     23  C   UNL     1       3.047   3.584  10.184  0.00  0.00    +0.000 C 
ATOM     24  C   UNL     1       4.510   3.689  10.629  0.00  0.00    +0.000 C 
ENDBRANCH  22  24
ENDBRANCH  21  22
ENDBRANCH  20  21
ENDBRANCH  19  20
ENDBRANCH  14  19
ENDBRANCH   1  16
TORSDOF 6
ENDMDL
MODEL 6
REMARK VINA RESULT:      -7.6      1.376      1.775
REMARK  Name = 
REMARK  7 active torsions:
REMARK  status: ('A' for Active; 'I' for Inactive)
REMARK    1  A    between atoms: C_1  and  C_2
REMARK    2  A    between atoms: C_2  and  C_3
REMARK    3  A    between atoms: C_3  and  C_4
REMARK    4  A    between atoms: C_4  and  C_5
REMARK    5  A    between atoms: C_5  and  C_6
REMARK    6  A    between atoms: C_6  and  C_7
REMARK    7  A    between atoms: N_9  and  C_10
REMARK                            x       y       z     vdW  Elec       q    Type
REMARK                         _______ _______ _______ _____ _____    ______ ____
ROOT
ATOM      1  C   UNL     1       4.735   4.047  17.324  0.00  0.00    +0.000 A 
ATOM      2  C   UNL     1       4.069   2.887  17.593  0.00  0.00    +0.000 A 
ATOM      3  C   UNL     1       3.051   2.854  18.582  0.00  0.00    +0.000 A 
ATOM      4  N   UNL     1       2.437   1.915  19.270  0.00  0.00    +0.000 NA
ATOM      5  N   UNL     1       1.450   2.565  19.986  0.00  0.00    +0.000 NA
ATOM      6  N   UNL     1       1.406   3.861  19.686  0.00  0.00    +0.000 NA
ATOM      7  N   UNL     1       2.422   4.045  18.833  0.00  0.00    +0.000 N 
ATOM      8  C   UNL     1       2.925   5.264  18.376  0.00  0.00    +0.000 A 
ATOM      9  C   UNL     1       2.146   6.347  18.018  0.00  0.00    +0.000 A 
ATOM     10  C   UNL     1       2.807   7.487  17.569  0.00  0.00    +0.000 A 
ATOM     11  C   UNL     1       4.185   7.607  17.774  0.00  0.00    +0.000 A 
ATOM     12  C   UNL     1       4.932   6.491  18.144  0.00  0.00    +0.000 A 
ATOM     13  C   UNL     1       4.299   5.258  18.118  0.00  0.00    +0.000 A 
ENDROOT
BRANCH   1  16
ATOM     14  C   UNL     1       6.270   4.099  14.047  0.00  0.00    +0.000 A 
ATOM     15  C   UNL     1       5.175   3.823  14.817  0.00  0.00    +0.000 A 
ATOM     16  N   UNL     1       5.514   4.147  16.133  0.00  0.00    +0.000 N 
ATOM     17  N   UNL     1       6.821   4.562  16.099  0.00  0.00    +0.000 NA
ATOM     18  N   UNL     1       7.280   4.519  14.857  0.00  0.00    +0.000 NA
BRANCH  14  19
ATOM     19  C   UNL     1       6.420   4.101  12.569  0.00  0.00    +0.000 C 
BRANCH  19  20
ATOM     20  C   UNL     1       5.889   2.854  11.852  0.00  0.00    +0.000 C 
BRANCH  20  21
ATOM     21  C   UNL     1       4.399   2.919  11.537  0.00  0.00    +0.000 C 
BRANCH  21  22
ATOM     22  C   UNL     1       4.101   4.034  10.528  0.00  0.00    +0.000 C 
BRANCH  22  24
ATOM     23  C   UNL     1       2.278   4.949   9.040  0.00  0.00    +0.000 C 
ATOM     24  C   UNL     1       2.873   3.696   9.693  0.00  0.00    +0.000 C 
ENDBRANCH  22  24
ENDBRANCH  21  22
ENDBRANCH  20  21
ENDBRANCH  19  20
ENDBRANCH  14  19
ENDBRANCH   1  16
TORSDOF 6
ENDMDL
MODEL 7
REMARK VINA RESULT:      -7.6      3.747      7.289
REMARK  Name = 
REMARK  7 active torsions:
REMARK  status: ('A' for Active; 'I' for Inactive)
REMARK    1  A    between atoms: C_1  and  C_2
REMARK    2  A    between atoms: C_2  and  C_3
REMARK    3  A    between atoms: C_3  and  C_4
REMARK    4  A    between atoms: C_4  and  C_5
REMARK    5  A    between atoms: C_5  and  C_6
REMARK    6  A    between atoms: C_6  and  C_7
REMARK    7  A    between atoms: N_9  and  C_10
REMARK                            x       y       z     vdW  Elec       q    Type
REMARK                         _______ _______ _______ _____ _____    ______ ____
ROOT
ATOM      1  C   UNL     1       3.721   6.844  17.947  0.00  0.00    +0.000 A 
ATOM      2  C   UNL     1       4.675   6.975  16.982  0.00  0.00    +0.000 A 
ATOM      3  C   UNL     1       5.405   5.843  16.530  0.00  0.00    +0.000 A 
ATOM      4  N   UNL     1       6.526   5.648  15.869  0.00  0.00    +0.000 NA
ATOM      5  N   UNL     1       6.596   4.285  15.653  0.00  0.00    +0.000 NA
ATOM      6  N   UNL     1       5.506   3.665  16.100  0.00  0.00    +0.000 NA
ATOM      7  N   UNL     1       4.778   4.633  16.672  0.00  0.00    +0.000 N 
ATOM      8  C   UNL     1       3.639   4.472  17.462  0.00  0.00    +0.000 A 
ATOM      9  C   UNL     1       2.627   3.569  17.201  0.00  0.00    +0.000 A 
ATOM     10  C   UNL     1       1.551   3.544  18.084  0.00  0.00    +0.000 A 
ATOM     11  C   UNL     1       1.663   4.186  19.320  0.00  0.00    +0.000 A 
ATOM     12  C   UNL     1       2.705   5.083  19.545  0.00  0.00    +0.000 A 
ATOM     13  C   UNL     1       3.491   5.440  18.461  0.00  0.00    +0.000 A 
ENDROOT
BRANCH   1  16
ATOM     14  C   UNL     1       1.251   9.285  18.967  0.00  0.00    +0.000 A 
ATOM     15  C   UNL     1       1.949   8.143  19.251  0.00  0.00    +0.000 A 
ATOM     16  N   UNL     1       2.790   7.904  18.161  0.00  0.00    +0.000 N 
ATOM     17  N   UNL     1       2.523   8.892  17.248  0.00  0.00    +0.000 NA
ATOM     18  N   UNL     1       1.594   9.709  17.720  0.00  0.00    +0.000 NA
BRANCH  14  19
ATOM     19  C   UNL     1       0.346  10.088  19.830  0.00  0.00    +0.000 C 
BRANCH  19  20
ATOM     20  C   UNL     1      -0.584  11.055  19.087  0.00  0.00    +0.000 C 
BRANCH  20  21
ATOM     21  C   UNL     1      -1.852  10.396  18.557  0.00  0.00    +0.000 C 
BRANCH  21  22
ATOM     22  C   UNL     1      -2.262  11.002  17.211  0.00  0.00    +0.000 C 
BRANCH  22  24
ATOM     23  C   UNL     1      -3.301  10.439  14.979  0.00  0.00    +0.000 C 
ATOM     24  C   UNL     1      -2.498   9.912  16.174  0.00  0.00    +0.000 C 
ENDBRANCH  22  24
ENDBRANCH  21  22
ENDBRANCH  20  21
ENDBRANCH  19  20
ENDBRANCH  14  19
ENDBRANCH   1  16
TORSDOF 6
ENDMDL
MODEL 8
REMARK VINA RESULT:      -7.6      3.879      7.474
REMARK  Name = 
REMARK  7 active torsions:
REMARK  status: ('A' for Active; 'I' for Inactive)
REMARK    1  A    between atoms: C_1  and  C_2
REMARK    2  A    between atoms: C_2  and  C_3
REMARK    3  A    between atoms: C_3  and  C_4
REMARK    4  A    between atoms: C_4  and  C_5
REMARK    5  A    between atoms: C_5  and  C_6
REMARK    6  A    between atoms: C_6  and  C_7
REMARK    7  A    between atoms: N_9  and  C_10
REMARK                            x       y       z     vdW  Elec       q    Type
REMARK                         _______ _______ _______ _____ _____    ______ ____
ROOT
ATOM      1  C   UNL     1       3.024   6.883  18.660  0.00  0.00    +0.000 A 
ATOM      2  C   UNL     1       3.839   6.967  17.570  0.00  0.00    +0.000 A 
ATOM      3  C   UNL     1       4.510   5.815  17.080  0.00  0.00    +0.000 A 
ATOM      4  N   UNL     1       5.533   5.588  16.284  0.00  0.00    +0.000 NA
ATOM      5  N   UNL     1       5.584   4.217  16.128  0.00  0.00    +0.000 NA
ATOM      6  N   UNL     1       4.569   3.619  16.747  0.00  0.00    +0.000 NA
ATOM      7  N   UNL     1       3.917   4.613  17.364  0.00  0.00    +0.000 N 
ATOM      8  C   UNL     1       2.897   4.490  18.307  0.00  0.00    +0.000 A 
ATOM      9  C   UNL     1       1.866   3.574  18.229  0.00  0.00    +0.000 A 
ATOM     10  C   UNL     1       0.918   3.591  19.250  0.00  0.00    +0.000 A 
ATOM     11  C   UNL     1       1.190   4.294  20.427  0.00  0.00    +0.000 A 
ATOM     12  C   UNL     1       2.246   5.203  20.465  0.00  0.00    +0.000 A 
ATOM     13  C   UNL     1       2.876   5.506  19.268  0.00  0.00    +0.000 A 
ENDROOT
BRANCH   1  16
ATOM     14  C   UNL     1       0.772   9.709  18.850  0.00  0.00    +0.000 A 
ATOM     15  C   UNL     1       1.573   8.906  18.087  0.00  0.00    +0.000 A 
ATOM     16  N   UNL     1       2.122   7.951  18.946  0.00  0.00    +0.000 N 
ATOM     17  N   UNL     1       1.660   8.255  20.201  0.00  0.00    +0.000 NA
ATOM     18  N   UNL     1       0.866   9.314  20.149  0.00  0.00    +0.000 NA
BRANCH  14  19
ATOM     19  C   UNL     1      -0.176  10.777  18.439  0.00  0.00    +0.000 C 
BRANCH  19  20
ATOM     20  C   UNL     1      -1.644  10.533  18.811  0.00  0.00    +0.000 C 
BRANCH  20  21
ATOM     21  C   UNL     1      -2.443   9.835  17.717  0.00  0.00    +0.000 C 
BRANCH  21  22
ATOM     22  C   UNL     1      -2.349  10.605  16.395  0.00  0.00    +0.000 C 
BRANCH  22  24
ATOM     23  C   UNL     1      -4.680  11.479  16.814  0.00  0.00    +0.000 C 
ATOM     24  C   UNL     1      -3.732  10.832  15.799  0.00  0.00    +0.000 C 
ENDBRANCH  22  24
ENDBRANCH  21  22
ENDBRANCH  20  21
ENDBRANCH  19  20
ENDBRANCH  14  19
ENDBRANCH   1  16
TORSDOF 6
ENDMDL
MODEL 9
REMARK VINA RESULT:      -7.5      2.154      3.456
REMARK  Name = 
REMARK  7 active torsions:
REMARK  status: ('A' for Active; 'I' for Inactive)
REMARK    1  A    between atoms: C_1  and  C_2
REMARK    2  A    between atoms: C_2  and  C_3
REMARK    3  A    between atoms: C_3  and  C_4
REMARK    4  A    between atoms: C_4  and  C_5
REMARK    5  A    between atoms: C_5  and  C_6
REMARK    6  A    between atoms: C_6  and  C_7
REMARK    7  A    between atoms: N_9  and  C_10
REMARK                            x       y       z     vdW  Elec       q    Type
REMARK                         _______ _______ _______ _____ _____    ______ ____
ROOT
ATOM      1  C   UNL     1       3.038   5.555  17.987  0.00  0.00    +0.000 A 
ATOM      2  C   UNL     1       3.106   6.892  18.247  0.00  0.00    +0.000 A 
ATOM      3  C   UNL     1       2.262   7.479  19.228  0.00  0.00    +0.000 A 
ATOM      4  N   UNL     1       1.869   8.700  19.523  0.00  0.00    +0.000 NA
ATOM      5  N   UNL     1       1.136   8.582  20.688  0.00  0.00    +0.000 NA
ATOM      6  N   UNL     1       1.145   7.331  21.143  0.00  0.00    +0.000 NA
ATOM      7  N   UNL     1       1.822   6.640  20.217  0.00  0.00    +0.000 N 
ATOM      8  C   UNL     1       1.941   5.253  20.124  0.00  0.00    +0.000 A 
ATOM      9  C   UNL     1       2.131   4.410  21.202  0.00  0.00    +0.000 A 
ATOM     10  C   UNL     1       2.243   3.048  20.936  0.00  0.00    +0.000 A 
ATOM     11  C   UNL     1       1.871   2.562  19.679  0.00  0.00    +0.000 A 
ATOM     12  C   UNL     1       1.681   3.448  18.620  0.00  0.00    +0.000 A 
ATOM     13  C   UNL     1       2.046   4.771  18.816  0.00  0.00    +0.000 A 
ENDROOT
BRANCH   1  16
ATOM     14  C   UNL     1       5.761   4.459  15.870  0.00  0.00    +0.000 A 
ATOM     15  C   UNL     1       4.928   5.467  16.270  0.00  0.00    +0.000 A 
ATOM     16  N   UNL     1       4.088   4.931  17.248  0.00  0.00    +0.000 N 
ATOM     17  N   UNL     1       4.426   3.606  17.359  0.00  0.00    +0.000 NA
ATOM     18  N   UNL     1       5.414   3.317  16.526  0.00  0.00    +0.000 NA
BRANCH  14  19
ATOM     19  C   UNL     1       6.951   4.501  14.981  0.00  0.00    +0.000 C 
BRANCH  19  20
ATOM     20  C   UNL     1       6.655   4.384  13.480  0.00  0.00    +0.000 C 
BRANCH  20  21
ATOM     21  C   UNL     1       5.267   3.835  13.173  0.00  0.00    +0.000 C 
BRANCH  21  22
ATOM     22  C   UNL     1       5.255   3.101  11.828  0.00  0.00    +0.000 C 
BRANCH  22  24
ATOM     23  C   UNL     1       6.502   1.040  11.068  0.00  0.00    +0.000 C 
ATOM     24  C   UNL     1       6.621   2.498  11.526  0.00  0.00    +0.000 C 
ENDBRANCH  22  24
ENDBRANCH  21  22
ENDBRANCH  20  21
ENDBRANCH  19  20
ENDBRANCH  14  19
ENDBRANCH   1  16
TORSDOF 6
ENDMDL
