MODEL 1
REMARK VINA RESULT:      -8.3      0.000      0.000
REMARK  Name = 
REMARK  3 active torsions:
REMARK  status: ('A' for Active; 'I' for Inactive)
REMARK    1  A    between atoms: C_6  and  C_7
REMARK    2  A    between atoms: C_11  and  N_12
REMARK    3  A    between atoms: N_19  and  O_20
REMARK                            x       y       z     vdW  Elec       q    Type
REMARK                         _______ _______ _______ _____ _____    ______ ____
ROOT
ATOM      1  O   UNL     1       1.916   2.736  21.860  0.00  0.00    +0.000 OA
ATOM      2  C   UNL     1       2.262   3.072  20.731  0.00  0.00    +0.000 A 
ATOM      3  N   UNL     1       3.587   3.365  20.498  0.00  0.00    +0.000 N 
ATOM      4  C   UNL     1       4.067   3.829  19.276  0.00  0.00    +0.000 A 
ATOM      5  C   UNL     1       5.404   4.192  19.161  0.00  0.00    +0.000 A 
ATOM      6  C   UNL     1       5.920   4.747  17.968  0.00  0.00    +0.000 A 
ATOM      7  C   UNL     1       5.042   4.872  16.864  0.00  0.00    +0.000 A 
ATOM      8  C   UNL     1       3.693   4.466  16.976  0.00  0.00    +0.000 A 
ATOM      9  C   UNL     1       3.213   3.968  18.189  0.00  0.00    +0.000 A 
ATOM     10  C   UNL     1       1.790   3.627  18.365  0.00  0.00    +0.000 A 
ATOM     11  O   UNL     1       0.989   3.744  17.442  0.00  0.00    +0.000 OA
ATOM     12  N   UNL     1       1.434   3.207  19.633  0.00  0.00    +0.000 N 
ATOM     13  H   UNL     1       4.193   3.273  21.306  0.00  0.00    +0.000 HD
ENDROOT
BRANCH   6  14
ATOM     14  C   UNL     1       7.379   5.164  18.003  0.00  0.00    +0.000 C 
ATOM     15  F   UNL     1       7.811   5.356  19.291  0.00  0.00    +0.000 F 
ATOM     16  F   UNL     1       8.222   4.230  17.496  0.00  0.00    +0.000 F 
ATOM     17  F   UNL     1       7.630   6.345  17.385  0.00  0.00    +0.000 F 
ENDBRANCH   6  14
BRANCH   7  18
ATOM     18  N   UNL     1       5.451   5.431  15.559  0.00  0.00    +0.000 N 
ATOM     19  O   UNL     1       5.239   6.632  15.364  0.00  0.00    +0.000 OA
ATOM     20  O   UNL     1       5.979   4.667  14.746  0.00  0.00    +0.000 OA
ENDBRANCH   7  18
BRANCH  12  21
ATOM     21  O   UNL     1       0.059   2.953  19.827  0.00  0.00    +0.000 OA
ATOM     22  H   UNL     1      -0.004   2.914  20.804  0.00  0.00    +0.000 HD
ENDBRANCH  12  21
TORSDOF 3
ENDMDL
MODEL 2
REMARK VINA RESULT:      -8.3      0.097      1.097
REMARK  Name = 
REMARK  3 active torsions:
REMARK  status: ('A' for Active; 'I' for Inactive)
REMARK    1  A    between atoms: C_6  and  C_7
REMARK    2  A    between atoms: C_11  and  N_12
REMARK    3  A    between atoms: N_19  and  O_20
REMARK                            x       y       z     vdW  Elec       q    Type
REMARK                         _______ _______ _______ _____ _____    ______ ____
ROOT
ATOM      1  O   UNL     1       2.003   2.762  21.875  0.00  0.00    +0.000 OA
ATOM      2  C   UNL     1       2.333   3.113  20.745  0.00  0.00    +0.000 A 
ATOM      3  N   UNL     1       3.657   3.397  20.495  0.00  0.00    +0.000 N 
ATOM      4  C   UNL     1       4.120   3.876  19.272  0.00  0.00    +0.000 A 
ATOM      5  C   UNL     1       5.459   4.227  19.140  0.00  0.00    +0.000 A 
ATOM      6  C   UNL     1       5.960   4.796  17.946  0.00  0.00    +0.000 A 
ATOM      7  C   UNL     1       5.064   4.947  16.860  0.00  0.00    +0.000 A 
ATOM      8  C   UNL     1       3.713   4.552  16.989  0.00  0.00    +0.000 A 
ATOM      9  C   UNL     1       3.250   4.040  18.201  0.00  0.00    +0.000 A 
ATOM     10  C   UNL     1       1.827   3.709  18.397  0.00  0.00    +0.000 A 
ATOM     11  O   UNL     1       1.012   3.848  17.490  0.00  0.00    +0.000 OA
ATOM     12  N   UNL     1       1.488   3.272  19.664  0.00  0.00    +0.000 N 
ATOM     13  H   UNL     1       4.276   3.287  21.290  0.00  0.00    +0.000 HD
ENDROOT
BRANCH   6  14
ATOM     14  C   UNL     1       7.424   5.199  17.963  0.00  0.00    +0.000 C 
ATOM     15  F   UNL     1       8.209   4.248  17.362  0.00  0.00    +0.000 F 
ATOM     16  F   UNL     1       7.680   6.339  17.274  0.00  0.00    +0.000 F 
ATOM     17  F   UNL     1       7.946   5.327  19.208  0.00  0.00    +0.000 F 
ENDBRANCH   6  14
BRANCH   7  18
ATOM     18  N   UNL     1       5.457   5.522  15.556  0.00  0.00    +0.000 N 
ATOM     19  O   UNL     1       5.981   4.762  14.736  0.00  0.00    +0.000 OA
ATOM     20  O   UNL     1       5.235   6.721  15.366  0.00  0.00    +0.000 OA
ENDBRANCH   7  18
BRANCH  12  21
ATOM     21  O   UNL     1       0.115   3.029  19.878  0.00  0.00    +0.000 OA
ATOM     22  H   UNL     1      -0.290   3.868  19.579  0.00  0.00    +0.000 HD
ENDBRANCH  12  21
TORSDOF 3
ENDMDL
MODEL 3
REMARK VINA RESULT:      -8.1      3.087      5.806
REMARK  Name = 
REMARK  3 active torsions:
REMARK  status: ('A' for Active; 'I' for Inactive)
REMARK    1  A    between atoms: C_6  and  C_7
REMARK    2  A    between atoms: C_11  and  N_12
REMARK    3  A    between atoms: N_19  and  O_20
REMARK                            x       y       z     vdW  Elec       q    Type
REMARK                         _______ _______ _______ _____ _____    ______ ____
ROOT
ATOM      1  O   UNL     1       7.345   7.653  16.943  0.00  0.00    +0.000 OA
ATOM      2  C   UNL     1       6.535   6.731  16.979  0.00  0.00    +0.000 A 
ATOM      3  N   UNL     1       5.504   6.783  17.890  0.00  0.00    +0.000 N 
ATOM      4  C   UNL     1       4.581   5.755  18.064  0.00  0.00    +0.000 A 
ATOM      5  C   UNL     1       3.632   5.854  19.075  0.00  0.00    +0.000 A 
ATOM      6  C   UNL     1       2.728   4.801  19.346  0.00  0.00    +0.000 A 
ATOM      7  C   UNL     1       2.779   3.656  18.514  0.00  0.00    +0.000 A 
ATOM      8  C   UNL     1       3.722   3.579  17.464  0.00  0.00    +0.000 A 
ATOM      9  C   UNL     1       4.628   4.621  17.262  0.00  0.00    +0.000 A 
ATOM     10  C   UNL     1       5.683   4.528  16.238  0.00  0.00    +0.000 A 
ATOM     11  O   UNL     1       5.780   3.543  15.512  0.00  0.00    +0.000 OA
ATOM     12  N   UNL     1       6.555   5.599  16.186  0.00  0.00    +0.000 N 
ATOM     13  H   UNL     1       5.494   7.610  18.477  0.00  0.00    +0.000 HD
ENDROOT
BRANCH   6  14
ATOM     14  C   UNL     1       1.793   5.012  20.523  0.00  0.00    +0.000 C 
ATOM     15  F   UNL     1       2.220   4.321  21.628  0.00  0.00    +0.000 F 
ATOM     16  F   UNL     1       1.722   6.303  20.933  0.00  0.00    +0.000 F 
ATOM     17  F   UNL     1       0.531   4.561  20.313  0.00  0.00    +0.000 F 
ENDBRANCH   6  14
BRANCH   7  18
ATOM     18  N   UNL     1       1.890   2.487  18.684  0.00  0.00    +0.000 N 
ATOM     19  O   UNL     1       0.793   2.522  18.118  0.00  0.00    +0.000 OA
ATOM     20  O   UNL     1       2.298   1.550  19.376  0.00  0.00    +0.000 OA
ENDBRANCH   7  18
BRANCH  12  21
ATOM     21  O   UNL     1       7.613   5.481  15.259  0.00  0.00    +0.000 OA
ATOM     22  H   UNL     1       8.353   5.906  15.740  0.00  0.00    +0.000 HD
ENDBRANCH  12  21
TORSDOF 3
ENDMDL
MODEL 4
REMARK VINA RESULT:      -8.1      2.130      2.939
REMARK  Name = 
REMARK  3 active torsions:
REMARK  status: ('A' for Active; 'I' for Inactive)
REMARK    1  A    between atoms: C_6  and  C_7
REMARK    2  A    between atoms: C_11  and  N_12
REMARK    3  A    between atoms: N_19  and  O_20
REMARK                            x       y       z     vdW  Elec       q    Type
REMARK                         _______ _______ _______ _____ _____    ______ ____
ROOT
ATOM      1  O   UNL     1       0.215   2.046  18.313  0.00  0.00    +0.000 OA
ATOM      2  C   UNL     1       1.174   2.763  18.583  0.00  0.00    +0.000 A 
ATOM      3  N   UNL     1       2.144   2.967  17.626  0.00  0.00    +0.000 N 
ATOM      4  C   UNL     1       3.306   3.698  17.857  0.00  0.00    +0.000 A 
ATOM      5  C   UNL     1       4.275   3.771  16.862  0.00  0.00    +0.000 A 
ATOM      6  C   UNL     1       5.508   4.430  17.077  0.00  0.00    +0.000 A 
ATOM      7  C   UNL     1       5.706   5.068  18.325  0.00  0.00    +0.000 A 
ATOM      8  C   UNL     1       4.701   5.022  19.318  0.00  0.00    +0.000 A 
ATOM      9  C   UNL     1       3.519   4.320  19.081  0.00  0.00    +0.000 A 
ATOM     10  C   UNL     1       2.494   4.173  20.130  0.00  0.00    +0.000 A 
ATOM     11  O   UNL     1       2.637   4.689  21.234  0.00  0.00    +0.000 OA
ATOM     12  N   UNL     1       1.402   3.399  19.788  0.00  0.00    +0.000 N 
ATOM     13  H   UNL     1       1.980   2.495  16.745  0.00  0.00    +0.000 HD
ENDROOT
BRANCH   6  14
ATOM     14  C   UNL     1       6.503   4.371  15.932  0.00  0.00    +0.000 C 
ATOM     15  F   UNL     1       6.506   5.541  15.215  0.00  0.00    +0.000 F 
ATOM     16  F   UNL     1       7.787   4.215  16.338  0.00  0.00    +0.000 F 
ATOM     17  F   UNL     1       6.228   3.414  15.011  0.00  0.00    +0.000 F 
ENDBRANCH   6  14
BRANCH   7  18
ATOM     18  N   UNL     1       6.944   5.794  18.679  0.00  0.00    +0.000 N 
ATOM     19  O   UNL     1       7.666   5.295  19.547  0.00  0.00    +0.000 OA
ATOM     20  O   UNL     1       7.180   6.851  18.087  0.00  0.00    +0.000 OA
ENDBRANCH   7  18
BRANCH  12  21
ATOM     21  O   UNL     1       0.455   3.192  20.814  0.00  0.00    +0.000 OA
ATOM     22  H   UNL     1       1.025   3.128  21.607  0.00  0.00    +0.000 HD
ENDBRANCH  12  21
TORSDOF 3
ENDMDL
MODEL 5
REMARK VINA RESULT:      -8.1      2.115      2.804
REMARK  Name = 
REMARK  3 active torsions:
REMARK  status: ('A' for Active; 'I' for Inactive)
REMARK    1  A    between atoms: C_6  and  C_7
REMARK    2  A    between atoms: C_11  and  N_12
REMARK    3  A    between atoms: N_19  and  O_20
REMARK                            x       y       z     vdW  Elec       q    Type
REMARK                         _______ _______ _______ _____ _____    ______ ____
ROOT
ATOM      1  O   UNL     1       0.257   1.982  18.350  0.00  0.00    +0.000 OA
ATOM      2  C   UNL     1       1.205   2.719  18.610  0.00  0.00    +0.000 A 
ATOM      3  N   UNL     1       2.170   2.928  17.651  0.00  0.00    +0.000 N 
ATOM      4  C   UNL     1       3.320   3.681  17.872  0.00  0.00    +0.000 A 
ATOM      5  C   UNL     1       4.287   3.758  16.876  0.00  0.00    +0.000 A 
ATOM      6  C   UNL     1       5.509   4.439  17.082  0.00  0.00    +0.000 A 
ATOM      7  C   UNL     1       5.698   5.095  18.322  0.00  0.00    +0.000 A 
ATOM      8  C   UNL     1       4.694   5.045  19.316  0.00  0.00    +0.000 A 
ATOM      9  C   UNL     1       3.524   4.320  19.089  0.00  0.00    +0.000 A 
ATOM     10  C   UNL     1       2.502   4.169  20.140  0.00  0.00    +0.000 A 
ATOM     11  O   UNL     1       2.637   4.699  21.238  0.00  0.00    +0.000 OA
ATOM     12  N   UNL     1       1.422   3.372  19.808  0.00  0.00    +0.000 N 
ATOM     13  H   UNL     1       2.014   2.442  16.775  0.00  0.00    +0.000 HD
ENDROOT
BRANCH   6  14
ATOM     14  C   UNL     1       6.504   4.384  15.937  0.00  0.00    +0.000 C 
ATOM     15  F   UNL     1       7.775   4.141  16.393  0.00  0.00    +0.000 F 
ATOM     16  F   UNL     1       6.260   3.383  15.055  0.00  0.00    +0.000 F 
ATOM     17  F   UNL     1       6.612   5.545  15.244  0.00  0.00    +0.000 F 
ENDBRANCH   6  14
BRANCH   7  18
ATOM     18  N   UNL     1       6.923   5.846  18.667  0.00  0.00    +0.000 N 
ATOM     19  O   UNL     1       7.139   6.893  18.049  0.00  0.00    +0.000 OA
ATOM     20  O   UNL     1       7.652   5.384  19.549  0.00  0.00    +0.000 OA
ENDBRANCH   7  18
BRANCH  12  21
ATOM     21  O   UNL     1       0.480   3.162  20.837  0.00  0.00    +0.000 OA
ATOM     22  H   UNL     1       0.025   4.028  20.877  0.00  0.00    +0.000 HD
ENDBRANCH  12  21
TORSDOF 3
ENDMDL
MODEL 6
REMARK VINA RESULT:      -8.1      3.070      5.799
REMARK  Name = 
REMARK  3 active torsions:
REMARK  status: ('A' for Active; 'I' for Inactive)
REMARK    1  A    between atoms: C_6  and  C_7
REMARK    2  A    between atoms: C_11  and  N_12
REMARK    3  A    between atoms: N_19  and  O_20
REMARK                            x       y       z     vdW  Elec       q    Type
REMARK                         _______ _______ _______ _____ _____    ______ ____
ROOT
ATOM      1  O   UNL     1       7.427   7.599  16.942  0.00  0.00    +0.000 OA
ATOM      2  C   UNL     1       6.596   6.696  16.976  0.00  0.00    +0.000 A 
ATOM      3  N   UNL     1       5.589   6.752  17.914  0.00  0.00    +0.000 N 
ATOM      4  C   UNL     1       4.645   5.743  18.086  0.00  0.00    +0.000 A 
ATOM      5  C   UNL     1       3.723   5.840  19.122  0.00  0.00    +0.000 A 
ATOM      6  C   UNL     1       2.799   4.803  19.391  0.00  0.00    +0.000 A 
ATOM      7  C   UNL     1       2.802   3.678  18.531  0.00  0.00    +0.000 A 
ATOM      8  C   UNL     1       3.717   3.603  17.456  0.00  0.00    +0.000 A 
ATOM      9  C   UNL     1       4.644   4.627  17.257  0.00  0.00    +0.000 A 
ATOM     10  C   UNL     1       5.672   4.534  16.206  0.00  0.00    +0.000 A 
ATOM     11  O   UNL     1       5.726   3.564  15.455  0.00  0.00    +0.000 OA
ATOM     12  N   UNL     1       6.569   5.584  16.157  0.00  0.00    +0.000 N 
ATOM     13  H   UNL     1       5.614   7.564  18.520  0.00  0.00    +0.000 HD
ENDROOT
BRANCH   6  14
ATOM     14  C   UNL     1       1.899   5.008  20.595  0.00  0.00    +0.000 C 
ATOM     15  F   UNL     1       0.616   4.599  20.333  0.00  0.00    +0.000 F 
ATOM     16  F   UNL     1       2.273   4.286  21.681  0.00  0.00    +0.000 F 
ATOM     17  F   UNL     1       1.768   6.305  20.971  0.00  0.00    +0.000 F 
ENDBRANCH   6  14
BRANCH   7  18
ATOM     18  N   UNL     1       1.889   2.528  18.695  0.00  0.00    +0.000 N 
ATOM     19  O   UNL     1       2.279   1.589  19.396  0.00  0.00    +0.000 OA
ATOM     20  O   UNL     1       0.795   2.576  18.125  0.00  0.00    +0.000 OA
ENDBRANCH   7  18
BRANCH  12  21
ATOM     21  O   UNL     1       7.601   5.462  15.202  0.00  0.00    +0.000 OA
ATOM     22  H   UNL     1       7.222   4.813  14.575  0.00  0.00    +0.000 HD
ENDBRANCH  12  21
TORSDOF 3
ENDMDL
MODEL 7
REMARK VINA RESULT:      -7.9      2.122      2.806
REMARK  Name = 
REMARK  3 active torsions:
REMARK  status: ('A' for Active; 'I' for Inactive)
REMARK    1  A    between atoms: C_6  and  C_7
REMARK    2  A    between atoms: C_11  and  N_12
REMARK    3  A    between atoms: N_19  and  O_20
REMARK                            x       y       z     vdW  Elec       q    Type
REMARK                         _______ _______ _______ _____ _____    ______ ____
ROOT
ATOM      1  O   UNL     1       0.396   2.118  18.432  0.00  0.00    +0.000 OA
ATOM      2  C   UNL     1       1.260   2.989  18.484  0.00  0.00    +0.000 A 
ATOM      3  N   UNL     1       2.238   3.018  17.514  0.00  0.00    +0.000 N 
ATOM      4  C   UNL     1       3.303   3.915  17.526  0.00  0.00    +0.000 A 
ATOM      5  C   UNL     1       4.296   3.807  16.560  0.00  0.00    +0.000 A 
ATOM      6  C   UNL     1       5.440   4.639  16.578  0.00  0.00    +0.000 A 
ATOM      7  C   UNL     1       5.518   5.631  17.585  0.00  0.00    +0.000 A 
ATOM      8  C   UNL     1       4.486   5.760  18.542  0.00  0.00    +0.000 A 
ATOM      9  C   UNL     1       3.399   4.886  18.516  0.00  0.00    +0.000 A 
ATOM     10  C   UNL     1       2.355   4.932  19.556  0.00  0.00    +0.000 A 
ATOM     11  O   UNL     1       2.398   5.760  20.461  0.00  0.00    +0.000 OA
ATOM     12  N   UNL     1       1.369   3.971  19.451  0.00  0.00    +0.000 N 
ATOM     13  H   UNL     1       2.162   2.294  16.809  0.00  0.00    +0.000 HD
ENDROOT
BRANCH   6  14
ATOM     14  C   UNL     1       6.479   4.366  15.506  0.00  0.00    +0.000 C 
ATOM     15  F   UNL     1       6.577   5.417  14.629  0.00  0.00    +0.000 F 
ATOM     16  F   UNL     1       7.735   4.211  15.995  0.00  0.00    +0.000 F 
ATOM     17  F   UNL     1       6.194   3.299  14.720  0.00  0.00    +0.000 F 
ENDBRANCH   6  14
BRANCH   7  18
ATOM     18  N   UNL     1       6.654   6.568  17.717  0.00  0.00    +0.000 N 
ATOM     19  O   UNL     1       6.653   7.566  16.989  0.00  0.00    +0.000 OA
ATOM     20  O   UNL     1       7.529   6.298  18.544  0.00  0.00    +0.000 OA
ENDBRANCH   7  18
BRANCH  12  21
ATOM     21  O   UNL     1       0.411   3.962  20.487  0.00  0.00    +0.000 OA
ATOM     22  H   UNL     1       0.652   4.765  20.994  0.00  0.00    +0.000 HD
ENDBRANCH  12  21
TORSDOF 3
ENDMDL
MODEL 8
REMARK VINA RESULT:      -7.9      2.111      2.745
REMARK  Name = 
REMARK  3 active torsions:
REMARK  status: ('A' for Active; 'I' for Inactive)
REMARK    1  A    between atoms: C_6  and  C_7
REMARK    2  A    between atoms: C_11  and  N_12
REMARK    3  A    between atoms: N_19  and  O_20
REMARK                            x       y       z     vdW  Elec       q    Type
REMARK                         _______ _______ _______ _____ _____    ______ ____
ROOT
ATOM      1  O   UNL     1       0.404   2.108  18.408  0.00  0.00    +0.000 OA
ATOM      2  C   UNL     1       1.267   2.979  18.479  0.00  0.00    +0.000 A 
ATOM      3  N   UNL     1       2.249   3.025  17.514  0.00  0.00    +0.000 N 
ATOM      4  C   UNL     1       3.314   3.921  17.546  0.00  0.00    +0.000 A 
ATOM      5  C   UNL     1       4.311   3.831  16.582  0.00  0.00    +0.000 A 
ATOM      6  C   UNL     1       5.455   4.662  16.620  0.00  0.00    +0.000 A 
ATOM      7  C   UNL     1       5.528   5.637  17.644  0.00  0.00    +0.000 A 
ATOM      8  C   UNL     1       4.492   5.749  18.599  0.00  0.00    +0.000 A 
ATOM      9  C   UNL     1       3.405   4.875  18.553  0.00  0.00    +0.000 A 
ATOM     10  C   UNL     1       2.357   4.903  19.589  0.00  0.00    +0.000 A 
ATOM     11  O   UNL     1       2.395   5.715  20.509  0.00  0.00    +0.000 OA
ATOM     12  N   UNL     1       1.371   3.943  19.463  0.00  0.00    +0.000 N 
ATOM     13  H   UNL     1       2.176   2.313  16.797  0.00  0.00    +0.000 HD
ENDROOT
BRANCH   6  14
ATOM     14  C   UNL     1       6.499   4.409  15.548  0.00  0.00    +0.000 C 
ATOM     15  F   UNL     1       7.740   4.216  16.098  0.00  0.00    +0.000 F 
ATOM     16  F   UNL     1       6.268   3.287  14.822  0.00  0.00    +0.000 F 
ATOM     17  F   UNL     1       6.669   5.444  14.689  0.00  0.00    +0.000 F 
ENDBRANCH   6  14
BRANCH   7  18
ATOM     18  N   UNL     1       6.662   6.572  17.797  0.00  0.00    +0.000 N 
ATOM     19  O   UNL     1       7.466   6.345  18.707  0.00  0.00    +0.000 OA
ATOM     20  O   UNL     1       6.739   7.518  17.008  0.00  0.00    +0.000 OA
ENDBRANCH   7  18
BRANCH  12  21
ATOM     21  O   UNL     1       0.409   3.917  20.495  0.00  0.00    +0.000 OA
ATOM     22  H   UNL     1      -0.044   4.777  20.373  0.00  0.00    +0.000 HD
ENDBRANCH  12  21
TORSDOF 3
ENDMDL
MODEL 9
REMARK VINA RESULT:      -7.7      0.922      1.234
REMARK  Name = 
REMARK  3 active torsions:
REMARK  status: ('A' for Active; 'I' for Inactive)
REMARK    1  A    between atoms: C_6  and  C_7
REMARK    2  A    between atoms: C_11  and  N_12
REMARK    3  A    between atoms: N_19  and  O_20
REMARK                            x       y       z     vdW  Elec       q    Type
REMARK                         _______ _______ _______ _____ _____    ______ ____
ROOT
ATOM      1  O   UNL     1       1.426   2.778  21.260  0.00  0.00    +0.000 OA
ATOM      2  C   UNL     1       2.073   3.030  20.247  0.00  0.00    +0.000 A 
ATOM      3  N   UNL     1       3.358   3.508  20.378  0.00  0.00    +0.000 N 
ATOM      4  C   UNL     1       4.145   3.896  19.297  0.00  0.00    +0.000 A 
ATOM      5  C   UNL     1       5.395   4.459  19.530  0.00  0.00    +0.000 A 
ATOM      6  C   UNL     1       6.196   4.946  18.471  0.00  0.00    +0.000 A 
ATOM      7  C   UNL     1       5.710   4.792  17.150  0.00  0.00    +0.000 A 
ATOM      8  C   UNL     1       4.455   4.185  16.918  0.00  0.00    +0.000 A 
ATOM      9  C   UNL     1       3.675   3.762  17.996  0.00  0.00    +0.000 A 
ATOM     10  C   UNL     1       2.322   3.213  17.792  0.00  0.00    +0.000 A 
ATOM     11  O   UNL     1       1.852   3.086  16.665  0.00  0.00    +0.000 OA
ATOM     12  N   UNL     1       1.631   2.894  18.945  0.00  0.00    +0.000 N 
ATOM     13  H   UNL     1       3.679   3.614  21.333  0.00  0.00    +0.000 HD
ENDROOT
BRANCH   6  14
ATOM     14  C   UNL     1       7.506   5.600  18.873  0.00  0.00    +0.000 C 
ATOM     15  F   UNL     1       8.577   4.803  18.558  0.00  0.00    +0.000 F 
ATOM     16  F   UNL     1       7.747   6.769  18.229  0.00  0.00    +0.000 F 
ATOM     17  F   UNL     1       7.628   5.815  20.206  0.00  0.00    +0.000 F 
ENDBRANCH   6  14
BRANCH   7  18
ATOM     18  N   UNL     1       6.446   5.251  15.954  0.00  0.00    +0.000 N 
ATOM     19  O   UNL     1       5.990   6.225  15.347  0.00  0.00    +0.000 OA
ATOM     20  O   UNL     1       7.469   4.637  15.637  0.00  0.00    +0.000 OA
ENDBRANCH   7  18
BRANCH  12  21
ATOM     21  O   UNL     1       0.308   2.441  18.758  0.00  0.00    +0.000 OA
ATOM     22  H   UNL     1      -0.200   3.056  19.326  0.00  0.00    +0.000 HD
ENDBRANCH  12  21
TORSDOF 3
ENDMDL
