MODEL 1
REMARK VINA RESULT:      -8.2      0.000      0.000
REMARK  Name = 
REMARK  9 active torsions:
REMARK  status: ('A' for Active; 'I' for Inactive)
REMARK    1  A    between atoms: C_1  and  O_2
REMARK    2  A    between atoms: O_2  and  C_3
REMARK    3  A    between atoms: C_3  and  C_4
REMARK    4  A    between atoms: N_7  and  S_8
REMARK    5  A    between atoms: S_8  and  C_11
REMARK    6  A    between atoms: C_11  and  C_12
REMARK    7  A    between atoms: C_15  and  N_16
REMARK    8  A    between atoms: N_16  and  C_17
REMARK    9  A    between atoms: N_16  and  C_18
REMARK                            x       y       z     vdW  Elec       q    Type
REMARK                         _______ _______ _______ _____ _____    ______ ____
ROOT
ATOM      1  C   UNL     1       1.986   8.067  19.955  0.00  0.00    +0.000 C 
ATOM      2  C   UNL     1       1.635   6.624  20.379  0.00  0.00    +0.000 C 
ATOM      3  C   UNL     1       2.552   5.533  19.781  0.00  0.00    +0.000 C 
ATOM      4  C   UNL     1       2.645   5.642  18.253  0.00  0.00    +0.000 C 
ATOM      5  C   UNL     1       3.196   7.033  17.909  0.00  0.00    +0.000 C 
ATOM      6  C   UNL     1       2.294   8.145  18.441  0.00  0.00    +0.000 C 
ENDROOT
BRANCH   4   7
ATOM      7  N   UNL     1       3.476   4.574  17.665  0.00  0.00    +0.000 N 
ATOM      8  C   UNL     1       2.972   3.219  17.535  0.00  0.00    +0.000 C 
BRANCH   7   9
ATOM      9  C   UNL     1       4.855   4.775  17.627  0.00  0.00    +0.000 A 
ATOM     10  N   UNL     1       5.506   5.009  18.805  0.00  0.00    +0.000 NA
ATOM     11  C   UNL     1       6.809   5.346  18.789  0.00  0.00    +0.000 A 
ATOM     12  N   UNL     1       7.630   5.459  17.732  0.00  0.00    +0.000 NA
ATOM     13  C   UNL     1       6.982   5.169  16.595  0.00  0.00    +0.000 A 
ATOM     14  N   UNL     1       7.567   5.195  15.357  0.00  0.00    +0.000 N 
ATOM     15  C   UNL     1       6.659   4.820  14.405  0.00  0.00    +0.000 A 
ATOM     16  C   UNL     1       5.470   4.562  15.050  0.00  0.00    +0.000 A 
ATOM     17  C   UNL     1       5.648   4.816  16.448  0.00  0.00    +0.000 A 
ATOM     18  H   UNL     1       8.530   5.445  15.201  0.00  0.00    +0.000 HD
ENDBRANCH   7   9
ENDBRANCH   4   7
BRANCH   1  19
ATOM     19  C   UNL     1       0.865   9.113  20.249  0.00  0.00    +0.000 C 
BRANCH  19  20
ATOM     20  S   UNL     1       0.623   9.565  21.975  0.00  0.00    +0.000 S 
ATOM     21  O   UNL     1       1.867   9.338  22.683  0.00  0.00    +0.000 OA
ATOM     22  O   UNL     1      -0.612   8.967  22.435  0.00  0.00    +0.000 OA
BRANCH  20  26
ATOM     23  C   UNL     1      -0.254  12.536  19.917  0.00  0.00    +0.000 C 
ATOM     24  C   UNL     1      -1.473  11.897  20.575  0.00  0.00    +0.000 C 
ATOM     25  C   UNL     1      -1.037  11.759  22.023  0.00  0.00    +0.000 C 
ATOM     26  N   UNL     1       0.355  11.271  21.945  0.00  0.00    +0.000 NA
ATOM     27  C   UNL     1       0.938  11.956  20.714  0.00  0.00    +0.000 C 
BRANCH  23  28
ATOM     28  C   UNL     1      -0.360  14.067  19.957  0.00  0.00    +0.000 C 
BRANCH  28  30
ATOM     29  C   UNL     1      -0.306  16.006  18.625  0.00  0.00    +0.000 C 
ATOM     30  O   UNL     1       0.092  14.639  18.732  0.00  0.00    +0.000 OA
ENDBRANCH  28  30
ENDBRANCH  23  28
ENDBRANCH  20  26
ENDBRANCH  19  20
ENDBRANCH   1  19
TORSDOF 7
ENDMDL
MODEL 2
REMARK VINA RESULT:      -8.1      3.949      9.292
REMARK  Name = 
REMARK  9 active torsions:
REMARK  status: ('A' for Active; 'I' for Inactive)
REMARK    1  A    between atoms: C_1  and  O_2
REMARK    2  A    between atoms: O_2  and  C_3
REMARK    3  A    between atoms: C_3  and  C_4
REMARK    4  A    between atoms: N_7  and  S_8
REMARK    5  A    between atoms: S_8  and  C_11
REMARK    6  A    between atoms: C_11  and  C_12
REMARK    7  A    between atoms: C_15  and  N_16
REMARK    8  A    between atoms: N_16  and  C_17
REMARK    9  A    between atoms: N_16  and  C_18
REMARK                            x       y       z     vdW  Elec       q    Type
REMARK                         _______ _______ _______ _____ _____    ______ ____
ROOT
ATOM      1  C   UNL     1       3.357   6.828  18.472  0.00  0.00    +0.000 C 
ATOM      2  C   UNL     1       2.739   7.945  17.603  0.00  0.00    +0.000 C 
ATOM      3  C   UNL     1       2.127   9.121  18.398  0.00  0.00    +0.000 C 
ATOM      4  C   UNL     1       1.122   8.633  19.450  0.00  0.00    +0.000 C 
ATOM      5  C   UNL     1       1.857   7.683  20.405  0.00  0.00    +0.000 C 
ATOM      6  C   UNL     1       2.439   6.480  19.668  0.00  0.00    +0.000 C 
ENDROOT
BRANCH   4   7
ATOM      7  N   UNL     1       0.490   9.749  20.181  0.00  0.00    +0.000 N 
ATOM      8  C   UNL     1      -0.154   9.534  21.464  0.00  0.00    +0.000 C 
BRANCH   7   9
ATOM      9  C   UNL     1       0.156  10.890  19.454  0.00  0.00    +0.000 A 
ATOM     10  N   UNL     1       0.761  12.069  19.788  0.00  0.00    +0.000 NA
ATOM     11  C   UNL     1       0.360  13.212  19.201  0.00  0.00    +0.000 A 
ATOM     12  N   UNL     1      -0.577  13.380  18.253  0.00  0.00    +0.000 NA
ATOM     13  C   UNL     1      -1.115  12.203  17.903  0.00  0.00    +0.000 A 
ATOM     14  N   UNL     1      -2.091  12.065  16.954  0.00  0.00    +0.000 N 
ATOM     15  C   UNL     1      -2.406  10.743  16.799  0.00  0.00    +0.000 A 
ATOM     16  C   UNL     1      -1.621  10.028  17.676  0.00  0.00    +0.000 A 
ATOM     17  C   UNL     1      -0.815  10.950  18.417  0.00  0.00    +0.000 A 
ATOM     18  H   UNL     1      -2.493  12.839  16.450  0.00  0.00    +0.000 HD
ENDBRANCH   7   9
ENDBRANCH   4   7
BRANCH   1  19
ATOM     19  C   UNL     1       3.636   5.498  17.705  0.00  0.00    +0.000 C 
BRANCH  19  20
ATOM     20  S   UNL     1       4.990   4.484  18.325  0.00  0.00    +0.000 S 
ATOM     21  O   UNL     1       4.496   3.136  18.518  0.00  0.00    +0.000 OA
ATOM     22  O   UNL     1       5.640   5.200  19.402  0.00  0.00    +0.000 OA
BRANCH  20  26
ATOM     23  C   UNL     1       5.491   4.425  14.640  0.00  0.00    +0.000 C 
ATOM     24  C   UNL     1       5.526   5.837  15.214  0.00  0.00    +0.000 C 
ATOM     25  C   UNL     1       6.498   5.704  16.372  0.00  0.00    +0.000 C 
ATOM     26  N   UNL     1       6.125   4.431  17.024  0.00  0.00    +0.000 NA
ATOM     27  C   UNL     1       5.694   3.521  15.878  0.00  0.00    +0.000 C 
BRANCH  23  28
ATOM     28  C   UNL     1       6.560   4.259  13.550  0.00  0.00    +0.000 C 
BRANCH  28  30
ATOM     29  C   UNL     1       4.915   3.432  12.086  0.00  0.00    +0.000 C 
ATOM     30  O   UNL     1       6.208   3.212  12.649  0.00  0.00    +0.000 OA
ENDBRANCH  28  30
ENDBRANCH  23  28
ENDBRANCH  20  26
ENDBRANCH  19  20
ENDBRANCH   1  19
TORSDOF 7
ENDMDL
MODEL 3
REMARK VINA RESULT:      -7.9      1.461      1.841
REMARK  Name = 
REMARK  9 active torsions:
REMARK  status: ('A' for Active; 'I' for Inactive)
REMARK    1  A    between atoms: C_1  and  O_2
REMARK    2  A    between atoms: O_2  and  C_3
REMARK    3  A    between atoms: C_3  and  C_4
REMARK    4  A    between atoms: N_7  and  S_8
REMARK    5  A    between atoms: S_8  and  C_11
REMARK    6  A    between atoms: C_11  and  C_12
REMARK    7  A    between atoms: C_15  and  N_16
REMARK    8  A    between atoms: N_16  and  C_17
REMARK    9  A    between atoms: N_16  and  C_18
REMARK                            x       y       z     vdW  Elec       q    Type
REMARK                         _______ _______ _______ _____ _____    ______ ____
ROOT
ATOM      1  C   UNL     1       2.040   7.881  19.803  0.00  0.00    +0.000 C 
ATOM      2  C   UNL     1       1.713   6.500  20.411  0.00  0.00    +0.000 C 
ATOM      3  C   UNL     1       2.702   5.374  20.030  0.00  0.00    +0.000 C 
ATOM      4  C   UNL     1       2.884   5.269  18.510  0.00  0.00    +0.000 C 
ATOM      5  C   UNL     1       3.407   6.619  17.999  0.00  0.00    +0.000 C 
ATOM      6  C   UNL     1       2.438   7.755  18.313  0.00  0.00    +0.000 C 
ENDROOT
BRANCH   4   7
ATOM      7  N   UNL     1       3.785   4.163  18.129  0.00  0.00    +0.000 N 
ATOM      8  C   UNL     1       3.437   2.783  18.410  0.00  0.00    +0.000 C 
BRANCH   7   9
ATOM      9  C   UNL     1       5.123   4.475  17.887  0.00  0.00    +0.000 A 
ATOM     10  N   UNL     1       5.929   4.737  18.958  0.00  0.00    +0.000 NA
ATOM     11  C   UNL     1       7.185   5.176  18.754  0.00  0.00    +0.000 A 
ATOM     12  N   UNL     1       7.820   5.376  17.587  0.00  0.00    +0.000 NA
ATOM     13  C   UNL     1       7.027   5.058  16.554  0.00  0.00    +0.000 A 
ATOM     14  N   UNL     1       7.410   5.155  15.244  0.00  0.00    +0.000 N 
ATOM     15  C   UNL     1       6.397   4.727  14.430  0.00  0.00    +0.000 A 
ATOM     16  C   UNL     1       5.345   4.363  15.241  0.00  0.00    +0.000 A 
ATOM     17  C   UNL     1       5.718   4.603  16.603  0.00  0.00    +0.000 A 
ATOM     18  H   UNL     1       8.316   5.484  14.950  0.00  0.00    +0.000 HD
ENDBRANCH   7   9
ENDBRANCH   4   7
BRANCH   1  19
ATOM     19  C   UNL     1       0.869   8.910  19.880  0.00  0.00    +0.000 C 
BRANCH  19  20
ATOM     20  S   UNL     1       0.187   9.226  21.517  0.00  0.00    +0.000 S 
ATOM     21  O   UNL     1       1.272   9.616  22.394  0.00  0.00    +0.000 OA
ATOM     22  O   UNL     1      -0.693   8.131  21.864  0.00  0.00    +0.000 OA
BRANCH  20  26
ATOM     23  C   UNL     1      -0.444  12.777  22.425  0.00  0.00    +0.000 C 
ATOM     24  C   UNL     1       0.398  12.636  21.162  0.00  0.00    +0.000 C 
ATOM     25  C   UNL     1      -0.399  11.643  20.337  0.00  0.00    +0.000 C 
ATOM     26  N   UNL     1      -0.823  10.612  21.307  0.00  0.00    +0.000 NA
ATOM     27  C   UNL     1      -1.080  11.378  22.600  0.00  0.00    +0.000 C 
BRANCH  23  28
ATOM     28  C   UNL     1      -1.458  13.921  22.273  0.00  0.00    +0.000 C 
BRANCH  28  30
ATOM     29  C   UNL     1      -1.303  15.131  24.284  0.00  0.00    +0.000 C 
ATOM     30  O   UNL     1      -2.085  14.214  23.519  0.00  0.00    +0.000 OA
ENDBRANCH  28  30
ENDBRANCH  23  28
ENDBRANCH  20  26
ENDBRANCH  19  20
ENDBRANCH   1  19
TORSDOF 7
ENDMDL
MODEL 4
REMARK VINA RESULT:      -7.9      3.727      9.373
REMARK  Name = 
REMARK  9 active torsions:
REMARK  status: ('A' for Active; 'I' for Inactive)
REMARK    1  A    between atoms: C_1  and  O_2
REMARK    2  A    between atoms: O_2  and  C_3
REMARK    3  A    between atoms: C_3  and  C_4
REMARK    4  A    between atoms: N_7  and  S_8
REMARK    5  A    between atoms: S_8  and  C_11
REMARK    6  A    between atoms: C_11  and  C_12
REMARK    7  A    between atoms: C_15  and  N_16
REMARK    8  A    between atoms: N_16  and  C_17
REMARK    9  A    between atoms: N_16  and  C_18
REMARK                            x       y       z     vdW  Elec       q    Type
REMARK                         _______ _______ _______ _____ _____    ______ ____
ROOT
ATOM      1  C   UNL     1       2.356   7.274  19.723  0.00  0.00    +0.000 C 
ATOM      2  C   UNL     1       2.048   7.879  18.335  0.00  0.00    +0.000 C 
ATOM      3  C   UNL     1       1.717   9.389  18.346  0.00  0.00    +0.000 C 
ATOM      4  C   UNL     1       0.598   9.718  19.343  0.00  0.00    +0.000 C 
ATOM      5  C   UNL     1       1.058   9.274  20.739  0.00  0.00    +0.000 C 
ATOM      6  C   UNL     1       1.352   7.777  20.787  0.00  0.00    +0.000 C 
ENDROOT
BRANCH   4   7
ATOM      7  N   UNL     1       0.235  11.149  19.326  0.00  0.00    +0.000 N 
ATOM      8  C   UNL     1       1.121  12.153  19.885  0.00  0.00    +0.000 C 
BRANCH   7   9
ATOM      9  C   UNL     1      -1.111  11.472  19.158  0.00  0.00    +0.000 A 
ATOM     10  N   UNL     1      -1.680  12.349  20.038  0.00  0.00    +0.000 NA
ATOM     11  C   UNL     1      -3.006  12.573  19.990  0.00  0.00    +0.000 A 
ATOM     12  N   UNL     1      -3.909  12.063  19.135  0.00  0.00    +0.000 NA
ATOM     13  C   UNL     1      -3.317  11.251  18.248  0.00  0.00    +0.000 A 
ATOM     14  N   UNL     1      -3.988  10.594  17.252  0.00  0.00    +0.000 N 
ATOM     15  C   UNL     1      -3.107   9.873  16.494  0.00  0.00    +0.000 A 
ATOM     16  C   UNL     1      -1.852  10.066  17.028  0.00  0.00    +0.000 A 
ATOM     17  C   UNL     1      -1.973  10.917  18.173  0.00  0.00    +0.000 A 
ATOM     18  H   UNL     1      -4.984  10.661  17.112  0.00  0.00    +0.000 HD
ENDBRANCH   7   9
ENDBRANCH   4   7
BRANCH   1  19
ATOM     19  C   UNL     1       2.326   5.714  19.764  0.00  0.00    +0.000 C 
BRANCH  19  20
ATOM     20  S   UNL     1       3.848   4.871  19.300  0.00  0.00    +0.000 S 
ATOM     21  O   UNL     1       3.757   3.494  19.740  0.00  0.00    +0.000 OA
ATOM     22  O   UNL     1       4.968   5.703  19.688  0.00  0.00    +0.000 OA
BRANCH  20  26
ATOM     23  C   UNL     1       5.844   5.096  16.170  0.00  0.00    +0.000 C 
ATOM     24  C   UNL     1       5.643   3.658  16.635  0.00  0.00    +0.000 C 
ATOM     25  C   UNL     1       4.147   3.592  16.881  0.00  0.00    +0.000 C 
ATOM     26  N   UNL     1       3.829   4.858  17.573  0.00  0.00    +0.000 NA
ATOM     27  C   UNL     1       4.766   5.887  16.947  0.00  0.00    +0.000 C 
BRANCH  23  28
ATOM     28  C   UNL     1       5.723   5.191  14.641  0.00  0.00    +0.000 C 
BRANCH  28  30
ATOM     29  C   UNL     1       6.051   3.640  12.904  0.00  0.00    +0.000 C 
ATOM     30  O   UNL     1       6.655   4.322  14.003  0.00  0.00    +0.000 OA
ENDBRANCH  28  30
ENDBRANCH  23  28
ENDBRANCH  20  26
ENDBRANCH  19  20
ENDBRANCH   1  19
TORSDOF 7
ENDMDL
MODEL 5
REMARK VINA RESULT:      -7.9      3.782      9.482
REMARK  Name = 
REMARK  9 active torsions:
REMARK  status: ('A' for Active; 'I' for Inactive)
REMARK    1  A    between atoms: C_1  and  O_2
REMARK    2  A    between atoms: O_2  and  C_3
REMARK    3  A    between atoms: C_3  and  C_4
REMARK    4  A    between atoms: N_7  and  S_8
REMARK    5  A    between atoms: S_8  and  C_11
REMARK    6  A    between atoms: C_11  and  C_12
REMARK    7  A    between atoms: C_15  and  N_16
REMARK    8  A    between atoms: N_16  and  C_17
REMARK    9  A    between atoms: N_16  and  C_18
REMARK                            x       y       z     vdW  Elec       q    Type
REMARK                         _______ _______ _______ _____ _____    ______ ____
ROOT
ATOM      1  C   UNL     1       3.285   6.637  18.915  0.00  0.00    +0.000 C 
ATOM      2  C   UNL     1       2.995   7.474  17.650  0.00  0.00    +0.000 C 
ATOM      3  C   UNL     1       2.440   8.890  17.925  0.00  0.00    +0.000 C 
ATOM      4  C   UNL     1       1.212   8.852  18.844  0.00  0.00    +0.000 C 
ATOM      5  C   UNL     1       1.628   8.189  20.165  0.00  0.00    +0.000 C 
ATOM      6  C   UNL     1       2.139   6.767  19.946  0.00  0.00    +0.000 C 
ENDROOT
BRANCH   4   7
ATOM      7  N   UNL     1       0.640  10.193  19.072  0.00  0.00    +0.000 N 
ATOM      8  C   UNL     1       1.169  11.068  20.103  0.00  0.00    +0.000 C 
BRANCH   7   9
ATOM      9  C   UNL     1      -0.645  10.437  18.591  0.00  0.00    +0.000 A 
ATOM     10  N   UNL     1      -1.021   9.840  17.421  0.00  0.00    +0.000 NA
ATOM     11  C   UNL     1      -2.200  10.163  16.857  0.00  0.00    +0.000 A 
ATOM     12  N   UNL     1      -3.139  11.009  17.313  0.00  0.00    +0.000 NA
ATOM     13  C   UNL     1      -2.772  11.538  18.488  0.00  0.00    +0.000 A 
ATOM     14  N   UNL     1      -3.535  12.429  19.193  0.00  0.00    +0.000 N 
ATOM     15  C   UNL     1      -2.907  12.757  20.363  0.00  0.00    +0.000 A 
ATOM     16  C   UNL     1      -1.715  12.068  20.396  0.00  0.00    +0.000 A 
ATOM     17  C   UNL     1      -1.595  11.311  19.186  0.00  0.00    +0.000 A 
ATOM     18  H   UNL     1      -4.430  12.768  18.878  0.00  0.00    +0.000 HD
ENDBRANCH   7   9
ENDBRANCH   4   7
BRANCH   1  19
ATOM     19  C   UNL     1       3.488   5.113  18.643  0.00  0.00    +0.000 C 
BRANCH  19  20
ATOM     20  S   UNL     1       5.076   4.417  19.130  0.00  0.00    +0.000 S 
ATOM     21  O   UNL     1       4.831   3.173  19.832  0.00  0.00    +0.000 OA
ATOM     22  O   UNL     1       5.869   5.467  19.733  0.00  0.00    +0.000 OA
BRANCH  20  26
ATOM     23  C   UNL     1       5.572   5.303  15.553  0.00  0.00    +0.000 C 
ATOM     24  C   UNL     1       6.630   5.920  16.462  0.00  0.00    +0.000 C 
ATOM     25  C   UNL     1       7.094   4.734  17.287  0.00  0.00    +0.000 C 
ATOM     26  N   UNL     1       5.851   4.018  17.639  0.00  0.00    +0.000 NA
ATOM     27  C   UNL     1       4.949   4.186  16.421  0.00  0.00    +0.000 C 
BRANCH  23  28
ATOM     28  C   UNL     1       6.206   4.811  14.243  0.00  0.00    +0.000 C 
BRANCH  28  30
ATOM     29  C   UNL     1       7.899   5.215  12.660  0.00  0.00    +0.000 C 
ATOM     30  O   UNL     1       7.418   5.511  13.972  0.00  0.00    +0.000 OA
ENDBRANCH  28  30
ENDBRANCH  23  28
ENDBRANCH  20  26
ENDBRANCH  19  20
ENDBRANCH   1  19
TORSDOF 7
ENDMDL
MODEL 6
REMARK VINA RESULT:      -7.8      3.592      9.025
REMARK  Name = 
REMARK  9 active torsions:
REMARK  status: ('A' for Active; 'I' for Inactive)
REMARK    1  A    between atoms: C_1  and  O_2
REMARK    2  A    between atoms: O_2  and  C_3
REMARK    3  A    between atoms: C_3  and  C_4
REMARK    4  A    between atoms: N_7  and  S_8
REMARK    5  A    between atoms: S_8  and  C_11
REMARK    6  A    between atoms: C_11  and  C_12
REMARK    7  A    between atoms: C_15  and  N_16
REMARK    8  A    between atoms: N_16  and  C_17
REMARK    9  A    between atoms: N_16  and  C_18
REMARK                            x       y       z     vdW  Elec       q    Type
REMARK                         _______ _______ _______ _____ _____    ______ ____
ROOT
ATOM      1  C   UNL     1       1.866   7.147  19.374  0.00  0.00    +0.000 C 
ATOM      2  C   UNL     1       1.514   8.138  20.504  0.00  0.00    +0.000 C 
ATOM      3  C   UNL     1       0.872   9.461  20.028  0.00  0.00    +0.000 C 
ATOM      4  C   UNL     1       1.718  10.148  18.948  0.00  0.00    +0.000 C 
ATOM      5  C   UNL     1       1.857   9.179  17.766  0.00  0.00    +0.000 C 
ATOM      6  C   UNL     1       2.531   7.874  18.181  0.00  0.00    +0.000 C 
ENDROOT
BRANCH   4   7
ATOM      7  N   UNL     1       1.144  11.439  18.522  0.00  0.00    +0.000 N 
ATOM      8  C   UNL     1       1.995  12.575  18.221  0.00  0.00    +0.000 C 
BRANCH   7   9
ATOM      9  C   UNL     1      -0.199  11.675  18.813  0.00  0.00    +0.000 A 
ATOM     10  N   UNL     1      -0.498  12.560  19.811  0.00  0.00    +0.000 NA
ATOM     11  C   UNL     1      -1.775  12.705  20.210  0.00  0.00    +0.000 A 
ATOM     12  N   UNL     1      -2.875  12.104  19.727  0.00  0.00    +0.000 NA
ATOM     13  C   UNL     1      -2.562  11.285  18.713  0.00  0.00    +0.000 A 
ATOM     14  N   UNL     1      -3.481  10.543  18.022  0.00  0.00    +0.000 N 
ATOM     15  C   UNL     1      -2.859   9.837  17.030  0.00  0.00    +0.000 A 
ATOM     16  C   UNL     1      -1.515  10.128  17.100  0.00  0.00    +0.000 A 
ATOM     17  C   UNL     1      -1.301  11.025  18.195  0.00  0.00    +0.000 A 
ATOM     18  H   UNL     1      -4.468  10.545  18.228  0.00  0.00    +0.000 HD
ENDBRANCH   7   9
ENDBRANCH   4   7
BRANCH   1  19
ATOM     19  C   UNL     1       2.830   5.997  19.806  0.00  0.00    +0.000 C 
BRANCH  19  20
ATOM     20  S   UNL     1       2.720   4.464  18.867  0.00  0.00    +0.000 S 
ATOM     21  O   UNL     1       2.046   4.744  17.616  0.00  0.00    +0.000 OA
ATOM     22  O   UNL     1       2.243   3.421  19.750  0.00  0.00    +0.000 OA
BRANCH  20  26
ATOM     23  C   UNL     1       5.623   5.068  16.622  0.00  0.00    +0.000 C 
ATOM     24  C   UNL     1       5.647   5.954  17.863  0.00  0.00    +0.000 C 
ATOM     25  C   UNL     1       5.424   4.960  18.988  0.00  0.00    +0.000 C 
ATOM     26  N   UNL     1       4.358   4.068  18.488  0.00  0.00    +0.000 NA
ATOM     27  C   UNL     1       4.623   3.947  16.991  0.00  0.00    +0.000 C 
BRANCH  23  28
ATOM     28  C   UNL     1       7.037   4.573  16.285  0.00  0.00    +0.000 C 
BRANCH  28  30
ATOM     29  C   UNL     1       6.908   4.760  13.943  0.00  0.00    +0.000 C 
ATOM     30  O   UNL     1       7.545   5.235  15.129  0.00  0.00    +0.000 OA
ENDBRANCH  28  30
ENDBRANCH  23  28
ENDBRANCH  20  26
ENDBRANCH  19  20
ENDBRANCH   1  19
TORSDOF 7
ENDMDL
MODEL 7
REMARK VINA RESULT:      -7.8      2.073      3.088
REMARK  Name = 
REMARK  9 active torsions:
REMARK  status: ('A' for Active; 'I' for Inactive)
REMARK    1  A    between atoms: C_1  and  O_2
REMARK    2  A    between atoms: O_2  and  C_3
REMARK    3  A    between atoms: C_3  and  C_4
REMARK    4  A    between atoms: N_7  and  S_8
REMARK    5  A    between atoms: S_8  and  C_11
REMARK    6  A    between atoms: C_11  and  C_12
REMARK    7  A    between atoms: C_15  and  N_16
REMARK    8  A    between atoms: N_16  and  C_17
REMARK    9  A    between atoms: N_16  and  C_18
REMARK                            x       y       z     vdW  Elec       q    Type
REMARK                         _______ _______ _______ _____ _____    ______ ____
ROOT
ATOM      1  C   UNL     1       1.058   9.277  19.315  0.00  0.00    +0.000 C 
ATOM      2  C   UNL     1       1.905   9.207  18.025  0.00  0.00    +0.000 C 
ATOM      3  C   UNL     1       2.295   7.777  17.584  0.00  0.00    +0.000 C 
ATOM      4  C   UNL     1       2.970   6.997  18.720  0.00  0.00    +0.000 C 
ATOM      5  C   UNL     1       1.990   6.930  19.899  0.00  0.00    +0.000 C 
ATOM      6  C   UNL     1       1.613   8.323  20.399  0.00  0.00    +0.000 C 
ENDROOT
BRANCH   4   7
ATOM      7  N   UNL     1       3.396   5.648  18.298  0.00  0.00    +0.000 N 
ATOM      8  C   UNL     1       2.466   4.535  18.297  0.00  0.00    +0.000 C 
BRANCH   7   9
ATOM      9  C   UNL     1       4.763   5.371  18.305  0.00  0.00    +0.000 A 
ATOM     10  N   UNL     1       5.441   5.500  19.484  0.00  0.00    +0.000 NA
ATOM     11  C   UNL     1       6.782   5.377  19.497  0.00  0.00    +0.000 A 
ATOM     12  N   UNL     1       7.604   5.094  18.473  0.00  0.00    +0.000 NA
ATOM     13  C   UNL     1       6.909   4.916  17.341  0.00  0.00    +0.000 A 
ATOM     14  N   UNL     1       7.482   4.610  16.136  0.00  0.00    +0.000 N 
ATOM     15  C   UNL     1       6.512   4.460  15.184  0.00  0.00    +0.000 A 
ATOM     16  C   UNL     1       5.299   4.687  15.794  0.00  0.00    +0.000 A 
ATOM     17  C   UNL     1       5.537   5.016  17.167  0.00  0.00    +0.000 A 
ATOM     18  H   UNL     1       8.475   4.505  16.002  0.00  0.00    +0.000 HD
ENDBRANCH   7   9
ENDBRANCH   4   7
BRANCH   1  19
ATOM     19  C   UNL     1       0.979  10.700  19.953  0.00  0.00    +0.000 C 
BRANCH  19  20
ATOM     20  S   UNL     1      -0.393  11.739  19.423  0.00  0.00    +0.000 S 
ATOM     21  O   UNL     1      -1.538  10.888  19.170  0.00  0.00    +0.000 OA
ATOM     22  O   UNL     1       0.091  12.654  18.411  0.00  0.00    +0.000 OA
BRANCH  20  26
ATOM     23  C   UNL     1      -2.569  12.175  22.408  0.00  0.00    +0.000 C 
ATOM     24  C   UNL     1      -1.287  11.410  22.723  0.00  0.00    +0.000 C 
ATOM     25  C   UNL     1      -0.213  12.292  22.113  0.00  0.00    +0.000 C 
ATOM     26  N   UNL     1      -0.768  12.703  20.807  0.00  0.00    +0.000 NA
ATOM     27  C   UNL     1      -2.265  12.856  21.053  0.00  0.00    +0.000 C 
BRANCH  23  28
ATOM     28  C   UNL     1      -2.910  13.148  23.546  0.00  0.00    +0.000 C 
BRANCH  28  30
ATOM     29  C   UNL     1      -5.190  12.866  24.050  0.00  0.00    +0.000 C 
ATOM     30  O   UNL     1      -4.222  13.678  23.384  0.00  0.00    +0.000 OA
ENDBRANCH  28  30
ENDBRANCH  23  28
ENDBRANCH  20  26
ENDBRANCH  19  20
ENDBRANCH   1  19
TORSDOF 7
ENDMDL
MODEL 8
REMARK VINA RESULT:      -7.8      1.301      1.410
REMARK  Name = 
REMARK  9 active torsions:
REMARK  status: ('A' for Active; 'I' for Inactive)
REMARK    1  A    between atoms: C_1  and  O_2
REMARK    2  A    between atoms: O_2  and  C_3
REMARK    3  A    between atoms: C_3  and  C_4
REMARK    4  A    between atoms: N_7  and  S_8
REMARK    5  A    between atoms: S_8  and  C_11
REMARK    6  A    between atoms: C_11  and  C_12
REMARK    7  A    between atoms: C_15  and  N_16
REMARK    8  A    between atoms: N_16  and  C_17
REMARK    9  A    between atoms: N_16  and  C_18
REMARK                            x       y       z     vdW  Elec       q    Type
REMARK                         _______ _______ _______ _____ _____    ______ ____
ROOT
ATOM      1  C   UNL     1       1.884   8.433  19.714  0.00  0.00    +0.000 C 
ATOM      2  C   UNL     1       1.530   7.072  20.352  0.00  0.00    +0.000 C 
ATOM      3  C   UNL     1       2.502   5.921  20.004  0.00  0.00    +0.000 C 
ATOM      4  C   UNL     1       2.694   5.777  18.488  0.00  0.00    +0.000 C 
ATOM      5  C   UNL     1       3.242   7.106  17.950  0.00  0.00    +0.000 C 
ATOM      6  C   UNL     1       2.290   8.265  18.231  0.00  0.00    +0.000 C 
ENDROOT
BRANCH   4   7
ATOM      7  N   UNL     1       3.578   4.649  18.139  0.00  0.00    +0.000 N 
ATOM      8  C   UNL     1       3.178   3.277  18.392  0.00  0.00    +0.000 C 
BRANCH   7   9
ATOM      9  C   UNL     1       4.934   4.922  17.963  0.00  0.00    +0.000 A 
ATOM     10  N   UNL     1       5.673   5.261  19.061  0.00  0.00    +0.000 NA
ATOM     11  C   UNL     1       6.947   5.666  18.906  0.00  0.00    +0.000 A 
ATOM     12  N   UNL     1       7.661   5.761  17.772  0.00  0.00    +0.000 NA
ATOM     13  C   UNL     1       6.932   5.369  16.717  0.00  0.00    +0.000 A 
ATOM     14  N   UNL     1       7.401   5.354  15.432  0.00  0.00    +0.000 N 
ATOM     15  C   UNL     1       6.436   4.874  14.590  0.00  0.00    +0.000 A 
ATOM     16  C   UNL     1       5.327   4.591  15.355  0.00  0.00    +0.000 A 
ATOM     17  C   UNL     1       5.615   4.937  16.715  0.00  0.00    +0.000 A 
ATOM     18  H   UNL     1       8.330   5.646  15.174  0.00  0.00    +0.000 HD
ENDBRANCH   7   9
ENDBRANCH   4   7
BRANCH   1  19
ATOM     19  C   UNL     1       0.729   9.482  19.759  0.00  0.00    +0.000 C 
BRANCH  19  20
ATOM     20  S   UNL     1       0.597  10.464  21.263  0.00  0.00    +0.000 S 
ATOM     21  O   UNL     1       1.402   9.835  22.290  0.00  0.00    +0.000 OA
ATOM     22  O   UNL     1      -0.801  10.761  21.493  0.00  0.00    +0.000 OA
BRANCH  20  26
ATOM     23  C   UNL     1       0.753  13.342  18.912  0.00  0.00    +0.000 C 
ATOM     24  C   UNL     1      -0.177  13.599  20.093  0.00  0.00    +0.000 C 
ATOM     25  C   UNL     1       0.682  13.215  21.284  0.00  0.00    +0.000 C 
ATOM     26  N   UNL     1       1.354  11.966  20.869  0.00  0.00    +0.000 NA
ATOM     27  C   UNL     1       1.613  12.143  19.377  0.00  0.00    +0.000 C 
BRANCH  23  28
ATOM     28  C   UNL     1       1.557  14.606  18.572  0.00  0.00    +0.000 C 
BRANCH  28  30
ATOM     29  C   UNL     1       3.611  15.439  17.786  0.00  0.00    +0.000 C 
ATOM     30  O   UNL     1       2.876  14.271  18.149  0.00  0.00    +0.000 OA
ENDBRANCH  28  30
ENDBRANCH  23  28
ENDBRANCH  20  26
ENDBRANCH  19  20
ENDBRANCH   1  19
TORSDOF 7
ENDMDL
MODEL 9
REMARK VINA RESULT:      -7.8      1.669      2.188
REMARK  Name = 
REMARK  9 active torsions:
REMARK  status: ('A' for Active; 'I' for Inactive)
REMARK    1  A    between atoms: C_1  and  O_2
REMARK    2  A    between atoms: O_2  and  C_3
REMARK    3  A    between atoms: C_3  and  C_4
REMARK    4  A    between atoms: N_7  and  S_8
REMARK    5  A    between atoms: S_8  and  C_11
REMARK    6  A    between atoms: C_11  and  C_12
REMARK    7  A    between atoms: C_15  and  N_16
REMARK    8  A    between atoms: N_16  and  C_17
REMARK    9  A    between atoms: N_16  and  C_18
REMARK                            x       y       z     vdW  Elec       q    Type
REMARK                         _______ _______ _______ _____ _____    ______ ____
ROOT
ATOM      1  C   UNL     1       1.921   6.843  20.591  0.00  0.00    +0.000 C 
ATOM      2  C   UNL     1       1.740   5.332  20.852  0.00  0.00    +0.000 C 
ATOM      3  C   UNL     1       2.816   4.430  20.205  0.00  0.00    +0.000 C 
ATOM      4  C   UNL     1       2.964   4.708  18.703  0.00  0.00    +0.000 C 
ATOM      5  C   UNL     1       3.345   6.185  18.529  0.00  0.00    +0.000 C 
ATOM      6  C   UNL     1       2.285   7.115  19.112  0.00  0.00    +0.000 C 
ENDROOT
BRANCH   4   7
ATOM      7  N   UNL     1       3.951   3.817  18.062  0.00  0.00    +0.000 N 
ATOM      8  C   UNL     1       3.761   2.379  18.045  0.00  0.00    +0.000 C 
BRANCH   7   9
ATOM      9  C   UNL     1       5.235   4.320  17.855  0.00  0.00    +0.000 A 
ATOM     10  N   UNL     1       5.965   4.696  18.946  0.00  0.00    +0.000 NA
ATOM     11  C   UNL     1       7.149   5.314  18.773  0.00  0.00    +0.000 A 
ATOM     12  N   UNL     1       7.779   5.604  17.623  0.00  0.00    +0.000 NA
ATOM     13  C   UNL     1       7.069   5.174  16.571  0.00  0.00    +0.000 A 
ATOM     14  N   UNL     1       7.468   5.326  15.270  0.00  0.00    +0.000 N 
ATOM     15  C   UNL     1       6.550   4.757  14.432  0.00  0.00    +0.000 A 
ATOM     16  C   UNL     1       5.541   4.243  15.216  0.00  0.00    +0.000 A 
ATOM     17  C   UNL     1       5.839   4.534  16.586  0.00  0.00    +0.000 A 
ATOM     18  H   UNL     1       8.324   5.784  15.000  0.00  0.00    +0.000 HD
ENDBRANCH   7   9
ENDBRANCH   4   7
BRANCH   1  19
ATOM     19  C   UNL     1       0.663   7.706  20.921  0.00  0.00    +0.000 C 
BRANCH  19  20
ATOM     20  S   UNL     1       0.948   9.460  21.212  0.00  0.00    +0.000 S 
ATOM     21  O   UNL     1       1.461  10.047  19.991  0.00  0.00    +0.000 OA
ATOM     22  O   UNL     1       1.662   9.605  22.463  0.00  0.00    +0.000 OA
BRANCH  20  26
ATOM     23  C   UNL     1      -1.094  12.023  22.971  0.00  0.00    +0.000 C 
ATOM     24  C   UNL     1      -0.633  12.485  21.593  0.00  0.00    +0.000 C 
ATOM     25  C   UNL     1      -1.018  11.318  20.703  0.00  0.00    +0.000 C 
ATOM     26  N   UNL     1      -0.627  10.120  21.474  0.00  0.00    +0.000 NA
ATOM     27  C   UNL     1      -0.897  10.490  22.928  0.00  0.00    +0.000 C 
BRANCH  23  28
ATOM     28  C   UNL     1      -2.540  12.470  23.235  0.00  0.00    +0.000 C 
BRANCH  28  30
ATOM     29  C   UNL     1      -3.207  14.719  23.052  0.00  0.00    +0.000 C 
ATOM     30  O   UNL     1      -2.568  13.743  23.875  0.00  0.00    +0.000 OA
ENDBRANCH  28  30
ENDBRANCH  23  28
ENDBRANCH  20  26
ENDBRANCH  19  20
ENDBRANCH   1  19
TORSDOF 7
ENDMDL
