MODEL 1
REMARK VINA RESULT:      -8.6      0.000      0.000
REMARK  Name = 
REMARK  2 active torsions:
REMARK  status: ('A' for Active; 'I' for Inactive)
REMARK    1  A    between atoms: N_13  and  C_14
REMARK    2  A    between atoms: C_18  and  N_19
REMARK                            x       y       z     vdW  Elec       q    Type
REMARK                         _______ _______ _______ _____ _____    ______ ____
ROOT
ATOM      1  O   UNL     1       1.957  10.971  17.859  0.00  0.00    +0.000 OA
ATOM      2  C   UNL     1       1.339  11.021  18.919  0.00  0.00    +0.000 A 
ATOM      3  C   UNL     1       0.621  12.276  19.298  0.00  0.00    +0.000 A 
ATOM      4  C   UNL     1       0.560  13.379  18.436  0.00  0.00    +0.000 A 
ATOM      5  C   UNL     1      -0.172  14.513  18.805  0.00  0.00    +0.000 A 
ATOM      6  C   UNL     1      -0.833  14.552  20.033  0.00  0.00    +0.000 A 
ATOM      7  C   UNL     1      -0.755  13.460  20.896  0.00  0.00    +0.000 A 
ATOM      8  C   UNL     1      -0.035  12.317  20.537  0.00  0.00    +0.000 A 
ATOM      9  N   UNL     1      -0.027  11.242  21.435  0.00  0.00    +0.000 NA
ATOM     10  C   UNL     1       0.574  10.175  21.038  0.00  0.00    +0.000 A 
ATOM     11  S   UNL     1       0.637   8.740  21.986  0.00  0.00    +0.000 S 
ATOM     12  C   UNL     1       1.472   7.954  20.640  0.00  0.00    +0.000 A 
ATOM     13  N   UNL     1       1.689   6.636  20.924  0.00  0.00    +0.000 N 
ATOM     14  N   UNL     1       1.732   8.713  19.624  0.00  0.00    +0.000 NA
ATOM     15  N   UNL     1       1.224   9.992  19.848  0.00  0.00    +0.000 N 
ATOM     16  H   UNL     1       1.326   6.353  21.826  0.00  0.00    +0.000 HD
ENDROOT
BRANCH  13  17
ATOM     17  C   UNL     1       2.221   5.577  20.178  0.00  0.00    +0.000 A 
ATOM     18  C   UNL     1       1.522   4.358  20.165  0.00  0.00    +0.000 A 
ATOM     19  C   UNL     1       1.984   3.265  19.436  0.00  0.00    +0.000 A 
ATOM     20  C   UNL     1       3.163   3.366  18.704  0.00  0.00    +0.000 A 
ATOM     21  C   UNL     1       3.899   4.553  18.701  0.00  0.00    +0.000 A 
ATOM     22  C   UNL     1       3.399   5.651  19.437  0.00  0.00    +0.000 A 
BRANCH  21  23
ATOM     23  N   UNL     1       5.068   4.704  17.983  0.00  0.00    +0.000 N 
ATOM     24  C   UNL     1       6.280   5.316  18.538  0.00  0.00    +0.000 C 
ATOM     25  C   UNL     1       7.504   4.646  17.863  0.00  0.00    +0.000 C 
ATOM     26  N   UNL     1       7.485   4.699  16.383  0.00  0.00    +0.000 NA
ATOM     27  C   UNL     1       6.193   4.183  15.875  0.00  0.00    +0.000 C 
ATOM     28  C   UNL     1       4.965   4.853  16.524  0.00  0.00    +0.000 C 
ATOM     29  H   UNL     1       8.227   4.096  16.028  0.00  0.00    +0.000 HD
ENDBRANCH  21  23
ENDBRANCH  13  17
TORSDOF 2
ENDMDL
MODEL 2
REMARK VINA RESULT:      -8.5      1.646      1.812
REMARK  Name = 
REMARK  2 active torsions:
REMARK  status: ('A' for Active; 'I' for Inactive)
REMARK    1  A    between atoms: N_13  and  C_14
REMARK    2  A    between atoms: C_18  and  N_19
REMARK                            x       y       z     vdW  Elec       q    Type
REMARK                         _______ _______ _______ _____ _____    ______ ____
ROOT
ATOM      1  O   UNL     1      -0.955  10.837  18.547  0.00  0.00    +0.000 OA
ATOM      2  C   UNL     1      -0.755  10.856  19.759  0.00  0.00    +0.000 A 
ATOM      3  C   UNL     1      -1.446  11.875  20.606  0.00  0.00    +0.000 A 
ATOM      4  C   UNL     1      -2.387  12.764  20.069  0.00  0.00    +0.000 A 
ATOM      5  C   UNL     1      -3.054  13.664  20.908  0.00  0.00    +0.000 A 
ATOM      6  C   UNL     1      -2.779  13.685  22.275  0.00  0.00    +0.000 A 
ATOM      7  C   UNL     1      -1.829  12.811  22.803  0.00  0.00    +0.000 A 
ATOM      8  C   UNL     1      -1.161  11.901  21.979  0.00  0.00    +0.000 A 
ATOM      9  N   UNL     1      -0.245  11.028  22.580  0.00  0.00    +0.000 NA
ATOM     10  C   UNL     1       0.289  10.147  21.808  0.00  0.00    +0.000 A 
ATOM     11  S   UNL     1       1.394   8.959  22.383  0.00  0.00    +0.000 S 
ATOM     12  C   UNL     1       1.415   8.271  20.755  0.00  0.00    +0.000 A 
ATOM     13  N   UNL     1       2.180   7.140  20.730  0.00  0.00    +0.000 N 
ATOM     14  N   UNL     1       0.721   8.910  19.868  0.00  0.00    +0.000 NA
ATOM     15  N   UNL     1       0.077   9.993  20.465  0.00  0.00    +0.000 N 
ATOM     16  H   UNL     1       2.573   6.899  21.632  0.00  0.00    +0.000 HD
ENDROOT
BRANCH  13  17
ATOM     17  C   UNL     1       2.447   6.193  19.733  0.00  0.00    +0.000 A 
ATOM     18  C   UNL     1       1.541   5.132  19.566  0.00  0.00    +0.000 A 
ATOM     19  C   UNL     1       1.734   4.160  18.588  0.00  0.00    +0.000 A 
ATOM     20  C   UNL     1       2.846   4.226  17.754  0.00  0.00    +0.000 A 
ATOM     21  C   UNL     1       3.781   5.254  17.894  0.00  0.00    +0.000 A 
ATOM     22  C   UNL     1       3.552   6.235  18.885  0.00  0.00    +0.000 A 
BRANCH  21  23
ATOM     23  N   UNL     1       4.893   5.366  17.084  0.00  0.00    +0.000 N 
ATOM     24  C   UNL     1       5.647   6.613  16.921  0.00  0.00    +0.000 C 
ATOM     25  C   UNL     1       7.132   6.243  16.668  0.00  0.00    +0.000 C 
ATOM     26  N   UNL     1       7.340   5.317  15.530  0.00  0.00    +0.000 NA
ATOM     27  C   UNL     1       6.466   4.130  15.678  0.00  0.00    +0.000 C 
ATOM     28  C   UNL     1       4.984   4.482  15.913  0.00  0.00    +0.000 C 
ATOM     29  H   UNL     1       8.309   5.000  15.544  0.00  0.00    +0.000 HD
ENDBRANCH  21  23
ENDBRANCH  13  17
TORSDOF 2
ENDMDL
MODEL 3
REMARK VINA RESULT:      -8.5      2.340      3.363
REMARK  Name = 
REMARK  2 active torsions:
REMARK  status: ('A' for Active; 'I' for Inactive)
REMARK    1  A    between atoms: N_13  and  C_14
REMARK    2  A    between atoms: C_18  and  N_19
REMARK                            x       y       z     vdW  Elec       q    Type
REMARK                         _______ _______ _______ _____ _____    ______ ____
ROOT
ATOM      1  O   UNL     1      -1.359  12.239  19.336  0.00  0.00    +0.000 OA
ATOM      2  C   UNL     1      -1.436  11.883  20.509  0.00  0.00    +0.000 A 
ATOM      3  C   UNL     1      -2.391  12.571  21.430  0.00  0.00    +0.000 A 
ATOM      4  C   UNL     1      -3.269  13.563  20.973  0.00  0.00    +0.000 A 
ATOM      5  C   UNL     1      -4.188  14.141  21.856  0.00  0.00    +0.000 A 
ATOM      6  C   UNL     1      -4.225  13.741  23.191  0.00  0.00    +0.000 A 
ATOM      7  C   UNL     1      -3.337  12.767  23.647  0.00  0.00    +0.000 A 
ATOM      8  C   UNL     1      -2.420  12.174  22.775  0.00  0.00    +0.000 A 
ATOM      9  N   UNL     1      -1.581  11.177  23.289  0.00  0.00    +0.000 NA
ATOM     10  C   UNL     1      -0.808  10.593  22.441  0.00  0.00    +0.000 A 
ATOM     11  S   UNL     1       0.249   9.309  22.883  0.00  0.00    +0.000 S 
ATOM     12  C   UNL     1       0.696   9.163  21.180  0.00  0.00    +0.000 A 
ATOM     13  N   UNL     1       1.551   8.114  21.003  0.00  0.00    +0.000 N 
ATOM     14  N   UNL     1       0.158  10.033  20.385  0.00  0.00    +0.000 NA
ATOM     15  N   UNL     1      -0.703  10.860  21.104  0.00  0.00    +0.000 N 
ATOM     16  H   UNL     1       1.755   7.613  21.859  0.00  0.00    +0.000 HD
ENDROOT
BRANCH  13  17
ATOM     17  C   UNL     1       2.121   7.531  19.864  0.00  0.00    +0.000 A 
ATOM     18  C   UNL     1       2.334   8.345  18.739  0.00  0.00    +0.000 A 
ATOM     19  C   UNL     1       2.908   7.839  17.575  0.00  0.00    +0.000 A 
ATOM     20  C   UNL     1       3.279   6.499  17.510  0.00  0.00    +0.000 A 
ATOM     21  C   UNL     1       3.072   5.650  18.599  0.00  0.00    +0.000 A 
ATOM     22  C   UNL     1       2.502   6.194  19.772  0.00  0.00    +0.000 A 
BRANCH  21  23
ATOM     23  N   UNL     1       3.433   4.318  18.585  0.00  0.00    +0.000 N 
ATOM     24  C   UNL     1       4.564   3.782  19.350  0.00  0.00    +0.000 C 
ATOM     25  C   UNL     1       4.221   2.323  19.748  0.00  0.00    +0.000 C 
ATOM     26  N   UNL     1       3.861   1.451  18.605  0.00  0.00    +0.000 NA
ATOM     27  C   UNL     1       2.801   2.092  17.794  0.00  0.00    +0.000 C 
ATOM     28  C   UNL     1       3.135   3.537  17.375  0.00  0.00    +0.000 C 
ATOM     29  H   UNL     1       3.493   0.573  18.971  0.00  0.00    +0.000 HD
ENDBRANCH  21  23
ENDBRANCH  13  17
TORSDOF 2
ENDMDL
MODEL 4
REMARK VINA RESULT:      -8.4      1.754      2.040
REMARK  Name = 
REMARK  2 active torsions:
REMARK  status: ('A' for Active; 'I' for Inactive)
REMARK    1  A    between atoms: N_13  and  C_14
REMARK    2  A    between atoms: C_18  and  N_19
REMARK                            x       y       z     vdW  Elec       q    Type
REMARK                         _______ _______ _______ _____ _____    ______ ____
ROOT
ATOM      1  O   UNL     1      -1.126  10.858  18.741  0.00  0.00    +0.000 OA
ATOM      2  C   UNL     1      -0.901  10.933  19.946  0.00  0.00    +0.000 A 
ATOM      3  C   UNL     1      -1.531  12.025  20.749  0.00  0.00    +0.000 A 
ATOM      4  C   UNL     1      -2.444  12.924  20.181  0.00  0.00    +0.000 A 
ATOM      5  C   UNL     1      -3.055  13.896  20.981  0.00  0.00    +0.000 A 
ATOM      6  C   UNL     1      -2.751  13.979  22.340  0.00  0.00    +0.000 A 
ATOM      7  C   UNL     1      -1.827  13.094  22.898  0.00  0.00    +0.000 A 
ATOM      8  C   UNL     1      -1.216  12.113  22.113  0.00  0.00    +0.000 A 
ATOM      9  N   UNL     1      -0.325  11.235  22.744  0.00  0.00    +0.000 NA
ATOM     10  C   UNL     1       0.155  10.291  22.012  0.00  0.00    +0.000 A 
ATOM     11  S   UNL     1       1.220   9.089  22.630  0.00  0.00    +0.000 S 
ATOM     12  C   UNL     1       1.179   8.313  21.042  0.00  0.00    +0.000 A 
ATOM     13  N   UNL     1       1.894   7.151  21.065  0.00  0.00    +0.000 N 
ATOM     14  N   UNL     1       0.494   8.934  20.135  0.00  0.00    +0.000 NA
ATOM     15  N   UNL     1      -0.092  10.074  20.683  0.00  0.00    +0.000 N 
ATOM     16  H   UNL     1       2.294   6.943  21.972  0.00  0.00    +0.000 HD
ENDROOT
BRANCH  13  17
ATOM     17  C   UNL     1       2.100   6.141  20.117  0.00  0.00    +0.000 A 
ATOM     18  C   UNL     1       1.249   5.023  20.143  0.00  0.00    +0.000 A 
ATOM     19  C   UNL     1       1.386   3.986  19.224  0.00  0.00    +0.000 A 
ATOM     20  C   UNL     1       2.385   4.042  18.257  0.00  0.00    +0.000 A 
ATOM     21  C   UNL     1       3.263   5.126  18.204  0.00  0.00    +0.000 A 
ATOM     22  C   UNL     1       3.092   6.172  19.139  0.00  0.00    +0.000 A 
BRANCH  21  23
ATOM     23  N   UNL     1       4.263   5.231  17.257  0.00  0.00    +0.000 N 
ATOM     24  C   UNL     1       5.152   4.121  16.899  0.00  0.00    +0.000 C 
ATOM     25  C   UNL     1       5.537   4.281  15.406  0.00  0.00    +0.000 C 
ATOM     26  N   UNL     1       6.130   5.597  15.071  0.00  0.00    +0.000 NA
ATOM     27  C   UNL     1       5.255   6.686  15.561  0.00  0.00    +0.000 C 
ATOM     28  C   UNL     1       4.877   6.551  17.050  0.00  0.00    +0.000 C 
ATOM     29  H   UNL     1       6.194   5.674  14.056  0.00  0.00    +0.000 HD
ENDBRANCH  21  23
ENDBRANCH  13  17
TORSDOF 2
ENDMDL
MODEL 5
REMARK VINA RESULT:      -8.3      3.323      4.235
REMARK  Name = 
REMARK  2 active torsions:
REMARK  status: ('A' for Active; 'I' for Inactive)
REMARK    1  A    between atoms: N_13  and  C_14
REMARK    2  A    between atoms: C_18  and  N_19
REMARK                            x       y       z     vdW  Elec       q    Type
REMARK                         _______ _______ _______ _____ _____    ______ ____
ROOT
ATOM      1  O   UNL     1      -2.604   9.649  16.170  0.00  0.00    +0.000 OA
ATOM      2  C   UNL     1      -2.473  10.265  17.225  0.00  0.00    +0.000 A 
ATOM      3  C   UNL     1      -3.575  11.154  17.703  0.00  0.00    +0.000 A 
ATOM      4  C   UNL     1      -4.797  11.244  17.022  0.00  0.00    +0.000 A 
ATOM      5  C   UNL     1      -5.824  12.045  17.535  0.00  0.00    +0.000 A 
ATOM      6  C   UNL     1      -5.631  12.761  18.716  0.00  0.00    +0.000 A 
ATOM      7  C   UNL     1      -4.407  12.683  19.381  0.00  0.00    +0.000 A 
ATOM      8  C   UNL     1      -3.376  11.881  18.886  0.00  0.00    +0.000 A 
ATOM      9  N   UNL     1      -2.185  11.821  19.621  0.00  0.00    +0.000 NA
ATOM     10  C   UNL     1      -1.289  11.008  19.183  0.00  0.00    +0.000 A 
ATOM     11  S   UNL     1       0.212  10.764  19.988  0.00  0.00    +0.000 S 
ATOM     12  C   UNL     1       0.593   9.525  18.786  0.00  0.00    +0.000 A 
ATOM     13  N   UNL     1       1.784   8.928  19.083  0.00  0.00    +0.000 N 
ATOM     14  N   UNL     1      -0.285   9.369  17.847  0.00  0.00    +0.000 NA
ATOM     15  N   UNL     1      -1.366  10.222  18.066  0.00  0.00    +0.000 N 
ATOM     16  H   UNL     1       2.214   9.285  19.928  0.00  0.00    +0.000 HD
ENDROOT
BRANCH  13  17
ATOM     17  C   UNL     1       2.480   7.855  18.512  0.00  0.00    +0.000 A 
ATOM     18  C   UNL     1       3.528   8.143  17.622  0.00  0.00    +0.000 A 
ATOM     19  C   UNL     1       4.273   7.129  17.025  0.00  0.00    +0.000 A 
ATOM     20  C   UNL     1       3.981   5.797  17.305  0.00  0.00    +0.000 A 
ATOM     21  C   UNL     1       2.938   5.464  18.172  0.00  0.00    +0.000 A 
ATOM     22  C   UNL     1       2.209   6.514  18.775  0.00  0.00    +0.000 A 
BRANCH  21  23
ATOM     23  N   UNL     1       2.618   4.158  18.487  0.00  0.00    +0.000 N 
ATOM     24  C   UNL     1       1.415   3.784  19.237  0.00  0.00    +0.000 C 
ATOM     25  C   UNL     1       0.962   2.385  18.743  0.00  0.00    +0.000 C 
ATOM     26  N   UNL     1       2.013   1.344  18.824  0.00  0.00    +0.000 NA
ATOM     27  C   UNL     1       3.247   1.818  18.159  0.00  0.00    +0.000 C 
ATOM     28  C   UNL     1       3.721   3.200  18.652  0.00  0.00    +0.000 C 
ATOM     29  H   UNL     1       1.685   0.515  18.330  0.00  0.00    +0.000 HD
ENDBRANCH  21  23
ENDBRANCH  13  17
TORSDOF 2
ENDMDL
MODEL 6
REMARK VINA RESULT:      -8.3      0.692      1.169
REMARK  Name = 
REMARK  2 active torsions:
REMARK  status: ('A' for Active; 'I' for Inactive)
REMARK    1  A    between atoms: N_13  and  C_14
REMARK    2  A    between atoms: C_18  and  N_19
REMARK                            x       y       z     vdW  Elec       q    Type
REMARK                         _______ _______ _______ _____ _____    ______ ____
ROOT
ATOM      1  O   UNL     1       1.373  11.332  18.031  0.00  0.00    +0.000 OA
ATOM      2  C   UNL     1       0.976  11.316  19.193  0.00  0.00    +0.000 A 
ATOM      3  C   UNL     1       0.316  12.528  19.766  0.00  0.00    +0.000 A 
ATOM      4  C   UNL     1       0.058  13.664  18.988  0.00  0.00    +0.000 A 
ATOM      5  C   UNL     1      -0.613  14.756  19.548  0.00  0.00    +0.000 A 
ATOM      6  C   UNL     1      -1.019  14.721  20.882  0.00  0.00    +0.000 A 
ATOM      7  C   UNL     1      -0.746  13.596  21.659  0.00  0.00    +0.000 A 
ATOM      8  C   UNL     1      -0.083  12.494  21.111  0.00  0.00    +0.000 A 
ATOM      9  N   UNL     1       0.129  11.383  21.936  0.00  0.00    +0.000 NA
ATOM     10  C   UNL     1       0.665  10.355  21.378  0.00  0.00    +0.000 A 
ATOM     11  S   UNL     1       0.950   8.883  22.223  0.00  0.00    +0.000 S 
ATOM     12  C   UNL     1       1.521   8.184  20.704  0.00  0.00    +0.000 A 
ATOM     13  N   UNL     1       1.822   6.863  20.875  0.00  0.00    +0.000 N 
ATOM     14  N   UNL     1       1.556   8.994  19.694  0.00  0.00    +0.000 NA
ATOM     15  N   UNL     1       1.071  10.244  20.076  0.00  0.00    +0.000 N 
ATOM     16  H   UNL     1       1.651   6.530  21.816  0.00  0.00    +0.000 HD
ENDROOT
BRANCH  13  17
ATOM     17  C   UNL     1       2.222   5.855  19.988  0.00  0.00    +0.000 A 
ATOM     18  C   UNL     1       1.431   4.698  19.900  0.00  0.00    +0.000 A 
ATOM     19  C   UNL     1       1.759   3.659  19.032  0.00  0.00    +0.000 A 
ATOM     20  C   UNL     1       2.894   3.755  18.233  0.00  0.00    +0.000 A 
ATOM     21  C   UNL     1       3.718   4.880  18.299  0.00  0.00    +0.000 A 
ATOM     22  C   UNL     1       3.353   5.926  19.177  0.00  0.00    +0.000 A 
BRANCH  21  23
ATOM     23  N   UNL     1       4.849   5.025  17.519  0.00  0.00    +0.000 N 
ATOM     24  C   UNL     1       5.024   4.360  16.224  0.00  0.00    +0.000 C 
ATOM     25  C   UNL     1       5.896   5.279  15.330  0.00  0.00    +0.000 C 
ATOM     26  N   UNL     1       7.192   5.662  15.937  0.00  0.00    +0.000 NA
ATOM     27  C   UNL     1       6.972   6.215  17.293  0.00  0.00    +0.000 C 
ATOM     28  C   UNL     1       6.122   5.304  18.200  0.00  0.00    +0.000 C 
ATOM     29  H   UNL     1       7.615   6.390  15.363  0.00  0.00    +0.000 HD
ENDBRANCH  21  23
ENDBRANCH  13  17
TORSDOF 2
ENDMDL
MODEL 7
REMARK VINA RESULT:      -8.3      2.539      3.589
REMARK  Name = 
REMARK  2 active torsions:
REMARK  status: ('A' for Active; 'I' for Inactive)
REMARK    1  A    between atoms: N_13  and  C_14
REMARK    2  A    between atoms: C_18  and  N_19
REMARK                            x       y       z     vdW  Elec       q    Type
REMARK                         _______ _______ _______ _____ _____    ______ ____
ROOT
ATOM      1  O   UNL     1      -1.542  12.173  19.385  0.00  0.00    +0.000 OA
ATOM      2  C   UNL     1      -1.594  11.869  20.574  0.00  0.00    +0.000 A 
ATOM      3  C   UNL     1      -2.536  12.591  21.481  0.00  0.00    +0.000 A 
ATOM      4  C   UNL     1      -3.431  13.555  20.998  0.00  0.00    +0.000 A 
ATOM      5  C   UNL     1      -4.337  14.167  21.872  0.00  0.00    +0.000 A 
ATOM      6  C   UNL     1      -4.345  13.826  23.224  0.00  0.00    +0.000 A 
ATOM      7  C   UNL     1      -3.441  12.879  23.705  0.00  0.00    +0.000 A 
ATOM      8  C   UNL     1      -2.537  12.254  22.843  0.00  0.00    +0.000 A 
ATOM      9  N   UNL     1      -1.681  11.287  23.385  0.00  0.00    +0.000 NA
ATOM     10  C   UNL     1      -0.920  10.671  22.550  0.00  0.00    +0.000 A 
ATOM     11  S   UNL     1       0.156   9.416  23.028  0.00  0.00    +0.000 S 
ATOM     12  C   UNL     1       0.571   9.197  21.324  0.00  0.00    +0.000 A 
ATOM     13  N   UNL     1       1.430   8.146  21.177  0.00  0.00    +0.000 N 
ATOM     14  N   UNL     1       0.011  10.026  20.501  0.00  0.00    +0.000 NA
ATOM     15  N   UNL     1      -0.842  10.879  21.199  0.00  0.00    +0.000 N 
ATOM     16  H   UNL     1       1.654   7.685  22.051  0.00  0.00    +0.000 HD
ENDROOT
BRANCH  13  17
ATOM     17  C   UNL     1       1.983   7.517  20.054  0.00  0.00    +0.000 A 
ATOM     18  C   UNL     1       2.299   8.310  18.939  0.00  0.00    +0.000 A 
ATOM     19  C   UNL     1       2.862   7.757  17.792  0.00  0.00    +0.000 A 
ATOM     20  C   UNL     1       3.120   6.390  17.734  0.00  0.00    +0.000 A 
ATOM     21  C   UNL     1       2.808   5.561  18.814  0.00  0.00    +0.000 A 
ATOM     22  C   UNL     1       2.251   6.152  19.971  0.00  0.00    +0.000 A 
BRANCH  21  23
ATOM     23  N   UNL     1       3.054   4.203  18.808  0.00  0.00    +0.000 N 
ATOM     24  C   UNL     1       2.497   3.289  17.805  0.00  0.00    +0.000 C 
ATOM     25  C   UNL     1       3.514   2.138  17.593  0.00  0.00    +0.000 C 
ATOM     26  N   UNL     1       3.897   1.430  18.837  0.00  0.00    +0.000 NA
ATOM     27  C   UNL     1       4.336   2.406  19.859  0.00  0.00    +0.000 C 
ATOM     28  C   UNL     1       3.327   3.547  20.095  0.00  0.00    +0.000 C 
ATOM     29  H   UNL     1       4.682   0.813  18.629  0.00  0.00    +0.000 HD
ENDBRANCH  21  23
ENDBRANCH  13  17
TORSDOF 2
ENDMDL
MODEL 8
REMARK VINA RESULT:      -8.3      3.278      4.173
REMARK  Name = 
REMARK  2 active torsions:
REMARK  status: ('A' for Active; 'I' for Inactive)
REMARK    1  A    between atoms: N_13  and  C_14
REMARK    2  A    between atoms: C_18  and  N_19
REMARK                            x       y       z     vdW  Elec       q    Type
REMARK                         _______ _______ _______ _____ _____    ______ ____
ROOT
ATOM      1  O   UNL     1      -2.373   9.660  15.990  0.00  0.00    +0.000 OA
ATOM      2  C   UNL     1      -2.265  10.225  17.076  0.00  0.00    +0.000 A 
ATOM      3  C   UNL     1      -3.377  11.092  17.571  0.00  0.00    +0.000 A 
ATOM      4  C   UNL     1      -4.584  11.216  16.870  0.00  0.00    +0.000 A 
ATOM      5  C   UNL     1      -5.621  11.992  17.398  0.00  0.00    +0.000 A 
ATOM      6  C   UNL     1      -5.454  12.650  18.616  0.00  0.00    +0.000 A 
ATOM      7  C   UNL     1      -4.246  12.540  19.303  0.00  0.00    +0.000 A 
ATOM      8  C   UNL     1      -3.204  11.761  18.792  0.00  0.00    +0.000 A 
ATOM      9  N   UNL     1      -2.029  11.664  19.549  0.00  0.00    +0.000 NA
ATOM     10  C   UNL     1      -1.123  10.873  19.092  0.00  0.00    +0.000 A 
ATOM     11  S   UNL     1       0.360  10.588  19.917  0.00  0.00    +0.000 S 
ATOM     12  C   UNL     1       0.767   9.409  18.666  0.00  0.00    +0.000 A 
ATOM     13  N   UNL     1       1.951   8.796  18.960  0.00  0.00    +0.000 N 
ATOM     14  N   UNL     1      -0.091   9.299  17.702  0.00  0.00    +0.000 NA
ATOM     15  N   UNL     1      -1.176  10.141  17.938  0.00  0.00    +0.000 N 
ATOM     16  H   UNL     1       2.362   9.112  19.830  0.00  0.00    +0.000 HD
ENDROOT
BRANCH  13  17
ATOM     17  C   UNL     1       2.660   7.751  18.353  0.00  0.00    +0.000 A 
ATOM     18  C   UNL     1       3.766   8.078  17.551  0.00  0.00    +0.000 A 
ATOM     19  C   UNL     1       4.525   7.092  16.926  0.00  0.00    +0.000 A 
ATOM     20  C   UNL     1       4.190   5.751  17.088  0.00  0.00    +0.000 A 
ATOM     21  C   UNL     1       3.090   5.381  17.863  0.00  0.00    +0.000 A 
ATOM     22  C   UNL     1       2.346   6.401  18.498  0.00  0.00    +0.000 A 
BRANCH  21  23
ATOM     23  N   UNL     1       2.724   4.064  18.061  0.00  0.00    +0.000 N 
ATOM     24  C   UNL     1       3.484   2.929  17.525  0.00  0.00    +0.000 C 
ATOM     25  C   UNL     1       3.324   1.742  18.511  0.00  0.00    +0.000 C 
ATOM     26  N   UNL     1       1.917   1.381  18.802  0.00  0.00    +0.000 NA
ATOM     27  C   UNL     1       1.162   2.583  19.221  0.00  0.00    +0.000 C 
ATOM     28  C   UNL     1       1.296   3.767  18.242  0.00  0.00    +0.000 C 
ATOM     29  H   UNL     1       1.908   0.716  19.574  0.00  0.00    +0.000 HD
ENDBRANCH  21  23
ENDBRANCH  13  17
TORSDOF 2
ENDMDL
MODEL 9
REMARK VINA RESULT:      -7.9      2.083      2.779
REMARK  Name = 
REMARK  2 active torsions:
REMARK  status: ('A' for Active; 'I' for Inactive)
REMARK    1  A    between atoms: N_13  and  C_14
REMARK    2  A    between atoms: C_18  and  N_19
REMARK                            x       y       z     vdW  Elec       q    Type
REMARK                         _______ _______ _______ _____ _____    ______ ____
ROOT
ATOM      1  O   UNL     1      -0.117  10.417  23.124  0.00  0.00    +0.000 OA
ATOM      2  C   UNL     1      -0.361  11.053  22.101  0.00  0.00    +0.000 A 
ATOM      3  C   UNL     1      -1.070  12.364  22.198  0.00  0.00    +0.000 A 
ATOM      4  C   UNL     1      -1.395  12.937  23.435  0.00  0.00    +0.000 A 
ATOM      5  C   UNL     1      -2.008  14.194  23.483  0.00  0.00    +0.000 A 
ATOM      6  C   UNL     1      -2.305  14.875  22.302  0.00  0.00    +0.000 A 
ATOM      7  C   UNL     1      -1.997  14.294  21.072  0.00  0.00    +0.000 A 
ATOM      8  C   UNL     1      -1.377  13.043  21.009  0.00  0.00    +0.000 A 
ATOM      9  N   UNL     1      -1.063  12.533  19.743  0.00  0.00    +0.000 NA
ATOM     10  C   UNL     1      -0.418  11.420  19.724  0.00  0.00    +0.000 A 
ATOM     11  S   UNL     1       0.098  10.673  18.261  0.00  0.00    +0.000 S 
ATOM     12  C   UNL     1       0.894   9.434  19.239  0.00  0.00    +0.000 A 
ATOM     13  N   UNL     1       1.576   8.565  18.437  0.00  0.00    +0.000 N 
ATOM     14  N   UNL     1       0.726   9.539  20.518  0.00  0.00    +0.000 NA
ATOM     15  N   UNL     1      -0.031  10.674  20.803  0.00  0.00    +0.000 N 
ATOM     16  H   UNL     1       1.516   8.794  17.452  0.00  0.00    +0.000 HD
ENDROOT
BRANCH  13  17
ATOM     17  C   UNL     1       2.423   7.482  18.709  0.00  0.00    +0.000 A 
ATOM     18  C   UNL     1       2.147   6.692  19.837  0.00  0.00    +0.000 A 
ATOM     19  C   UNL     1       2.937   5.593  20.164  0.00  0.00    +0.000 A 
ATOM     20  C   UNL     1       4.027   5.260  19.366  0.00  0.00    +0.000 A 
ATOM     21  C   UNL     1       4.347   6.026  18.243  0.00  0.00    +0.000 A 
ATOM     22  C   UNL     1       3.520   7.127  17.927  0.00  0.00    +0.000 A 
BRANCH  21  23
ATOM     23  N   UNL     1       5.413   5.730  17.417  0.00  0.00    +0.000 N 
ATOM     24  C   UNL     1       6.792   5.598  17.897  0.00  0.00    +0.000 C 
ATOM     25  C   UNL     1       7.511   4.556  17.002  0.00  0.00    +0.000 C 
ATOM     26  N   UNL     1       7.456   4.861  15.553  0.00  0.00    +0.000 NA
ATOM     27  C   UNL     1       6.055   5.106  15.141  0.00  0.00    +0.000 C 
ATOM     28  C   UNL     1       5.331   6.153  16.011  0.00  0.00    +0.000 C 
ATOM     29  H   UNL     1       7.800   4.051  15.039  0.00  0.00    +0.000 HD
ENDBRANCH  21  23
ENDBRANCH  13  17
TORSDOF 2
ENDMDL
