MODEL 1
REMARK VINA RESULT:      -7.3      0.000      0.000
REMARK  Name = 
REMARK  3 active torsions:
REMARK  status: ('A' for Active; 'I' for Inactive)
REMARK    1  A    between atoms: N_3  and  C_4
REMARK    2  A    between atoms: N_14  and  C_15
REMARK    3  A    between atoms: C_15  and  C_16
REMARK                            x       y       z     vdW  Elec       q    Type
REMARK                         _______ _______ _______ _____ _____    ______ ____
ROOT
ATOM      1  O   UNL     1       8.180   4.231  17.048  0.00  0.00    +0.000 OA
ATOM      2  C   UNL     1       6.954   4.310  17.107  0.00  0.00    +0.000 C 
ATOM      3  N   UNL     1       6.101   4.378  16.040  0.00  0.00    +0.000 N 
ATOM      4  N   UNL     1       6.372   4.392  18.346  0.00  0.00    +0.000 N 
ATOM      5  C   UNL     1       5.033   4.376  18.661  0.00  0.00    +0.000 A 
ATOM      6  C   UNL     1       4.515   4.514  19.968  0.00  0.00    +0.000 A 
ATOM      7  C   UNL     1       3.152   4.387  19.834  0.00  0.00    +0.000 A 
ATOM      8  N   UNL     1       2.930   4.161  18.508  0.00  0.00    +0.000 N 
ATOM      9  N   UNL     1       4.051   4.215  17.765  0.00  0.00    +0.000 NA
ATOM     10  H   UNL     1       5.130   4.537  16.303  0.00  0.00    +0.000 HD
ATOM     11  H   UNL     1       7.033   4.429  19.108  0.00  0.00    +0.000 HD
ENDROOT
BRANCH   3  12
ATOM     12  C   UNL     1       6.415   4.358  14.673  0.00  0.00    +0.000 A 
ATOM     13  C   UNL     1       5.834   3.494  13.751  0.00  0.00    +0.000 A 
ATOM     14  C   UNL     1       6.230   3.542  12.415  0.00  0.00    +0.000 A 
ATOM     15  C   UNL     1       7.203   4.455  12.044  0.00  0.00    +0.000 A 
ATOM     16  N   UNL     1       7.779   5.324  12.901  0.00  0.00    +0.000 NA
ATOM     17  C   UNL     1       7.366   5.257  14.190  0.00  0.00    +0.000 A 
ENDBRANCH   3  12
BRANCH   8  18
ATOM     18  C   UNL     1       1.665   3.864  17.876  0.00  0.00    +0.000 C 
BRANCH  18  19
ATOM     19  C   UNL     1       1.043   2.623  18.467  0.00  0.00    +0.000 C 
ATOM     20  F   UNL     1       2.014   1.743  18.829  0.00  0.00    +0.000 F 
ATOM     21  F   UNL     1       0.395   2.955  19.616  0.00  0.00    +0.000 F 
ENDBRANCH  18  19
ENDBRANCH   8  18
TORSDOF 3
ENDMDL
MODEL 2
REMARK VINA RESULT:      -7.2      2.759      3.910
REMARK  Name = 
REMARK  3 active torsions:
REMARK  status: ('A' for Active; 'I' for Inactive)
REMARK    1  A    between atoms: N_3  and  C_4
REMARK    2  A    between atoms: N_14  and  C_15
REMARK    3  A    between atoms: C_15  and  C_16
REMARK                            x       y       z     vdW  Elec       q    Type
REMARK                         _______ _______ _______ _____ _____    ______ ____
ROOT
ATOM      1  O   UNL     1       6.355   4.077  15.672  0.00  0.00    +0.000 OA
ATOM      2  C   UNL     1       5.644   4.066  16.675  0.00  0.00    +0.000 C 
ATOM      3  N   UNL     1       5.719   4.942  17.722  0.00  0.00    +0.000 N 
ATOM      4  N   UNL     1       4.722   3.058  16.801  0.00  0.00    +0.000 N 
ATOM      5  C   UNL     1       3.756   2.905  17.768  0.00  0.00    +0.000 A 
ATOM      6  C   UNL     1       2.871   1.806  17.850  0.00  0.00    +0.000 A 
ATOM      7  C   UNL     1       2.050   2.081  18.918  0.00  0.00    +0.000 A 
ATOM      8  N   UNL     1       2.447   3.296  19.389  0.00  0.00    +0.000 N 
ATOM      9  N   UNL     1       3.524   3.787  18.748  0.00  0.00    +0.000 NA
ATOM     10  H   UNL     1       5.108   4.702  18.500  0.00  0.00    +0.000 HD
ATOM     11  H   UNL     1       4.754   2.379  16.056  0.00  0.00    +0.000 HD
ENDROOT
BRANCH   3  12
ATOM     12  C   UNL     1       6.586   6.034  17.883  0.00  0.00    +0.000 A 
ATOM     13  C   UNL     1       7.647   6.062  18.781  0.00  0.00    +0.000 A 
ATOM     14  C   UNL     1       8.440   7.205  18.878  0.00  0.00    +0.000 A 
ATOM     15  C   UNL     1       8.140   8.290  18.070  0.00  0.00    +0.000 A 
ATOM     16  N   UNL     1       7.132   8.299  17.173  0.00  0.00    +0.000 NA
ATOM     17  C   UNL     1       6.387   7.170  17.098  0.00  0.00    +0.000 A 
ENDBRANCH   3  12
BRANCH   8  18
ATOM     18  C   UNL     1       1.829   4.065  20.444  0.00  0.00    +0.000 C 
BRANCH  18  19
ATOM     19  C   UNL     1       1.967   3.367  21.774  0.00  0.00    +0.000 C 
ATOM     20  F   UNL     1       0.922   2.520  21.967  0.00  0.00    +0.000 F 
ATOM     21  F   UNL     1       3.081   2.586  21.752  0.00  0.00    +0.000 F 
ENDBRANCH  18  19
ENDBRANCH   8  18
TORSDOF 3
ENDMDL
MODEL 3
REMARK VINA RESULT:      -7.1      3.182      6.424
REMARK  Name = 
REMARK  3 active torsions:
REMARK  status: ('A' for Active; 'I' for Inactive)
REMARK    1  A    between atoms: N_3  and  C_4
REMARK    2  A    between atoms: N_14  and  C_15
REMARK    3  A    between atoms: C_15  and  C_16
REMARK                            x       y       z     vdW  Elec       q    Type
REMARK                         _______ _______ _______ _____ _____    ______ ____
ROOT
ATOM      1  O   UNL     1       6.399   6.127  17.274  0.00  0.00    +0.000 OA
ATOM      2  C   UNL     1       6.227   5.338  16.346  0.00  0.00    +0.000 C 
ATOM      3  N   UNL     1       5.380   4.265  16.351  0.00  0.00    +0.000 N 
ATOM      4  N   UNL     1       6.983   5.501  15.213  0.00  0.00    +0.000 N 
ATOM      5  C   UNL     1       6.888   4.820  14.022  0.00  0.00    +0.000 A 
ATOM      6  C   UNL     1       7.743   5.020  12.914  0.00  0.00    +0.000 A 
ATOM      7  C   UNL     1       7.266   4.184  11.933  0.00  0.00    +0.000 A 
ATOM      8  N   UNL     1       6.174   3.567  12.468  0.00  0.00    +0.000 N 
ATOM      9  N   UNL     1       5.964   3.888  13.759  0.00  0.00    +0.000 NA
ATOM     10  H   UNL     1       5.457   3.680  15.521  0.00  0.00    +0.000 HD
ATOM     11  H   UNL     1       7.660   6.247  15.276  0.00  0.00    +0.000 HD
ENDROOT
BRANCH   3  12
ATOM     12  C   UNL     1       4.526   3.835  17.378  0.00  0.00    +0.000 A 
ATOM     13  C   UNL     1       4.931   3.616  18.690  0.00  0.00    +0.000 A 
ATOM     14  C   UNL     1       4.006   3.171  19.633  0.00  0.00    +0.000 A 
ATOM     15  C   UNL     1       2.699   2.954  19.229  0.00  0.00    +0.000 A 
ATOM     16  N   UNL     1       2.259   3.171  17.972  0.00  0.00    +0.000 NA
ATOM     17  C   UNL     1       3.181   3.612  17.082  0.00  0.00    +0.000 A 
ENDBRANCH   3  12
BRANCH   8  18
ATOM     18  C   UNL     1       5.266   2.667  11.796  0.00  0.00    +0.000 C 
BRANCH  18  19
ATOM     19  C   UNL     1       3.969   3.359  11.460  0.00  0.00    +0.000 C 
ATOM     20  F   UNL     1       4.183   4.324  10.528  0.00  0.00    +0.000 F 
ATOM     21  F   UNL     1       3.124   2.463  10.881  0.00  0.00    +0.000 F 
ENDBRANCH  18  19
ENDBRANCH   8  18
TORSDOF 3
ENDMDL
MODEL 4
REMARK VINA RESULT:      -7.0      3.478      6.660
REMARK  Name = 
REMARK  3 active torsions:
REMARK  status: ('A' for Active; 'I' for Inactive)
REMARK    1  A    between atoms: N_3  and  C_4
REMARK    2  A    between atoms: N_14  and  C_15
REMARK    3  A    between atoms: C_15  and  C_16
REMARK                            x       y       z     vdW  Elec       q    Type
REMARK                         _______ _______ _______ _____ _____    ______ ____
ROOT
ATOM      1  O   UNL     1       5.756   6.121  17.367  0.00  0.00    +0.000 OA
ATOM      2  C   UNL     1       5.773   5.320  16.434  0.00  0.00    +0.000 C 
ATOM      3  N   UNL     1       5.060   4.155  16.362  0.00  0.00    +0.000 N 
ATOM      4  N   UNL     1       6.618   5.572  15.384  0.00  0.00    +0.000 N 
ATOM      5  C   UNL     1       6.726   4.887  14.196  0.00  0.00    +0.000 A 
ATOM      6  C   UNL     1       7.662   5.187  13.180  0.00  0.00    +0.000 A 
ATOM      7  C   UNL     1       7.389   4.304  12.163  0.00  0.00    +0.000 A 
ATOM      8  N   UNL     1       6.327   3.563  12.589  0.00  0.00    +0.000 N 
ATOM      9  N   UNL     1       5.948   3.855  13.847  0.00  0.00    +0.000 NA
ATOM     10  H   UNL     1       5.290   3.585  15.550  0.00  0.00    +0.000 HD
ATOM     11  H   UNL     1       7.194   6.391  15.509  0.00  0.00    +0.000 HD
ENDROOT
BRANCH   3  12
ATOM     12  C   UNL     1       4.159   3.627  17.300  0.00  0.00    +0.000 A 
ATOM     13  C   UNL     1       2.788   3.523  17.092  0.00  0.00    +0.000 A 
ATOM     14  C   UNL     1       1.975   3.000  18.096  0.00  0.00    +0.000 A 
ATOM     15  C   UNL     1       2.564   2.599  19.284  0.00  0.00    +0.000 A 
ATOM     16  N   UNL     1       3.891   2.665  19.521  0.00  0.00    +0.000 NA
ATOM     17  C   UNL     1       4.653   3.170  18.521  0.00  0.00    +0.000 A 
ENDBRANCH   3  12
BRANCH   8  18
ATOM     18  C   UNL     1       5.604   2.565  11.836  0.00  0.00    +0.000 C 
BRANCH  18  19
ATOM     19  C   UNL     1       6.471   1.362  11.560  0.00  0.00    +0.000 C 
ATOM     20  F   UNL     1       5.701   0.312  11.169  0.00  0.00    +0.000 F 
ATOM     21  F   UNL     1       7.289   1.636  10.508  0.00  0.00    +0.000 F 
ENDBRANCH  18  19
ENDBRANCH   8  18
TORSDOF 3
ENDMDL
MODEL 5
REMARK VINA RESULT:      -7.0      2.422      3.106
REMARK  Name = 
REMARK  3 active torsions:
REMARK  status: ('A' for Active; 'I' for Inactive)
REMARK    1  A    between atoms: N_3  and  C_4
REMARK    2  A    between atoms: N_14  and  C_15
REMARK    3  A    between atoms: C_15  and  C_16
REMARK                            x       y       z     vdW  Elec       q    Type
REMARK                         _______ _______ _______ _____ _____    ______ ____
ROOT
ATOM      1  O   UNL     1       4.019   7.716  17.167  0.00  0.00    +0.000 OA
ATOM      2  C   UNL     1       3.838   6.628  17.711  0.00  0.00    +0.000 C 
ATOM      3  N   UNL     1       4.403   5.440  17.338  0.00  0.00    +0.000 N 
ATOM      4  N   UNL     1       2.950   6.569  18.755  0.00  0.00    +0.000 N 
ATOM      5  C   UNL     1       2.674   5.502  19.577  0.00  0.00    +0.000 A 
ATOM      6  C   UNL     1       1.704   5.512  20.606  0.00  0.00    +0.000 A 
ATOM      7  C   UNL     1       1.795   4.277  21.202  0.00  0.00    +0.000 A 
ATOM      8  N   UNL     1       2.793   3.620  20.546  0.00  0.00    +0.000 N 
ATOM      9  N   UNL     1       3.298   4.319  19.512  0.00  0.00    +0.000 NA
ATOM     10  H   UNL     1       4.048   4.639  17.857  0.00  0.00    +0.000 HD
ATOM     11  H   UNL     1       2.485   7.444  18.947  0.00  0.00    +0.000 HD
ENDROOT
BRANCH   3  12
ATOM     12  C   UNL     1       5.305   5.196  16.291  0.00  0.00    +0.000 A 
ATOM     13  C   UNL     1       5.006   4.436  15.166  0.00  0.00    +0.000 A 
ATOM     14  C   UNL     1       5.981   4.237  14.189  0.00  0.00    +0.000 A 
ATOM     15  C   UNL     1       7.231   4.805  14.374  0.00  0.00    +0.000 A 
ATOM     16  N   UNL     1       7.558   5.564  15.441  0.00  0.00    +0.000 NA
ATOM     17  C   UNL     1       6.585   5.745  16.367  0.00  0.00    +0.000 A 
ENDBRANCH   3  12
BRANCH   8  18
ATOM     18  C   UNL     1       3.337   2.320  20.866  0.00  0.00    +0.000 C 
BRANCH  18  19
ATOM     19  C   UNL     1       4.419   1.932  19.890  0.00  0.00    +0.000 C 
ATOM     20  F   UNL     1       5.314   1.103  20.491  0.00  0.00    +0.000 F 
ATOM     21  F   UNL     1       3.867   1.212  18.876  0.00  0.00    +0.000 F 
ENDBRANCH  18  19
ENDBRANCH   8  18
TORSDOF 3
ENDMDL
MODEL 6
REMARK VINA RESULT:      -7.0      5.143      7.251
REMARK  Name = 
REMARK  3 active torsions:
REMARK  status: ('A' for Active; 'I' for Inactive)
REMARK    1  A    between atoms: N_3  and  C_4
REMARK    2  A    between atoms: N_14  and  C_15
REMARK    3  A    between atoms: C_15  and  C_16
REMARK                            x       y       z     vdW  Elec       q    Type
REMARK                         _______ _______ _______ _____ _____    ______ ____
ROOT
ATOM      1  O   UNL     1       3.669   5.707  17.702  0.00  0.00    +0.000 OA
ATOM      2  C   UNL     1       2.885   6.444  18.296  0.00  0.00    +0.000 C 
ATOM      3  N   UNL     1       2.048   6.074  19.312  0.00  0.00    +0.000 N 
ATOM      4  N   UNL     1       2.786   7.748  17.883  0.00  0.00    +0.000 N 
ATOM      5  C   UNL     1       2.070   8.772  18.460  0.00  0.00    +0.000 A 
ATOM      6  C   UNL     1       1.985  10.083  17.939  0.00  0.00    +0.000 A 
ATOM      7  C   UNL     1       1.224  10.784  18.844  0.00  0.00    +0.000 A 
ATOM      8  N   UNL     1       0.924   9.902  19.839  0.00  0.00    +0.000 N 
ATOM      9  N   UNL     1       1.371   8.655  19.595  0.00  0.00    +0.000 NA
ATOM     10  H   UNL     1       1.408   6.810  19.603  0.00  0.00    +0.000 HD
ATOM     11  H   UNL     1       3.351   7.966  17.076  0.00  0.00    +0.000 HD
ENDROOT
BRANCH   3  12
ATOM     12  C   UNL     1       1.905   4.809  19.905  0.00  0.00    +0.000 A 
ATOM     13  C   UNL     1       1.373   3.700  19.257  0.00  0.00    +0.000 A 
ATOM     14  C   UNL     1       1.256   2.491  19.941  0.00  0.00    +0.000 A 
ATOM     15  C   UNL     1       1.674   2.433  21.261  0.00  0.00    +0.000 A 
ATOM     16  N   UNL     1       2.213   3.479  21.922  0.00  0.00    +0.000 NA
ATOM     17  C   UNL     1       2.320   4.636  21.225  0.00  0.00    +0.000 A 
ENDBRANCH   3  12
BRANCH   8  18
ATOM     18  C   UNL     1       0.224  10.184  21.071  0.00  0.00    +0.000 C 
BRANCH  18  19
ATOM     19  C   UNL     1       0.306   9.014  22.020  0.00  0.00    +0.000 C 
ATOM     20  F   UNL     1       0.329   9.456  23.305  0.00  0.00    +0.000 F 
ATOM     21  F   UNL     1      -0.825   8.267  21.903  0.00  0.00    +0.000 F 
ENDBRANCH  18  19
ENDBRANCH   8  18
TORSDOF 3
ENDMDL
MODEL 7
REMARK VINA RESULT:      -6.9      5.095      7.688
REMARK  Name = 
REMARK  3 active torsions:
REMARK  status: ('A' for Active; 'I' for Inactive)
REMARK    1  A    between atoms: N_3  and  C_4
REMARK    2  A    between atoms: N_14  and  C_15
REMARK    3  A    between atoms: C_15  and  C_16
REMARK                            x       y       z     vdW  Elec       q    Type
REMARK                         _______ _______ _______ _____ _____    ______ ____
ROOT
ATOM      1  O   UNL     1       1.940   9.654  17.377  0.00  0.00    +0.000 OA
ATOM      2  C   UNL     1       2.057   8.774  18.229  0.00  0.00    +0.000 C 
ATOM      3  N   UNL     1       1.492   8.782  19.474  0.00  0.00    +0.000 N 
ATOM      4  N   UNL     1       2.866   7.704  17.944  0.00  0.00    +0.000 N 
ATOM      5  C   UNL     1       3.058   6.562  18.686  0.00  0.00    +0.000 A 
ATOM      6  C   UNL     1       3.952   5.523  18.340  0.00  0.00    +0.000 A 
ATOM      7  C   UNL     1       3.790   4.566  19.314  0.00  0.00    +0.000 A 
ATOM      8  N   UNL     1       2.826   5.046  20.150  0.00  0.00    +0.000 N 
ATOM      9  N   UNL     1       2.413   6.286  19.826  0.00  0.00    +0.000 NA
ATOM     10  H   UNL     1       1.790   8.007  20.063  0.00  0.00    +0.000 HD
ATOM     11  H   UNL     1       3.337   7.772  17.054  0.00  0.00    +0.000 HD
ENDROOT
BRANCH   3  12
ATOM     12  C   UNL     1       0.661   9.758  20.047  0.00  0.00    +0.000 A 
ATOM     13  C   UNL     1      -0.459  10.294  19.421  0.00  0.00    +0.000 A 
ATOM     14  C   UNL     1      -1.209  11.274  20.068  0.00  0.00    +0.000 A 
ATOM     15  C   UNL     1      -0.808  11.692  21.327  0.00  0.00    +0.000 A 
ATOM     16  N   UNL     1       0.261  11.187  21.978  0.00  0.00    +0.000 NA
ATOM     17  C   UNL     1       0.962  10.230  21.324  0.00  0.00    +0.000 A 
ENDBRANCH   3  12
BRANCH   8  18
ATOM     18  C   UNL     1       2.230   4.364  21.276  0.00  0.00    +0.000 C 
BRANCH  18  19
ATOM     19  C   UNL     1       1.464   3.145  20.826  0.00  0.00    +0.000 C 
ATOM     20  F   UNL     1       0.888   2.536  21.895  0.00  0.00    +0.000 F 
ATOM     21  F   UNL     1       0.437   3.537  20.023  0.00  0.00    +0.000 F 
ENDBRANCH  18  19
ENDBRANCH   8  18
TORSDOF 3
ENDMDL
MODEL 8
REMARK VINA RESULT:      -6.9      3.465      6.651
REMARK  Name = 
REMARK  3 active torsions:
REMARK  status: ('A' for Active; 'I' for Inactive)
REMARK    1  A    between atoms: N_3  and  C_4
REMARK    2  A    between atoms: N_14  and  C_15
REMARK    3  A    between atoms: C_15  and  C_16
REMARK                            x       y       z     vdW  Elec       q    Type
REMARK                         _______ _______ _______ _____ _____    ______ ____
ROOT
ATOM      1  O   UNL     1       5.753   5.963  17.600  0.00  0.00    +0.000 OA
ATOM      2  C   UNL     1       5.769   5.219  16.621  0.00  0.00    +0.000 C 
ATOM      3  N   UNL     1       5.042   4.070  16.475  0.00  0.00    +0.000 N 
ATOM      4  N   UNL     1       6.626   5.521  15.594  0.00  0.00    +0.000 N 
ATOM      5  C   UNL     1       6.736   4.907  14.368  0.00  0.00    +0.000 A 
ATOM      6  C   UNL     1       7.685   5.254  13.380  0.00  0.00    +0.000 A 
ATOM      7  C   UNL     1       7.410   4.435  12.310  0.00  0.00    +0.000 A 
ATOM      8  N   UNL     1       6.335   3.685  12.683  0.00  0.00    +0.000 N 
ATOM      9  N   UNL     1       5.949   3.907  13.954  0.00  0.00    +0.000 NA
ATOM     10  H   UNL     1       5.272   3.546  15.632  0.00  0.00    +0.000 HD
ATOM     11  H   UNL     1       7.212   6.324  15.772  0.00  0.00    +0.000 HD
ENDROOT
BRANCH   3  12
ATOM     12  C   UNL     1       4.126   3.499  17.372  0.00  0.00    +0.000 A 
ATOM     13  C   UNL     1       4.474   2.973  18.611  0.00  0.00    +0.000 A 
ATOM     14  C   UNL     1       3.489   2.410  19.423  0.00  0.00    +0.000 A 
ATOM     15  C   UNL     1       2.183   2.389  18.962  0.00  0.00    +0.000 A 
ATOM     16  N   UNL     1       1.799   2.904  17.775  0.00  0.00    +0.000 NA
ATOM     17  C   UNL     1       2.779   3.451  17.015  0.00  0.00    +0.000 A 
ENDBRANCH   3  12
BRANCH   8  18
ATOM     18  C   UNL     1       5.605   2.742  11.866  0.00  0.00    +0.000 C 
BRANCH  18  19
ATOM     19  C   UNL     1       6.402   1.479  11.656  0.00  0.00    +0.000 C 
ATOM     20  F   UNL     1       5.607   0.508  11.135  0.00  0.00    +0.000 F 
ATOM     21  F   UNL     1       7.365   1.712  10.723  0.00  0.00    +0.000 F 
ENDBRANCH  18  19
ENDBRANCH   8  18
TORSDOF 3
ENDMDL
MODEL 9
REMARK VINA RESULT:      -6.9      0.674      1.108
REMARK  Name = 
REMARK  3 active torsions:
REMARK  status: ('A' for Active; 'I' for Inactive)
REMARK    1  A    between atoms: N_3  and  C_4
REMARK    2  A    between atoms: N_14  and  C_15
REMARK    3  A    between atoms: C_15  and  C_16
REMARK                            x       y       z     vdW  Elec       q    Type
REMARK                         _______ _______ _______ _____ _____    ______ ____
ROOT
ATOM      1  O   UNL     1       8.241   4.236  17.034  0.00  0.00    +0.000 OA
ATOM      2  C   UNL     1       7.016   4.336  17.082  0.00  0.00    +0.000 C 
ATOM      3  N   UNL     1       6.174   4.413  16.007  0.00  0.00    +0.000 N 
ATOM      4  N   UNL     1       6.424   4.436  18.315  0.00  0.00    +0.000 N 
ATOM      5  C   UNL     1       5.082   4.445  18.617  0.00  0.00    +0.000 A 
ATOM      6  C   UNL     1       4.555   4.600  19.919  0.00  0.00    +0.000 A 
ATOM      7  C   UNL     1       3.192   4.497  19.772  0.00  0.00    +0.000 A 
ATOM      8  N   UNL     1       2.977   4.267  18.446  0.00  0.00    +0.000 N 
ATOM      9  N   UNL     1       4.106   4.297  17.713  0.00  0.00    +0.000 NA
ATOM     10  H   UNL     1       5.204   4.591  16.260  0.00  0.00    +0.000 HD
ATOM     11  H   UNL     1       7.079   4.466  19.082  0.00  0.00    +0.000 HD
ENDROOT
BRANCH   3  12
ATOM     12  C   UNL     1       6.501   4.380  14.642  0.00  0.00    +0.000 A 
ATOM     13  C   UNL     1       7.473   5.180  14.053  0.00  0.00    +0.000 A 
ATOM     14  C   UNL     1       7.709   5.084  12.682  0.00  0.00    +0.000 A 
ATOM     15  C   UNL     1       6.956   4.188  11.941  0.00  0.00    +0.000 A 
ATOM     16  N   UNL     1       6.015   3.380  12.475  0.00  0.00    +0.000 NA
ATOM     17  C   UNL     1       5.818   3.493  13.811  0.00  0.00    +0.000 A 
ENDBRANCH   3  12
BRANCH   8  18
ATOM     18  C   UNL     1       1.713   3.989  17.804  0.00  0.00    +0.000 C 
BRANCH  18  19
ATOM     19  C   UNL     1       1.079   2.745  18.374  0.00  0.00    +0.000 C 
ATOM     20  F   UNL     1       2.039   1.832  18.680  0.00  0.00    +0.000 F 
ATOM     21  F   UNL     1       0.471   3.055  19.551  0.00  0.00    +0.000 F 
ENDBRANCH  18  19
ENDBRANCH   8  18
TORSDOF 3
ENDMDL
