MODEL 1
REMARK VINA RESULT:      -8.8      0.000      0.000
REMARK  Name = 
REMARK  9 active torsions:
REMARK  status: ('A' for Active; 'I' for Inactive)
REMARK    1  A    between atoms: C_1  and  O_2
REMARK    2  A    between atoms: O_2  and  C_3
REMARK    3  A    between atoms: C_6  and  C_7
REMARK    4  A    between atoms: C_7  and  N_8
REMARK    5  A    between atoms: C_11  and  C_12
REMARK    6  A    between atoms: C_16  and  C_17
REMARK    7  A    between atoms: C_19  and  C_20
REMARK    8  A    between atoms: C_31  and  O_32
REMARK    9  A    between atoms: O_32  and  C_33
REMARK                            x       y       z     vdW  Elec       q    Type
REMARK                         _______ _______ _______ _____ _____    ______ ____
ROOT
ATOM      1  N   UNL     1       1.210   9.383  19.965  0.00  0.00    +0.000 N 
ATOM      2  C   UNL     1       1.782   8.215  19.606  0.00  0.00    +0.000 A 
ATOM      3  N   UNL     1       1.730   7.115  20.315  0.00  0.00    +0.000 NA
ATOM      4  C   UNL     1       2.346   6.063  19.647  0.00  0.00    +0.000 A 
ATOM      5  C   UNL     1       2.958   6.404  18.444  0.00  0.00    +0.000 A 
ATOM      6  S   UNL     1       2.658   8.077  18.133  0.00  0.00    +0.000 S 
ATOM      7  H   UNL     1       1.433  10.203  19.416  0.00  0.00    +0.000 HD
ENDROOT
BRANCH   5   8
ATOM      8  C   UNL     1       3.741   5.640  17.527  0.00  0.00    +0.000 A 
ATOM      9  C   UNL     1       3.422   4.269  17.117  0.00  0.00    +0.000 A 
ATOM     10  C   UNL     1       4.189   3.583  16.248  0.00  0.00    +0.000 A 
ATOM     11  C   UNL     1       5.351   4.195  15.706  0.00  0.00    +0.000 A 
ATOM     12  N   UNL     1       6.278   3.755  14.886  0.00  0.00    +0.000 NA
ATOM     13  C   UNL     1       7.108   4.828  14.771  0.00  0.00    +0.000 A 
ATOM     14  N   UNL     1       6.757   5.918  15.454  0.00  0.00    +0.000 NA
ATOM     15  N   UNL     1       5.623   5.514  16.081  0.00  0.00    +0.000 N 
ATOM     16  C   UNL     1       4.829   6.221  16.978  0.00  0.00    +0.000 A 
ENDBRANCH   5   8
BRANCH   4  17
ATOM     17  C   UNL     1       2.314   4.715  20.214  0.00  0.00    +0.000 A 
ATOM     18  C   UNL     1       1.138   4.202  20.750  0.00  0.00    +0.000 A 
ATOM     19  C   UNL     1       1.143   2.900  21.245  0.00  0.00    +0.000 A 
ATOM     20  C   UNL     1       2.312   2.148  21.179  0.00  0.00    +0.000 A 
ATOM     21  C   UNL     1       3.446   2.725  20.623  0.00  0.00    +0.000 A 
ATOM     22  C   UNL     1       4.731   1.966  20.505  0.00  0.00    +0.000 C 
ATOM     23  N   UNL     1       3.458   3.992  20.149  0.00  0.00    +0.000 NA
ENDBRANCH   4  17
BRANCH   1  24
ATOM     24  C   UNL     1       1.030   9.641  21.378  0.00  0.00    +0.000 C 
BRANCH  24  28
ATOM     25  C   UNL     1      -2.178  12.428  22.193  0.00  0.00    +0.000 A 
ATOM     26  C   UNL     1      -1.800  11.473  23.152  0.00  0.00    +0.000 A 
ATOM     27  C   UNL     1      -0.801  10.536  22.878  0.00  0.00    +0.000 A 
ATOM     28  C   UNL     1      -0.183  10.509  21.626  0.00  0.00    +0.000 A 
ATOM     29  C   UNL     1      -0.641  11.392  20.638  0.00  0.00    +0.000 A 
ATOM     30  C   UNL     1      -1.635  12.350  20.904  0.00  0.00    +0.000 A 
BRANCH  25  32
ATOM     31  C   UNL     1      -4.107  13.053  23.413  0.00  0.00    +0.000 C 
ATOM     32  O   UNL     1      -3.071  13.420  22.500  0.00  0.00    +0.000 OA
ENDBRANCH  25  32
BRANCH  30  33
ATOM     33  O   UNL     1      -1.900  13.120  19.802  0.00  0.00    +0.000 OA
ATOM     34  C   UNL     1      -0.881  13.326  18.839  0.00  0.00    +0.000 C 
ENDBRANCH  30  33
ENDBRANCH  24  28
ENDBRANCH   1  24
TORSDOF 6
ENDMDL
MODEL 2
REMARK VINA RESULT:      -8.7      1.973      2.640
REMARK  Name = 
REMARK  9 active torsions:
REMARK  status: ('A' for Active; 'I' for Inactive)
REMARK    1  A    between atoms: C_1  and  O_2
REMARK    2  A    between atoms: O_2  and  C_3
REMARK    3  A    between atoms: C_6  and  C_7
REMARK    4  A    between atoms: C_7  and  N_8
REMARK    5  A    between atoms: C_11  and  C_12
REMARK    6  A    between atoms: C_16  and  C_17
REMARK    7  A    between atoms: C_19  and  C_20
REMARK    8  A    between atoms: C_31  and  O_32
REMARK    9  A    between atoms: O_32  and  C_33
REMARK                            x       y       z     vdW  Elec       q    Type
REMARK                         _______ _______ _______ _____ _____    ______ ____
ROOT
ATOM      1  N   UNL     1       0.905   9.914  18.532  0.00  0.00    +0.000 N 
ATOM      2  C   UNL     1       1.650   8.789  18.566  0.00  0.00    +0.000 A 
ATOM      3  N   UNL     1       1.369   7.735  19.290  0.00  0.00    +0.000 NA
ATOM      4  C   UNL     1       2.278   6.711  19.052  0.00  0.00    +0.000 A 
ATOM      5  C   UNL     1       3.325   7.037  18.194  0.00  0.00    +0.000 A 
ATOM      6  S   UNL     1       3.081   8.650  17.623  0.00  0.00    +0.000 S 
ATOM      7  H   UNL     1       1.290  10.718  18.053  0.00  0.00    +0.000 HD
ENDROOT
BRANCH   5   8
ATOM      8  C   UNL     1       4.473   6.300  17.774  0.00  0.00    +0.000 A 
ATOM      9  C   UNL     1       5.337   5.536  18.680  0.00  0.00    +0.000 A 
ATOM     10  C   UNL     1       6.413   4.855  18.241  0.00  0.00    +0.000 A 
ATOM     11  C   UNL     1       6.734   4.871  16.857  0.00  0.00    +0.000 A 
ATOM     12  N   UNL     1       7.722   4.337  16.176  0.00  0.00    +0.000 NA
ATOM     13  C   UNL     1       7.451   4.729  14.900  0.00  0.00    +0.000 A 
ATOM     14  N   UNL     1       6.349   5.461  14.733  0.00  0.00    +0.000 NA
ATOM     15  N   UNL     1       5.882   5.576  16.002  0.00  0.00    +0.000 N 
ATOM     16  C   UNL     1       4.771   6.278  16.458  0.00  0.00    +0.000 A 
ENDBRANCH   5   8
BRANCH   4  17
ATOM     17  C   UNL     1       2.091   5.404  19.680  0.00  0.00    +0.000 A 
ATOM     18  C   UNL     1       2.414   5.210  21.018  0.00  0.00    +0.000 A 
ATOM     19  C   UNL     1       2.184   3.959  21.587  0.00  0.00    +0.000 A 
ATOM     20  C   UNL     1       1.629   2.947  20.809  0.00  0.00    +0.000 A 
ATOM     21  C   UNL     1       1.324   3.217  19.481  0.00  0.00    +0.000 A 
ATOM     22  C   UNL     1       0.708   2.179  18.595  0.00  0.00    +0.000 C 
ATOM     23  N   UNL     1       1.553   4.423  18.915  0.00  0.00    +0.000 NA
ENDBRANCH   4  17
BRANCH   1  24
ATOM     24  C   UNL     1       0.119  10.238  19.704  0.00  0.00    +0.000 C 
BRANCH  24  28
ATOM     25  C   UNL     1      -3.806  11.850  18.856  0.00  0.00    +0.000 A 
ATOM     26  C   UNL     1      -3.196  10.948  17.968  0.00  0.00    +0.000 A 
ATOM     27  C   UNL     1      -1.909  10.463  18.207  0.00  0.00    +0.000 A 
ATOM     28  C   UNL     1      -1.186  10.897  19.321  0.00  0.00    +0.000 A 
ATOM     29  C   UNL     1      -1.757  11.880  20.142  0.00  0.00    +0.000 A 
ATOM     30  C   UNL     1      -3.057  12.367  19.922  0.00  0.00    +0.000 A 
BRANCH  25  32
ATOM     31  C   UNL     1      -6.017  11.191  18.330  0.00  0.00    +0.000 C 
ATOM     32  O   UNL     1      -5.109  12.235  18.687  0.00  0.00    +0.000 OA
ENDBRANCH  25  32
BRANCH  30  33
ATOM     33  O   UNL     1      -3.414  13.296  20.864  0.00  0.00    +0.000 OA
ATOM     34  C   UNL     1      -3.331  12.956  22.238  0.00  0.00    +0.000 C 
ENDBRANCH  30  33
ENDBRANCH  24  28
ENDBRANCH   1  24
TORSDOF 6
ENDMDL
MODEL 3
REMARK VINA RESULT:      -8.4      1.081      1.274
REMARK  Name = 
REMARK  9 active torsions:
REMARK  status: ('A' for Active; 'I' for Inactive)
REMARK    1  A    between atoms: C_1  and  O_2
REMARK    2  A    between atoms: O_2  and  C_3
REMARK    3  A    between atoms: C_6  and  C_7
REMARK    4  A    between atoms: C_7  and  N_8
REMARK    5  A    between atoms: C_11  and  C_12
REMARK    6  A    between atoms: C_16  and  C_17
REMARK    7  A    between atoms: C_19  and  C_20
REMARK    8  A    between atoms: C_31  and  O_32
REMARK    9  A    between atoms: O_32  and  C_33
REMARK                            x       y       z     vdW  Elec       q    Type
REMARK                         _______ _______ _______ _____ _____    ______ ____
ROOT
ATOM      1  N   UNL     1       1.300   9.746  19.741  0.00  0.00    +0.000 N 
ATOM      2  C   UNL     1       1.816   8.537  19.433  0.00  0.00    +0.000 A 
ATOM      3  N   UNL     1       1.611   7.446  20.127  0.00  0.00    +0.000 NA
ATOM      4  C   UNL     1       2.209   6.349  19.516  0.00  0.00    +0.000 A 
ATOM      5  C   UNL     1       2.962   6.641  18.383  0.00  0.00    +0.000 A 
ATOM      6  S   UNL     1       2.822   8.332  18.054  0.00  0.00    +0.000 S 
ATOM      7  H   UNL     1       1.639  10.546  19.222  0.00  0.00    +0.000 HD
ENDROOT
BRANCH   5   8
ATOM      8  C   UNL     1       3.773   5.819  17.543  0.00  0.00    +0.000 A 
ATOM      9  C   UNL     1       3.461   4.426  17.208  0.00  0.00    +0.000 A 
ATOM     10  C   UNL     1       4.254   3.685  16.411  0.00  0.00    +0.000 A 
ATOM     11  C   UNL     1       5.438   4.258  15.874  0.00  0.00    +0.000 A 
ATOM     12  N   UNL     1       6.390   3.765  15.116  0.00  0.00    +0.000 NA
ATOM     13  C   UNL     1       7.231   4.826  14.965  0.00  0.00    +0.000 A 
ATOM     14  N   UNL     1       6.861   5.957  15.566  0.00  0.00    +0.000 NA
ATOM     15  N   UNL     1       5.704   5.597  16.176  0.00  0.00    +0.000 N 
ATOM     16  C   UNL     1       4.883   6.361  16.999  0.00  0.00    +0.000 A 
ENDBRANCH   5   8
BRANCH   4  17
ATOM     17  C   UNL     1       2.018   5.008  20.069  0.00  0.00    +0.000 A 
ATOM     18  C   UNL     1       2.429   4.712  21.363  0.00  0.00    +0.000 A 
ATOM     19  C   UNL     1       2.193   3.433  21.862  0.00  0.00    +0.000 A 
ATOM     20  C   UNL     1       1.546   2.496  21.063  0.00  0.00    +0.000 A 
ATOM     21  C   UNL     1       1.157   2.867  19.782  0.00  0.00    +0.000 A 
ATOM     22  C   UNL     1       0.440   1.913  18.877  0.00  0.00    +0.000 C 
ATOM     23  N   UNL     1       1.390   4.102  19.281  0.00  0.00    +0.000 NA
ENDBRANCH   4  17
BRANCH   1  24
ATOM     24  C   UNL     1       1.000  10.018  21.131  0.00  0.00    +0.000 C 
BRANCH  24  28
ATOM     25  C   UNL     1      -2.511  12.523  21.481  0.00  0.00    +0.000 A 
ATOM     26  C   UNL     1      -1.862  12.038  22.628  0.00  0.00    +0.000 A 
ATOM     27  C   UNL     1      -0.759  11.187  22.525  0.00  0.00    +0.000 A 
ATOM     28  C   UNL     1      -0.303  10.772  21.271  0.00  0.00    +0.000 A 
ATOM     29  C   UNL     1      -1.022  11.170  20.136  0.00  0.00    +0.000 A 
ATOM     30  C   UNL     1      -2.125  12.038  20.224  0.00  0.00    +0.000 A 
BRANCH  25  32
ATOM     31  C   UNL     1      -3.176  14.655  22.260  0.00  0.00    +0.000 C 
ATOM     32  O   UNL     1      -3.516  13.448  21.577  0.00  0.00    +0.000 OA
ENDBRANCH  25  32
BRANCH  30  33
ATOM     33  O   UNL     1      -2.650  12.312  18.989  0.00  0.00    +0.000 OA
ATOM     34  C   UNL     1      -1.964  11.869  17.830  0.00  0.00    +0.000 C 
ENDBRANCH  30  33
ENDBRANCH  24  28
ENDBRANCH   1  24
TORSDOF 6
ENDMDL
MODEL 4
REMARK VINA RESULT:      -8.4      2.093      2.760
REMARK  Name = 
REMARK  9 active torsions:
REMARK  status: ('A' for Active; 'I' for Inactive)
REMARK    1  A    between atoms: C_1  and  O_2
REMARK    2  A    between atoms: O_2  and  C_3
REMARK    3  A    between atoms: C_6  and  C_7
REMARK    4  A    between atoms: C_7  and  N_8
REMARK    5  A    between atoms: C_11  and  C_12
REMARK    6  A    between atoms: C_16  and  C_17
REMARK    7  A    between atoms: C_19  and  C_20
REMARK    8  A    between atoms: C_31  and  O_32
REMARK    9  A    between atoms: O_32  and  C_33
REMARK                            x       y       z     vdW  Elec       q    Type
REMARK                         _______ _______ _______ _____ _____    ______ ____
ROOT
ATOM      1  N   UNL     1       1.009   9.952  18.456  0.00  0.00    +0.000 N 
ATOM      2  C   UNL     1       1.709   8.801  18.376  0.00  0.00    +0.000 A 
ATOM      3  N   UNL     1       1.302   7.652  18.852  0.00  0.00    +0.000 NA
ATOM      4  C   UNL     1       2.204   6.639  18.546  0.00  0.00    +0.000 A 
ATOM      5  C   UNL     1       3.366   7.057  17.904  0.00  0.00    +0.000 A 
ATOM      6  S   UNL     1       3.249   8.757  17.613  0.00  0.00    +0.000 S 
ATOM      7  H   UNL     1       1.478  10.807  18.186  0.00  0.00    +0.000 HD
ENDROOT
BRANCH   5   8
ATOM      8  C   UNL     1       4.538   6.347  17.504  0.00  0.00    +0.000 A 
ATOM      9  C   UNL     1       5.449   5.673  18.435  0.00  0.00    +0.000 A 
ATOM     10  C   UNL     1       6.546   5.014  18.015  0.00  0.00    +0.000 A 
ATOM     11  C   UNL     1       6.844   4.965  16.626  0.00  0.00    +0.000 A 
ATOM     12  N   UNL     1       7.843   4.436  15.958  0.00  0.00    +0.000 NA
ATOM     13  C   UNL     1       7.534   4.743  14.668  0.00  0.00    +0.000 A 
ATOM     14  N   UNL     1       6.399   5.417  14.481  0.00  0.00    +0.000 NA
ATOM     15  N   UNL     1       5.948   5.583  15.750  0.00  0.00    +0.000 N 
ATOM     16  C   UNL     1       4.816   6.263  16.186  0.00  0.00    +0.000 A 
ENDBRANCH   5   8
BRANCH   4  17
ATOM     17  C   UNL     1       1.896   5.253  18.895  0.00  0.00    +0.000 A 
ATOM     18  C   UNL     1       1.467   4.358  17.922  0.00  0.00    +0.000 A 
ATOM     19  C   UNL     1       1.221   3.037  18.290  0.00  0.00    +0.000 A 
ATOM     20  C   UNL     1       1.422   2.648  19.611  0.00  0.00    +0.000 A 
ATOM     21  C   UNL     1       1.860   3.596  20.527  0.00  0.00    +0.000 A 
ATOM     22  C   UNL     1       2.113   3.240  21.959  0.00  0.00    +0.000 C 
ATOM     23  N   UNL     1       2.092   4.884  20.184  0.00  0.00    +0.000 NA
ENDBRANCH   4  17
BRANCH   1  24
ATOM     24  C   UNL     1       0.082  10.104  19.558  0.00  0.00    +0.000 C 
BRANCH  24  28
ATOM     25  C   UNL     1      -3.835  11.609  18.501  0.00  0.00    +0.000 A 
ATOM     26  C   UNL     1      -3.192  10.657  17.692  0.00  0.00    +0.000 A 
ATOM     27  C   UNL     1      -1.906  10.204  17.997  0.00  0.00    +0.000 A 
ATOM     28  C   UNL     1      -1.219  10.720  19.098  0.00  0.00    +0.000 A 
ATOM     29  C   UNL     1      -1.822  11.748  19.836  0.00  0.00    +0.000 A 
ATOM     30  C   UNL     1      -3.120  12.204  19.549  0.00  0.00    +0.000 A 
BRANCH  25  32
ATOM     31  C   UNL     1      -6.103  10.937  18.489  0.00  0.00    +0.000 C 
ATOM     32  O   UNL     1      -5.136  11.966  18.271  0.00  0.00    +0.000 OA
ENDBRANCH  25  32
BRANCH  30  33
ATOM     33  O   UNL     1      -3.512  13.189  20.417  0.00  0.00    +0.000 OA
ATOM     34  C   UNL     1      -4.251  12.839  21.575  0.00  0.00    +0.000 C 
ENDBRANCH  30  33
ENDBRANCH  24  28
ENDBRANCH   1  24
TORSDOF 6
ENDMDL
MODEL 5
REMARK VINA RESULT:      -8.4      2.430      2.925
REMARK  Name = 
REMARK  9 active torsions:
REMARK  status: ('A' for Active; 'I' for Inactive)
REMARK    1  A    between atoms: C_1  and  O_2
REMARK    2  A    between atoms: O_2  and  C_3
REMARK    3  A    between atoms: C_6  and  C_7
REMARK    4  A    between atoms: C_7  and  N_8
REMARK    5  A    between atoms: C_11  and  C_12
REMARK    6  A    between atoms: C_16  and  C_17
REMARK    7  A    between atoms: C_19  and  C_20
REMARK    8  A    between atoms: C_31  and  O_32
REMARK    9  A    between atoms: O_32  and  C_33
REMARK                            x       y       z     vdW  Elec       q    Type
REMARK                         _______ _______ _______ _____ _____    ______ ____
ROOT
ATOM      1  N   UNL     1       1.096  10.123  18.289  0.00  0.00    +0.000 N 
ATOM      2  C   UNL     1       1.813   8.979  18.307  0.00  0.00    +0.000 A 
ATOM      3  N   UNL     1       1.479   7.907  18.980  0.00  0.00    +0.000 NA
ATOM      4  C   UNL     1       2.374   6.870  18.738  0.00  0.00    +0.000 A 
ATOM      5  C   UNL     1       3.460   7.202  17.934  0.00  0.00    +0.000 A 
ATOM      6  S   UNL     1       3.276   8.841  17.416  0.00  0.00    +0.000 S 
ATOM      7  H   UNL     1       1.517  10.934  17.855  0.00  0.00    +0.000 HD
ENDROOT
BRANCH   5   8
ATOM      8  C   UNL     1       4.607   6.454  17.530  0.00  0.00    +0.000 A 
ATOM      9  C   UNL     1       5.498   5.750  18.458  0.00  0.00    +0.000 A 
ATOM     10  C   UNL     1       6.571   5.055  18.034  0.00  0.00    +0.000 A 
ATOM     11  C   UNL     1       6.863   4.997  16.645  0.00  0.00    +0.000 A 
ATOM     12  N   UNL     1       7.842   4.436  15.973  0.00  0.00    +0.000 NA
ATOM     13  C   UNL     1       7.539   4.753  14.684  0.00  0.00    +0.000 A 
ATOM     14  N   UNL     1       6.426   5.465  14.500  0.00  0.00    +0.000 NA
ATOM     15  N   UNL     1       5.985   5.645  15.771  0.00  0.00    +0.000 N 
ATOM     16  C   UNL     1       4.877   6.362  16.211  0.00  0.00    +0.000 A 
ENDBRANCH   5   8
BRANCH   4  17
ATOM     17  C   UNL     1       2.132   5.545  19.309  0.00  0.00    +0.000 A 
ATOM     18  C   UNL     1       1.834   5.401  20.659  0.00  0.00    +0.000 A 
ATOM     19  C   UNL     1       1.574   4.124  21.152  0.00  0.00    +0.000 A 
ATOM     20  C   UNL     1       1.606   3.037  20.285  0.00  0.00    +0.000 A 
ATOM     21  C   UNL     1       1.904   3.259  18.947  0.00  0.00    +0.000 A 
ATOM     22  C   UNL     1       1.937   2.136  17.957  0.00  0.00    +0.000 C 
ATOM     23  N   UNL     1       2.169   4.492  18.457  0.00  0.00    +0.000 NA
ENDBRANCH   4  17
BRANCH   1  24
ATOM     24  C   UNL     1       0.272  10.422  19.441  0.00  0.00    +0.000 C 
BRANCH  24  28
ATOM     25  C   UNL     1      -3.669  11.491  18.009  0.00  0.00    +0.000 A 
ATOM     26  C   UNL     1      -3.165  12.047  19.196  0.00  0.00    +0.000 A 
ATOM     27  C   UNL     1      -1.915  11.669  19.693  0.00  0.00    +0.000 A 
ATOM     28  C   UNL     1      -1.158  10.698  19.034  0.00  0.00    +0.000 A 
ATOM     29  C   UNL     1      -1.715  10.068  17.913  0.00  0.00    +0.000 A 
ATOM     30  C   UNL     1      -2.964  10.448  17.393  0.00  0.00    +0.000 A 
BRANCH  25  32
ATOM     31  C   UNL     1      -5.764  12.527  18.376  0.00  0.00    +0.000 C 
ATOM     32  O   UNL     1      -4.838  11.944  17.458  0.00  0.00    +0.000 OA
ENDBRANCH  25  32
BRANCH  30  33
ATOM     33  O   UNL     1      -3.291   9.718  16.281  0.00  0.00    +0.000 OA
ATOM     34  C   UNL     1      -3.729  10.392  15.113  0.00  0.00    +0.000 C 
ENDBRANCH  30  33
ENDBRANCH  24  28
ENDBRANCH   1  24
TORSDOF 6
ENDMDL
MODEL 6
REMARK VINA RESULT:      -8.4      4.291     10.612
REMARK  Name = 
REMARK  9 active torsions:
REMARK  status: ('A' for Active; 'I' for Inactive)
REMARK    1  A    between atoms: C_1  and  O_2
REMARK    2  A    between atoms: O_2  and  C_3
REMARK    3  A    between atoms: C_6  and  C_7
REMARK    4  A    between atoms: C_7  and  N_8
REMARK    5  A    between atoms: C_11  and  C_12
REMARK    6  A    between atoms: C_16  and  C_17
REMARK    7  A    between atoms: C_19  and  C_20
REMARK    8  A    between atoms: C_31  and  O_32
REMARK    9  A    between atoms: O_32  and  C_33
REMARK                            x       y       z     vdW  Elec       q    Type
REMARK                         _______ _______ _______ _____ _____    ______ ____
ROOT
ATOM      1  N   UNL     1       1.856   8.865  19.166  0.00  0.00    +0.000 N 
ATOM      2  C   UNL     1       0.829   9.737  19.260  0.00  0.00    +0.000 A 
ATOM      3  N   UNL     1      -0.151   9.822  18.396  0.00  0.00    +0.000 NA
ATOM      4  C   UNL     1      -1.094  10.759  18.805  0.00  0.00    +0.000 A 
ATOM      5  C   UNL     1      -0.766  11.461  19.961  0.00  0.00    +0.000 A 
ATOM      6  S   UNL     1       0.729  10.844  20.571  0.00  0.00    +0.000 S 
ATOM      7  H   UNL     1       2.631   8.982  19.807  0.00  0.00    +0.000 HD
ENDROOT
BRANCH   5   8
ATOM      8  C   UNL     1      -1.422  12.532  20.639  0.00  0.00    +0.000 A 
ATOM      9  C   UNL     1      -1.443  13.919  20.161  0.00  0.00    +0.000 A 
ATOM     10  C   UNL     1      -2.075  14.900  20.834  0.00  0.00    +0.000 A 
ATOM     11  C   UNL     1      -2.743  14.596  22.050  0.00  0.00    +0.000 A 
ATOM     12  N   UNL     1      -3.393  15.348  22.909  0.00  0.00    +0.000 NA
ATOM     13  C   UNL     1      -3.785  14.449  23.854  0.00  0.00    +0.000 A 
ATOM     14  N   UNL     1      -3.437  13.180  23.638  0.00  0.00    +0.000 NA
ATOM     15  N   UNL     1      -2.743  13.265  22.475  0.00  0.00    +0.000 N 
ATOM     16  C   UNL     1      -2.090  12.252  21.778  0.00  0.00    +0.000 A 
ENDBRANCH   5   8
BRANCH   4  17
ATOM     17  C   UNL     1      -2.326  10.941  18.039  0.00  0.00    +0.000 A 
ATOM     18  C   UNL     1      -3.441  11.531  18.622  0.00  0.00    +0.000 A 
ATOM     19  C   UNL     1      -4.581  11.720  17.844  0.00  0.00    +0.000 A 
ATOM     20  C   UNL     1      -4.569  11.329  16.508  0.00  0.00    +0.000 A 
ATOM     21  C   UNL     1      -3.415  10.753  15.992  0.00  0.00    +0.000 A 
ATOM     22  C   UNL     1      -3.329  10.326  14.559  0.00  0.00    +0.000 C 
ATOM     23  N   UNL     1      -2.306  10.554  16.740  0.00  0.00    +0.000 NA
ENDBRANCH   4  17
BRANCH   1  24
ATOM     24  C   UNL     1       2.237   8.409  17.846  0.00  0.00    +0.000 C 
BRANCH  24  28
ATOM     25  C   UNL     1       5.151   5.255  18.374  0.00  0.00    +0.000 A 
ATOM     26  C   UNL     1       5.297   6.197  17.343  0.00  0.00    +0.000 A 
ATOM     27  C   UNL     1       4.335   7.188  17.132  0.00  0.00    +0.000 A 
ATOM     28  C   UNL     1       3.186   7.235  17.926  0.00  0.00    +0.000 A 
ATOM     29  C   UNL     1       2.994   6.227  18.880  0.00  0.00    +0.000 A 
ATOM     30  C   UNL     1       3.960   5.232  19.112  0.00  0.00    +0.000 A 
BRANCH  25  32
ATOM     31  C   UNL     1       7.418   4.648  18.072  0.00  0.00    +0.000 C 
ATOM     32  O   UNL     1       6.147   4.359  18.657  0.00  0.00    +0.000 OA
ENDBRANCH  25  32
BRANCH  30  33
ATOM     33  O   UNL     1       3.572   4.374  20.107  0.00  0.00    +0.000 OA
ATOM     34  C   UNL     1       2.357   4.618  20.797  0.00  0.00    +0.000 C 
ENDBRANCH  30  33
ENDBRANCH  24  28
ENDBRANCH   1  24
TORSDOF 6
ENDMDL
MODEL 7
REMARK VINA RESULT:      -8.4      4.237     10.542
REMARK  Name = 
REMARK  9 active torsions:
REMARK  status: ('A' for Active; 'I' for Inactive)
REMARK    1  A    between atoms: C_1  and  O_2
REMARK    2  A    between atoms: O_2  and  C_3
REMARK    3  A    between atoms: C_6  and  C_7
REMARK    4  A    between atoms: C_7  and  N_8
REMARK    5  A    between atoms: C_11  and  C_12
REMARK    6  A    between atoms: C_16  and  C_17
REMARK    7  A    between atoms: C_19  and  C_20
REMARK    8  A    between atoms: C_31  and  O_32
REMARK    9  A    between atoms: O_32  and  C_33
REMARK                            x       y       z     vdW  Elec       q    Type
REMARK                         _______ _______ _______ _____ _____    ______ ____
ROOT
ATOM      1  N   UNL     1       1.746   8.699  19.714  0.00  0.00    +0.000 N 
ATOM      2  C   UNL     1       0.753   9.612  19.679  0.00  0.00    +0.000 A 
ATOM      3  N   UNL     1      -0.150   9.689  18.735  0.00  0.00    +0.000 NA
ATOM      4  C   UNL     1      -1.083  10.680  19.018  0.00  0.00    +0.000 A 
ATOM      5  C   UNL     1      -0.821  11.430  20.161  0.00  0.00    +0.000 A 
ATOM      6  S   UNL     1       0.594  10.789  20.922  0.00  0.00    +0.000 S 
ATOM      7  H   UNL     1       2.471   8.820  20.409  0.00  0.00    +0.000 HD
ENDROOT
BRANCH   5   8
ATOM      8  C   UNL     1      -1.483  12.559  20.730  0.00  0.00    +0.000 A 
ATOM      9  C   UNL     1      -1.412  13.917  20.181  0.00  0.00    +0.000 A 
ATOM     10  C   UNL     1      -2.054  14.955  20.751  0.00  0.00    +0.000 A 
ATOM     11  C   UNL     1      -2.826  14.742  21.924  0.00  0.00    +0.000 A 
ATOM     12  N   UNL     1      -3.510  15.562  22.689  0.00  0.00    +0.000 NA
ATOM     13  C   UNL     1      -4.009  14.730  23.646  0.00  0.00    +0.000 A 
ATOM     14  N   UNL     1      -3.695  13.440  23.523  0.00  0.00    +0.000 NA
ATOM     15  N   UNL     1      -2.911  13.436  22.415  0.00  0.00    +0.000 N 
ATOM     16  C   UNL     1      -2.248  12.365  21.825  0.00  0.00    +0.000 A 
ENDBRANCH   5   8
BRANCH   4  17
ATOM     17  C   UNL     1      -2.241  10.869  18.145  0.00  0.00    +0.000 A 
ATOM     18  C   UNL     1      -3.388  11.496  18.616  0.00  0.00    +0.000 A 
ATOM     19  C   UNL     1      -4.453  11.689  17.739  0.00  0.00    +0.000 A 
ATOM     20  C   UNL     1      -4.336  11.263  16.419  0.00  0.00    +0.000 A 
ATOM     21  C   UNL     1      -3.156  10.651  16.017  0.00  0.00    +0.000 A 
ATOM     22  C   UNL     1      -2.958  10.187  14.608  0.00  0.00    +0.000 C 
ATOM     23  N   UNL     1      -2.119  10.448  16.862  0.00  0.00    +0.000 NA
ENDBRANCH   4  17
BRANCH   1  24
ATOM     24  C   UNL     1       2.212   8.160  18.453  0.00  0.00    +0.000 C 
BRANCH  24  28
ATOM     25  C   UNL     1       3.788   4.183  19.107  0.00  0.00    +0.000 A 
ATOM     26  C   UNL     1       4.058   4.872  17.913  0.00  0.00    +0.000 A 
ATOM     27  C   UNL     1       3.511   6.135  17.671  0.00  0.00    +0.000 A 
ATOM     28  C   UNL     1       2.652   6.721  18.603  0.00  0.00    +0.000 A 
ATOM     29  C   UNL     1       2.299   5.982  19.740  0.00  0.00    +0.000 A 
ATOM     30  C   UNL     1       2.852   4.717  20.004  0.00  0.00    +0.000 A 
BRANCH  25  32
ATOM     31  C   UNL     1       3.792   1.829  18.868  0.00  0.00    +0.000 C 
ATOM     32  O   UNL     1       4.415   3.001  19.397  0.00  0.00    +0.000 OA
ENDBRANCH  25  32
BRANCH  30  33
ATOM     33  O   UNL     1       2.386   4.198  21.183  0.00  0.00    +0.000 OA
ATOM     34  C   UNL     1       1.314   3.272  21.156  0.00  0.00    +0.000 C 
ENDBRANCH  30  33
ENDBRANCH  24  28
ENDBRANCH   1  24
TORSDOF 6
ENDMDL
MODEL 8
REMARK VINA RESULT:      -8.4      1.324      1.968
REMARK  Name = 
REMARK  9 active torsions:
REMARK  status: ('A' for Active; 'I' for Inactive)
REMARK    1  A    between atoms: C_1  and  O_2
REMARK    2  A    between atoms: O_2  and  C_3
REMARK    3  A    between atoms: C_6  and  C_7
REMARK    4  A    between atoms: C_7  and  N_8
REMARK    5  A    between atoms: C_11  and  C_12
REMARK    6  A    between atoms: C_16  and  C_17
REMARK    7  A    between atoms: C_19  and  C_20
REMARK    8  A    between atoms: C_31  and  O_32
REMARK    9  A    between atoms: O_32  and  C_33
REMARK                            x       y       z     vdW  Elec       q    Type
REMARK                         _______ _______ _______ _____ _____    ______ ____
ROOT
ATOM      1  N   UNL     1       0.969   9.367  19.373  0.00  0.00    +0.000 N 
ATOM      2  C   UNL     1       1.793   8.313  19.190  0.00  0.00    +0.000 A 
ATOM      3  N   UNL     1       1.703   7.181  19.840  0.00  0.00    +0.000 NA
ATOM      4  C   UNL     1       2.641   6.265  19.375  0.00  0.00    +0.000 A 
ATOM      5  C   UNL     1       3.520   6.755  18.414  0.00  0.00    +0.000 A 
ATOM      6  S   UNL     1       3.073   8.384  18.044  0.00  0.00    +0.000 S 
ATOM      7  H   UNL     1       1.217  10.240  18.925  0.00  0.00    +0.000 HD
ENDROOT
BRANCH   5   8
ATOM      8  C   UNL     1       4.644   6.162  17.765  0.00  0.00    +0.000 A 
ATOM      9  C   UNL     1       5.912   5.853  18.434  0.00  0.00    +0.000 A 
ATOM     10  C   UNL     1       6.949   5.293  17.782  0.00  0.00    +0.000 A 
ATOM     11  C   UNL     1       6.826   4.990  16.400  0.00  0.00    +0.000 A 
ATOM     12  N   UNL     1       7.670   4.486  15.529  0.00  0.00    +0.000 NA
ATOM     13  C   UNL     1       6.935   4.455  14.384  0.00  0.00    +0.000 A 
ATOM     14  N   UNL     1       5.679   4.892  14.481  0.00  0.00    +0.000 NA
ATOM     15  N   UNL     1       5.600   5.259  15.785  0.00  0.00    +0.000 N 
ATOM     16  C   UNL     1       4.529   5.837  16.459  0.00  0.00    +0.000 A 
ENDBRANCH   5   8
BRANCH   4  17
ATOM     17  C   UNL     1       2.648   4.897  19.893  0.00  0.00    +0.000 A 
ATOM     18  C   UNL     1       2.210   4.627  21.184  0.00  0.00    +0.000 A 
ATOM     19  C   UNL     1       2.199   3.305  21.623  0.00  0.00    +0.000 A 
ATOM     20  C   UNL     1       2.611   2.295  20.760  0.00  0.00    +0.000 A 
ATOM     21  C   UNL     1       3.029   2.640  19.481  0.00  0.00    +0.000 A 
ATOM     22  C   UNL     1       3.468   1.601  18.496  0.00  0.00    +0.000 C 
ATOM     23  N   UNL     1       3.055   3.921  19.046  0.00  0.00    +0.000 NA
ENDBRANCH   4  17
BRANCH   1  24
ATOM     24  C   UNL     1       0.345   9.519  20.671  0.00  0.00    +0.000 C 
BRANCH  24  28
ATOM     25  C   UNL     1      -2.558  12.721  20.860  0.00  0.00    +0.000 A 
ATOM     26  C   UNL     1      -2.185  12.167  19.624  0.00  0.00    +0.000 A 
ATOM     27  C   UNL     1      -1.210  11.168  19.549  0.00  0.00    +0.000 A 
ATOM     28  C   UNL     1      -0.561  10.728  20.704  0.00  0.00    +0.000 A 
ATOM     29  C   UNL     1      -0.859  11.362  21.918  0.00  0.00    +0.000 A 
ATOM     30  C   UNL     1      -1.847  12.358  22.011  0.00  0.00    +0.000 A 
BRANCH  25  32
ATOM     31  C   UNL     1      -4.882  13.094  20.618  0.00  0.00    +0.000 C 
ATOM     32  O   UNL     1      -3.593  13.613  20.949  0.00  0.00    +0.000 OA
ENDBRANCH  25  32
BRANCH  30  33
ATOM     33  O   UNL     1      -1.986  12.812  23.297  0.00  0.00    +0.000 OA
ATOM     34  C   UNL     1      -1.411  14.056  23.659  0.00  0.00    +0.000 C 
ENDBRANCH  30  33
ENDBRANCH  24  28
ENDBRANCH   1  24
TORSDOF 6
ENDMDL
MODEL 9
REMARK VINA RESULT:      -8.3      1.247      1.578
REMARK  Name = 
REMARK  9 active torsions:
REMARK  status: ('A' for Active; 'I' for Inactive)
REMARK    1  A    between atoms: C_1  and  O_2
REMARK    2  A    between atoms: O_2  and  C_3
REMARK    3  A    between atoms: C_6  and  C_7
REMARK    4  A    between atoms: C_7  and  N_8
REMARK    5  A    between atoms: C_11  and  C_12
REMARK    6  A    between atoms: C_16  and  C_17
REMARK    7  A    between atoms: C_19  and  C_20
REMARK    8  A    between atoms: C_31  and  O_32
REMARK    9  A    between atoms: O_32  and  C_33
REMARK                            x       y       z     vdW  Elec       q    Type
REMARK                         _______ _______ _______ _____ _____    ______ ____
ROOT
ATOM      1  N   UNL     1       1.150   9.089  19.692  0.00  0.00    +0.000 N 
ATOM      2  C   UNL     1       1.931   8.095  19.217  0.00  0.00    +0.000 A 
ATOM      3  N   UNL     1       1.778   6.828  19.510  0.00  0.00    +0.000 NA
ATOM      4  C   UNL     1       2.684   6.042  18.807  0.00  0.00    +0.000 A 
ATOM      5  C   UNL     1       3.604   6.747  18.035  0.00  0.00    +0.000 A 
ATOM      6  S   UNL     1       3.237   8.432  18.151  0.00  0.00    +0.000 S 
ATOM      7  H   UNL     1       1.445  10.041  19.518  0.00  0.00    +0.000 HD
ENDROOT
BRANCH   5   8
ATOM      8  C   UNL     1       4.715   6.314  17.251  0.00  0.00    +0.000 A 
ATOM      9  C   UNL     1       6.114   6.622  17.564  0.00  0.00    +0.000 A 
ATOM     10  C   UNL     1       7.133   6.194  16.795  0.00  0.00    +0.000 A 
ATOM     11  C   UNL     1       6.857   5.419  15.636  0.00  0.00    +0.000 A 
ATOM     12  N   UNL     1       7.637   4.912  14.709  0.00  0.00    +0.000 NA
ATOM     13  C   UNL     1       6.752   4.288  13.883  0.00  0.00    +0.000 A 
ATOM     14  N   UNL     1       5.469   4.357  14.239  0.00  0.00    +0.000 NA
ATOM     15  N   UNL     1       5.521   5.105  15.370  0.00  0.00    +0.000 N 
ATOM     16  C   UNL     1       4.470   5.548  16.166  0.00  0.00    +0.000 A 
ENDBRANCH   5   8
BRANCH   4  17
ATOM     17  C   UNL     1       2.621   4.585  18.905  0.00  0.00    +0.000 A 
ATOM     18  C   UNL     1       1.615   3.875  18.260  0.00  0.00    +0.000 A 
ATOM     19  C   UNL     1       1.615   2.485  18.350  0.00  0.00    +0.000 A 
ATOM     20  C   UNL     1       2.623   1.847  19.067  0.00  0.00    +0.000 A 
ATOM     21  C   UNL     1       3.599   2.621  19.679  0.00  0.00    +0.000 A 
ATOM     22  C   UNL     1       4.721   1.998  20.451  0.00  0.00    +0.000 C 
ATOM     23  N   UNL     1       3.604   3.972  19.609  0.00  0.00    +0.000 NA
ENDBRANCH   4  17
BRANCH   1  24
ATOM     24  C   UNL     1       0.506   8.888  20.973  0.00  0.00    +0.000 C 
BRANCH  24  28
ATOM     25  C   UNL     1      -1.537  12.532  22.097  0.00  0.00    +0.000 A 
ATOM     26  C   UNL     1      -1.248  11.550  23.058  0.00  0.00    +0.000 A 
ATOM     27  C   UNL     1      -0.635  10.348  22.696  0.00  0.00    +0.000 A 
ATOM     28  C   UNL     1      -0.331  10.086  21.358  0.00  0.00    +0.000 A 
ATOM     29  C   UNL     1      -0.722  11.022  20.391  0.00  0.00    +0.000 A 
ATOM     30  C   UNL     1      -1.327  12.242  20.742  0.00  0.00    +0.000 A 
BRANCH  25  32
ATOM     31  C   UNL     1      -1.878  14.088  23.846  0.00  0.00    +0.000 C 
ATOM     32  O   UNL     1      -2.029  13.756  22.466  0.00  0.00    +0.000 OA
ENDBRANCH  25  32
BRANCH  30  33
ATOM     33  O   UNL     1      -1.593  13.009  19.639  0.00  0.00    +0.000 OA
ATOM     34  C   UNL     1      -0.589  13.176  18.652  0.00  0.00    +0.000 C 
ENDBRANCH  30  33
ENDBRANCH  24  28
ENDBRANCH   1  24
TORSDOF 6
ENDMDL
