MODEL 1
REMARK VINA RESULT:      -8.1      0.000      0.000
REMARK  Name = 
REMARK  9 active torsions:
REMARK  status: ('A' for Active; 'I' for Inactive)
REMARK    1  A    between atoms: C_1  and  C_2
REMARK    2  A    between atoms: C_6  and  C_7
REMARK    3  A    between atoms: N_9  and  C_10
REMARK    4  A    between atoms: C_10  and  C_11
REMARK    5  A    between atoms: C_11  and  C_12
REMARK    6  A    between atoms: C_12  and  N_13
REMARK    7  A    between atoms: N_13  and  C_14
REMARK    8  A    between atoms: C_17  and  N_18
REMARK    9  A    between atoms: C_23  and  C_24
REMARK                            x       y       z     vdW  Elec       q    Type
REMARK                         _______ _______ _______ _____ _____    ______ ____
ROOT
ATOM      1  C   UNL     1       2.088   7.203  20.061  0.00  0.00    +0.000 C 
ATOM      2  O   UNL     1       3.125   6.943  19.455  0.00  0.00    +0.000 OA
ATOM      3  N   UNL     1       1.492   6.261  20.880  0.00  0.00    +0.000 N 
ATOM      4  H   UNL     1       0.869   6.602  21.597  0.00  0.00    +0.000 HD
ENDROOT
BRANCH   1  10
ATOM      5  C   UNL     1      -1.654  11.816  23.325  0.00  0.00    +0.000 C 
ATOM      6  C   UNL     1      -0.810  10.913  22.475  0.00  0.00    +0.000 A 
ATOM      7  C   UNL     1      -0.322   9.665  23.054  0.00  0.00    +0.000 A 
ATOM      8  C   UNL     1       0.415   8.828  22.302  0.00  0.00    +0.000 A 
ATOM      9  N   UNL     1       0.732   9.171  20.981  0.00  0.00    +0.000 N 
ATOM     10  C   UNL     1       1.459   8.502  20.001  0.00  0.00    +0.000 A 
ATOM     11  C   UNL     1       1.383   9.337  18.887  0.00  0.00    +0.000 A 
ATOM     12  C   UNL     1       1.943   9.169  17.523  0.00  0.00    +0.000 C 
ATOM     13  N   UNL     1       0.672  10.477  19.160  0.00  0.00    +0.000 NA
ATOM     14  C   UNL     1       0.280  10.357  20.404  0.00  0.00    +0.000 A 
ATOM     15  C   UNL     1      -0.516  11.229  21.198  0.00  0.00    +0.000 A 
ENDBRANCH   1  10
BRANCH   3  16
ATOM     16  C   UNL     1       2.134   4.977  21.103  0.00  0.00    +0.000 C 
BRANCH  16  17
ATOM     17  C   UNL     1       1.315   3.827  20.529  0.00  0.00    +0.000 C 
BRANCH  17  18
ATOM     18  C   UNL     1       1.694   3.593  19.069  0.00  0.00    +0.000 C 
BRANCH  18  19
ATOM     19  N   UNL     1       2.997   2.928  18.981  0.00  0.00    +0.000 N 
ATOM     20  H   UNL     1       2.918   1.982  18.618  0.00  0.00    +0.000 HD
BRANCH  19  21
ATOM     21  C   UNL     1       4.019   3.631  18.319  0.00  0.00    +0.000 A 
ATOM     22  C   UNL     1       5.162   4.109  18.975  0.00  0.00    +0.000 A 
ATOM     23  C   UNL     1       6.169   4.788  18.286  0.00  0.00    +0.000 A 
ATOM     24  C   UNL     1       6.058   4.969  16.909  0.00  0.00    +0.000 A 
ATOM     25  C   UNL     1       4.965   4.437  16.213  0.00  0.00    +0.000 A 
ATOM     26  C   UNL     1       3.965   3.758  16.920  0.00  0.00    +0.000 A 
BRANCH  24  27
ATOM     27  N   UNL     1       7.097   5.712  16.187  0.00  0.00    +0.000 N 
ATOM     28  O   UNL     1       7.459   5.273  15.086  0.00  0.00    +0.000 OA
ATOM     29  O   UNL     1       7.558   6.727  16.726  0.00  0.00    +0.000 OA
ENDBRANCH  24  27
ENDBRANCH  19  21
ENDBRANCH  18  19
ENDBRANCH  17  18
ENDBRANCH  16  17
ENDBRANCH   3  16
TORSDOF 7
ENDMDL
MODEL 2
REMARK VINA RESULT:      -8.0      3.176      7.569
REMARK  Name = 
REMARK  9 active torsions:
REMARK  status: ('A' for Active; 'I' for Inactive)
REMARK    1  A    between atoms: C_1  and  C_2
REMARK    2  A    between atoms: C_6  and  C_7
REMARK    3  A    between atoms: N_9  and  C_10
REMARK    4  A    between atoms: C_10  and  C_11
REMARK    5  A    between atoms: C_11  and  C_12
REMARK    6  A    between atoms: C_12  and  N_13
REMARK    7  A    between atoms: N_13  and  C_14
REMARK    8  A    between atoms: C_17  and  N_18
REMARK    9  A    between atoms: C_23  and  C_24
REMARK                            x       y       z     vdW  Elec       q    Type
REMARK                         _______ _______ _______ _____ _____    ______ ____
ROOT
ATOM      1  C   UNL     1       5.618   4.617  18.835  0.00  0.00    +0.000 C 
ATOM      2  O   UNL     1       5.139   5.395  19.657  0.00  0.00    +0.000 OA
ATOM      3  N   UNL     1       5.509   3.250  19.008  0.00  0.00    +0.000 N 
ATOM      4  H   UNL     1       5.601   2.672  18.186  0.00  0.00    +0.000 HD
ENDROOT
BRANCH   1  10
ATOM      5  C   UNL     1       6.376   3.731  12.158  0.00  0.00    +0.000 C 
ATOM      6  C   UNL     1       6.308   4.068  13.619  0.00  0.00    +0.000 A 
ATOM      7  C   UNL     1       5.374   3.330  14.463  0.00  0.00    +0.000 A 
ATOM      8  C   UNL     1       5.316   3.599  15.781  0.00  0.00    +0.000 A 
ATOM      9  N   UNL     1       6.130   4.600  16.326  0.00  0.00    +0.000 N 
ATOM     10  C   UNL     1       6.272   5.069  17.629  0.00  0.00    +0.000 A 
ATOM     11  C   UNL     1       7.266   6.041  17.538  0.00  0.00    +0.000 A 
ATOM     12  C   UNL     1       7.875   6.892  18.591  0.00  0.00    +0.000 C 
ATOM     13  N   UNL     1       7.705   6.194  16.247  0.00  0.00    +0.000 NA
ATOM     14  C   UNL     1       7.030   5.320  15.542  0.00  0.00    +0.000 A 
ATOM     15  C   UNL     1       7.102   5.018  14.154  0.00  0.00    +0.000 A 
ENDBRANCH   1  10
BRANCH   3  16
ATOM     16  C   UNL     1       4.749   2.713  20.124  0.00  0.00    +0.000 C 
BRANCH  16  17
ATOM     17  C   UNL     1       3.853   1.556  19.694  0.00  0.00    +0.000 C 
BRANCH  17  18
ATOM     18  C   UNL     1       3.174   1.886  18.367  0.00  0.00    +0.000 C 
BRANCH  18  19
ATOM     19  N   UNL     1       1.874   2.520  18.603  0.00  0.00    +0.000 N 
ATOM     20  H   UNL     1       1.326   2.019  19.297  0.00  0.00    +0.000 HD
BRANCH  19  21
ATOM     21  C   UNL     1       1.888   3.899  18.880  0.00  0.00    +0.000 A 
ATOM     22  C   UNL     1       2.109   4.871  17.895  0.00  0.00    +0.000 A 
ATOM     23  C   UNL     1       2.097   6.234  18.198  0.00  0.00    +0.000 A 
ATOM     24  C   UNL     1       1.826   6.645  19.501  0.00  0.00    +0.000 A 
ATOM     25  C   UNL     1       1.527   5.702  20.492  0.00  0.00    +0.000 A 
ATOM     26  C   UNL     1       1.542   4.339  20.170  0.00  0.00    +0.000 A 
BRANCH  24  27
ATOM     27  N   UNL     1       1.848   8.076  19.831  0.00  0.00    +0.000 N 
ATOM     28  O   UNL     1       2.082   8.874  18.913  0.00  0.00    +0.000 OA
ATOM     29  O   UNL     1       1.642   8.398  21.008  0.00  0.00    +0.000 OA
ENDBRANCH  24  27
ENDBRANCH  19  21
ENDBRANCH  18  19
ENDBRANCH  17  18
ENDBRANCH  16  17
ENDBRANCH   3  16
TORSDOF 7
ENDMDL
MODEL 3
REMARK VINA RESULT:      -8.0      1.301      1.739
REMARK  Name = 
REMARK  9 active torsions:
REMARK  status: ('A' for Active; 'I' for Inactive)
REMARK    1  A    between atoms: C_1  and  C_2
REMARK    2  A    between atoms: C_6  and  C_7
REMARK    3  A    between atoms: N_9  and  C_10
REMARK    4  A    between atoms: C_10  and  C_11
REMARK    5  A    between atoms: C_11  and  C_12
REMARK    6  A    between atoms: C_12  and  N_13
REMARK    7  A    between atoms: N_13  and  C_14
REMARK    8  A    between atoms: C_17  and  N_18
REMARK    9  A    between atoms: C_23  and  C_24
REMARK                            x       y       z     vdW  Elec       q    Type
REMARK                         _______ _______ _______ _____ _____    ______ ____
ROOT
ATOM      1  C   UNL     1       1.918   5.615  20.417  0.00  0.00    +0.000 C 
ATOM      2  O   UNL     1       2.560   5.248  21.399  0.00  0.00    +0.000 OA
ATOM      3  N   UNL     1       1.225   4.700  19.644  0.00  0.00    +0.000 N 
ATOM      4  H   UNL     1       0.465   5.054  19.082  0.00  0.00    +0.000 HD
ENDROOT
BRANCH   1  10
ATOM      5  C   UNL     1      -0.730  11.671  21.916  0.00  0.00    +0.000 C 
ATOM      6  C   UNL     1      -0.057  10.411  21.457  0.00  0.00    +0.000 A 
ATOM      7  C   UNL     1      -0.183   9.213  22.280  0.00  0.00    +0.000 A 
ATOM      8  C   UNL     1       0.390   8.065  21.873  0.00  0.00    +0.000 A 
ATOM      9  N   UNL     1       1.125   8.035  20.680  0.00  0.00    +0.000 N 
ATOM     10  C   UNL     1       1.803   7.004  20.038  0.00  0.00    +0.000 A 
ATOM     11  C   UNL     1       2.296   7.590  18.873  0.00  0.00    +0.000 A 
ATOM     12  C   UNL     1       3.089   7.002  17.765  0.00  0.00    +0.000 C 
ATOM     13  N   UNL     1       1.969   8.920  18.802  0.00  0.00    +0.000 NA
ATOM     14  C   UNL     1       1.261   9.166  19.877  0.00  0.00    +0.000 A 
ATOM     15  C   UNL     1       0.636  10.371  20.301  0.00  0.00    +0.000 A 
ENDBRANCH   1  10
BRANCH   3  16
ATOM     16  C   UNL     1       1.177   3.302  20.035  0.00  0.00    +0.000 C 
BRANCH  16  17
ATOM     17  C   UNL     1       1.149   2.376  18.824  0.00  0.00    +0.000 C 
BRANCH  17  18
ATOM     18  C   UNL     1       2.040   2.936  17.718  0.00  0.00    +0.000 C 
BRANCH  18  19
ATOM     19  N   UNL     1       3.422   2.479  17.895  0.00  0.00    +0.000 N 
ATOM     20  H   UNL     1       3.659   1.726  17.256  0.00  0.00    +0.000 HD
BRANCH  19  21
ATOM     21  C   UNL     1       4.418   3.471  17.889  0.00  0.00    +0.000 A 
ATOM     22  C   UNL     1       4.937   4.037  19.061  0.00  0.00    +0.000 A 
ATOM     23  C   UNL     1       5.941   5.007  19.022  0.00  0.00    +0.000 A 
ATOM     24  C   UNL     1       6.467   5.402  17.794  0.00  0.00    +0.000 A 
ATOM     25  C   UNL     1       6.023   4.801  16.609  0.00  0.00    +0.000 A 
ATOM     26  C   UNL     1       5.017   3.828  16.668  0.00  0.00    +0.000 A 
BRANCH  24  27
ATOM     27  N   UNL     1       7.497   6.446  17.746  0.00  0.00    +0.000 N 
ATOM     28  O   UNL     1       8.115   6.692  18.792  0.00  0.00    +0.000 OA
ATOM     29  O   UNL     1       7.679   7.027  16.668  0.00  0.00    +0.000 OA
ENDBRANCH  24  27
ENDBRANCH  19  21
ENDBRANCH  18  19
ENDBRANCH  17  18
ENDBRANCH  16  17
ENDBRANCH   3  16
TORSDOF 7
ENDMDL
MODEL 4
REMARK VINA RESULT:      -7.7      2.643      3.547
REMARK  Name = 
REMARK  9 active torsions:
REMARK  status: ('A' for Active; 'I' for Inactive)
REMARK    1  A    between atoms: C_1  and  C_2
REMARK    2  A    between atoms: C_6  and  C_7
REMARK    3  A    between atoms: N_9  and  C_10
REMARK    4  A    between atoms: C_10  and  C_11
REMARK    5  A    between atoms: C_11  and  C_12
REMARK    6  A    between atoms: C_12  and  N_13
REMARK    7  A    between atoms: N_13  and  C_14
REMARK    8  A    between atoms: C_17  and  N_18
REMARK    9  A    between atoms: C_23  and  C_24
REMARK                            x       y       z     vdW  Elec       q    Type
REMARK                         _______ _______ _______ _____ _____    ______ ____
ROOT
ATOM      1  C   UNL     1       1.273   9.586  18.456  0.00  0.00    +0.000 C 
ATOM      2  O   UNL     1       2.040   9.871  17.539  0.00  0.00    +0.000 OA
ATOM      3  N   UNL     1       1.472   8.446  19.215  0.00  0.00    +0.000 N 
ATOM      4  H   UNL     1       1.052   8.424  20.132  0.00  0.00    +0.000 HD
ENDROOT
BRANCH   1  10
ATOM      5  C   UNL     1      -5.094  11.472  17.096  0.00  0.00    +0.000 C 
ATOM      6  C   UNL     1      -3.696  11.154  17.539  0.00  0.00    +0.000 A 
ATOM      7  C   UNL     1      -2.966  10.098  16.844  0.00  0.00    +0.000 A 
ATOM      8  C   UNL     1      -1.701   9.815  17.208  0.00  0.00    +0.000 A 
ATOM      9  N   UNL     1      -1.105  10.515  18.265  0.00  0.00    +0.000 N 
ATOM     10  C   UNL     1       0.162  10.429  18.832  0.00  0.00    +0.000 A 
ATOM     11  C   UNL     1       0.165  11.415  19.818  0.00  0.00    +0.000 A 
ATOM     12  C   UNL     1       1.237  11.828  20.758  0.00  0.00    +0.000 C 
ATOM     13  N   UNL     1      -1.041  12.065  19.884  0.00  0.00    +0.000 NA
ATOM     14  C   UNL     1      -1.781  11.527  18.946  0.00  0.00    +0.000 A 
ATOM     15  C   UNL     1      -3.109  11.836  18.543  0.00  0.00    +0.000 A 
ENDBRANCH   1  10
BRANCH   3  16
ATOM     16  C   UNL     1       2.643   7.616  18.992  0.00  0.00    +0.000 C 
BRANCH  16  17
ATOM     17  C   UNL     1       2.272   6.264  18.392  0.00  0.00    +0.000 C 
BRANCH  17  18
ATOM     18  C   UNL     1       2.878   5.139  19.228  0.00  0.00    +0.000 C 
BRANCH  18  19
ATOM     19  N   UNL     1       4.339   5.262  19.267  0.00  0.00    +0.000 N 
ATOM     20  H   UNL     1       4.756   4.633  19.947  0.00  0.00    +0.000 HD
BRANCH  19  21
ATOM     21  C   UNL     1       5.010   5.181  18.035  0.00  0.00    +0.000 A 
ATOM     22  C   UNL     1       6.032   6.066  17.664  0.00  0.00    +0.000 A 
ATOM     23  C   UNL     1       6.694   5.947  16.440  0.00  0.00    +0.000 A 
ATOM     24  C   UNL     1       6.358   4.906  15.576  0.00  0.00    +0.000 A 
ATOM     25  C   UNL     1       5.393   3.962  15.949  0.00  0.00    +0.000 A 
ATOM     26  C   UNL     1       4.741   4.096  17.182  0.00  0.00    +0.000 A 
BRANCH  24  27
ATOM     27  N   UNL     1       7.026   4.799  14.274  0.00  0.00    +0.000 N 
ATOM     28  O   UNL     1       7.975   5.564  14.050  0.00  0.00    +0.000 OA
ATOM     29  O   UNL     1       6.594   3.959  13.473  0.00  0.00    +0.000 OA
ENDBRANCH  24  27
ENDBRANCH  19  21
ENDBRANCH  18  19
ENDBRANCH  17  18
ENDBRANCH  16  17
ENDBRANCH   3  16
TORSDOF 7
ENDMDL
MODEL 5
REMARK VINA RESULT:      -7.6      2.482      8.240
REMARK  Name = 
REMARK  9 active torsions:
REMARK  status: ('A' for Active; 'I' for Inactive)
REMARK    1  A    between atoms: C_1  and  C_2
REMARK    2  A    between atoms: C_6  and  C_7
REMARK    3  A    between atoms: N_9  and  C_10
REMARK    4  A    between atoms: C_10  and  C_11
REMARK    5  A    between atoms: C_11  and  C_12
REMARK    6  A    between atoms: C_12  and  N_13
REMARK    7  A    between atoms: N_13  and  C_14
REMARK    8  A    between atoms: C_17  and  N_18
REMARK    9  A    between atoms: C_23  and  C_24
REMARK                            x       y       z     vdW  Elec       q    Type
REMARK                         _______ _______ _______ _____ _____    ______ ____
ROOT
ATOM      1  C   UNL     1       5.055   4.064  18.075  0.00  0.00    +0.000 C 
ATOM      2  O   UNL     1       5.357   3.873  19.251  0.00  0.00    +0.000 OA
ATOM      3  N   UNL     1       3.798   3.728  17.604  0.00  0.00    +0.000 N 
ATOM      4  H   UNL     1       3.480   4.193  16.767  0.00  0.00    +0.000 HD
ENDROOT
BRANCH   1  10
ATOM      5  C   UNL     1       7.173   4.364  11.643  0.00  0.00    +0.000 C 
ATOM      6  C   UNL     1       6.809   4.433  13.097  0.00  0.00    +0.000 A 
ATOM      7  C   UNL     1       5.704   3.611  13.580  0.00  0.00    +0.000 A 
ATOM      8  C   UNL     1       5.377   3.638  14.885  0.00  0.00    +0.000 A 
ATOM      9  N   UNL     1       6.080   4.473  15.764  0.00  0.00    +0.000 N 
ATOM     10  C   UNL     1       5.955   4.688  17.133  0.00  0.00    +0.000 A 
ATOM     11  C   UNL     1       6.967   5.599  17.431  0.00  0.00    +0.000 A 
ATOM     12  C   UNL     1       7.360   6.206  18.728  0.00  0.00    +0.000 C 
ATOM     13  N   UNL     1       7.669   5.958  16.309  0.00  0.00    +0.000 NA
ATOM     14  C   UNL     1       7.138   5.269  15.329  0.00  0.00    +0.000 A 
ATOM     15  C   UNL     1       7.493   5.221  13.952  0.00  0.00    +0.000 A 
ENDBRANCH   1  10
BRANCH   3  16
ATOM     16  C   UNL     1       2.788   3.224  18.517  0.00  0.00    +0.000 C 
BRANCH  16  17
ATOM     17  C   UNL     1       1.757   4.291  18.867  0.00  0.00    +0.000 C 
BRANCH  17  18
ATOM     18  C   UNL     1       2.082   4.905  20.227  0.00  0.00    +0.000 C 
BRANCH  18  19
ATOM     19  N   UNL     1       2.923   6.094  20.061  0.00  0.00    +0.000 N 
ATOM     20  H   UNL     1       3.693   5.929  19.419  0.00  0.00    +0.000 HD
BRANCH  19  21
ATOM     21  C   UNL     1       2.261   7.294  19.749  0.00  0.00    +0.000 A 
ATOM     22  C   UNL     1       1.502   8.011  20.684  0.00  0.00    +0.000 A 
ATOM     23  C   UNL     1       0.872   9.211  20.348  0.00  0.00    +0.000 A 
ATOM     24  C   UNL     1       1.025   9.731  19.064  0.00  0.00    +0.000 A 
ATOM     25  C   UNL     1       1.839   9.078  18.130  0.00  0.00    +0.000 A 
ATOM     26  C   UNL     1       2.464   7.876  18.485  0.00  0.00    +0.000 A 
BRANCH  24  27
ATOM     27  N   UNL     1       0.336  10.974  18.697  0.00  0.00    +0.000 N 
ATOM     28  O   UNL     1       1.025  11.994  18.558  0.00  0.00    +0.000 OA
ATOM     29  O   UNL     1      -0.893  10.931  18.559  0.00  0.00    +0.000 OA
ENDBRANCH  24  27
ENDBRANCH  19  21
ENDBRANCH  18  19
ENDBRANCH  17  18
ENDBRANCH  16  17
ENDBRANCH   3  16
TORSDOF 7
ENDMDL
MODEL 6
REMARK VINA RESULT:      -7.6      2.632      3.684
REMARK  Name = 
REMARK  9 active torsions:
REMARK  status: ('A' for Active; 'I' for Inactive)
REMARK    1  A    between atoms: C_1  and  C_2
REMARK    2  A    between atoms: C_6  and  C_7
REMARK    3  A    between atoms: N_9  and  C_10
REMARK    4  A    between atoms: C_10  and  C_11
REMARK    5  A    between atoms: C_11  and  C_12
REMARK    6  A    between atoms: C_12  and  N_13
REMARK    7  A    between atoms: N_13  and  C_14
REMARK    8  A    between atoms: C_17  and  N_18
REMARK    9  A    between atoms: C_23  and  C_24
REMARK                            x       y       z     vdW  Elec       q    Type
REMARK                         _______ _______ _______ _____ _____    ______ ____
ROOT
ATOM      1  C   UNL     1       1.395   9.996  18.216  0.00  0.00    +0.000 C 
ATOM      2  O   UNL     1       2.293  10.561  17.595  0.00  0.00    +0.000 OA
ATOM      3  N   UNL     1       1.478   8.646  18.506  0.00  0.00    +0.000 N 
ATOM      4  H   UNL     1       0.922   8.305  19.276  0.00  0.00    +0.000 HD
ENDROOT
BRANCH   1  10
ATOM      5  C   UNL     1      -5.232  11.212  17.481  0.00  0.00    +0.000 C 
ATOM      6  C   UNL     1      -3.774  11.036  17.790  0.00  0.00    +0.000 A 
ATOM      7  C   UNL     1      -3.001  10.092  16.991  0.00  0.00    +0.000 A 
ATOM      8  C   UNL     1      -1.686   9.938  17.234  0.00  0.00    +0.000 A 
ATOM      9  N   UNL     1      -1.076  10.663  18.266  0.00  0.00    +0.000 N 
ATOM     10  C   UNL     1       0.238  10.698  18.720  0.00  0.00    +0.000 A 
ATOM     11  C   UNL     1       0.223  11.645  19.744  0.00  0.00    +0.000 A 
ATOM     12  C   UNL     1       1.324  12.141  20.607  0.00  0.00    +0.000 C 
ATOM     13  N   UNL     1      -1.035  12.154  19.940  0.00  0.00    +0.000 NA
ATOM     14  C   UNL     1      -1.793  11.571  19.045  0.00  0.00    +0.000 A 
ATOM     15  C   UNL     1      -3.178  11.745  18.770  0.00  0.00    +0.000 A 
ENDBRANCH   1  10
BRANCH   3  16
ATOM     16  C   UNL     1       2.671   7.895  18.155  0.00  0.00    +0.000 C 
BRANCH  16  17
ATOM     17  C   UNL     1       2.484   6.398  18.378  0.00  0.00    +0.000 C 
BRANCH  17  18
ATOM     18  C   UNL     1       3.442   5.909  19.462  0.00  0.00    +0.000 C 
BRANCH  18  19
ATOM     19  N   UNL     1       4.074   4.651  19.054  0.00  0.00    +0.000 N 
ATOM     20  H   UNL     1       3.417   3.875  19.062  0.00  0.00    +0.000 HD
BRANCH  19  21
ATOM     21  C   UNL     1       4.804   4.675  17.853  0.00  0.00    +0.000 A 
ATOM     22  C   UNL     1       4.442   3.922  16.727  0.00  0.00    +0.000 A 
ATOM     23  C   UNL     1       5.177   3.983  15.541  0.00  0.00    +0.000 A 
ATOM     24  C   UNL     1       6.277   4.833  15.457  0.00  0.00    +0.000 A 
ATOM     25  C   UNL     1       6.620   5.654  16.539  0.00  0.00    +0.000 A 
ATOM     26  C   UNL     1       5.870   5.581  17.720  0.00  0.00    +0.000 A 
BRANCH  24  27
ATOM     27  N   UNL     1       7.073   4.873  14.225  0.00  0.00    +0.000 N 
ATOM     28  O   UNL     1       8.043   5.643  14.191  0.00  0.00    +0.000 OA
ATOM     29  O   UNL     1       6.721   4.143  13.289  0.00  0.00    +0.000 OA
ENDBRANCH  24  27
ENDBRANCH  19  21
ENDBRANCH  18  19
ENDBRANCH  17  18
ENDBRANCH  16  17
ENDBRANCH   3  16
TORSDOF 7
ENDMDL
MODEL 7
REMARK VINA RESULT:      -7.6      2.482      7.806
REMARK  Name = 
REMARK  9 active torsions:
REMARK  status: ('A' for Active; 'I' for Inactive)
REMARK    1  A    between atoms: C_1  and  C_2
REMARK    2  A    between atoms: C_6  and  C_7
REMARK    3  A    between atoms: N_9  and  C_10
REMARK    4  A    between atoms: C_10  and  C_11
REMARK    5  A    between atoms: C_11  and  C_12
REMARK    6  A    between atoms: C_12  and  N_13
REMARK    7  A    between atoms: N_13  and  C_14
REMARK    8  A    between atoms: C_17  and  N_18
REMARK    9  A    between atoms: C_23  and  C_24
REMARK                            x       y       z     vdW  Elec       q    Type
REMARK                         _______ _______ _______ _____ _____    ______ ____
ROOT
ATOM      1  C   UNL     1       5.893   4.550  18.796  0.00  0.00    +0.000 C 
ATOM      2  O   UNL     1       6.264   4.978  19.887  0.00  0.00    +0.000 OA
ATOM      3  N   UNL     1       4.890   3.601  18.713  0.00  0.00    +0.000 N 
ATOM      4  H   UNL     1       4.394   3.530  17.837  0.00  0.00    +0.000 HD
ENDROOT
BRANCH   1  10
ATOM      5  C   UNL     1       6.370   3.590  12.104  0.00  0.00    +0.000 C 
ATOM      6  C   UNL     1       6.349   3.952  13.559  0.00  0.00    +0.000 A 
ATOM      7  C   UNL     1       5.539   3.146  14.467  0.00  0.00    +0.000 A 
ATOM      8  C   UNL     1       5.527   3.438  15.782  0.00  0.00    +0.000 A 
ATOM      9  N   UNL     1       6.267   4.525  16.263  0.00  0.00    +0.000 N 
ATOM     10  C   UNL     1       6.432   5.035  17.547  0.00  0.00    +0.000 A 
ATOM     11  C   UNL     1       7.320   6.097  17.383  0.00  0.00    +0.000 A 
ATOM     12  C   UNL     1       7.899   7.027  18.386  0.00  0.00    +0.000 C 
ATOM     13  N   UNL     1       7.671   6.262  16.068  0.00  0.00    +0.000 NA
ATOM     14  C   UNL     1       7.048   5.312  15.417  0.00  0.00    +0.000 A 
ATOM     15  C   UNL     1       7.073   4.986  14.032  0.00  0.00    +0.000 A 
ENDBRANCH   1  10
BRANCH   3  16
ATOM     16  C   UNL     1       4.200   3.161  19.914  0.00  0.00    +0.000 C 
BRANCH  16  17
ATOM     17  C   UNL     1       2.773   2.715  19.615  0.00  0.00    +0.000 C 
BRANCH  17  18
ATOM     18  C   UNL     1       1.788   3.803  20.035  0.00  0.00    +0.000 C 
BRANCH  18  19
ATOM     19  N   UNL     1       2.498   4.917  20.669  0.00  0.00    +0.000 N 
ATOM     20  H   UNL     1       3.490   4.724  20.777  0.00  0.00    +0.000 HD
BRANCH  19  21
ATOM     21  C   UNL     1       2.297   6.191  20.108  0.00  0.00    +0.000 A 
ATOM     22  C   UNL     1       2.696   6.521  18.805  0.00  0.00    +0.000 A 
ATOM     23  C   UNL     1       2.464   7.789  18.269  0.00  0.00    +0.000 A 
ATOM     24  C   UNL     1       1.792   8.744  19.030  0.00  0.00    +0.000 A 
ATOM     25  C   UNL     1       1.315   8.422  20.307  0.00  0.00    +0.000 A 
ATOM     26  C   UNL     1       1.555   7.144  20.827  0.00  0.00    +0.000 A 
BRANCH  24  27
ATOM     27  N   UNL     1       1.578  10.089  18.484  0.00  0.00    +0.000 N 
ATOM     28  O   UNL     1       0.794  10.836  19.086  0.00  0.00    +0.000 OA
ATOM     29  O   UNL     1       2.184  10.393  17.448  0.00  0.00    +0.000 OA
ENDBRANCH  24  27
ENDBRANCH  19  21
ENDBRANCH  18  19
ENDBRANCH  17  18
ENDBRANCH  16  17
ENDBRANCH   3  16
TORSDOF 7
ENDMDL
MODEL 8
REMARK VINA RESULT:      -7.5      6.140      9.056
REMARK  Name = 
REMARK  9 active torsions:
REMARK  status: ('A' for Active; 'I' for Inactive)
REMARK    1  A    between atoms: C_1  and  C_2
REMARK    2  A    between atoms: C_6  and  C_7
REMARK    3  A    between atoms: N_9  and  C_10
REMARK    4  A    between atoms: C_10  and  C_11
REMARK    5  A    between atoms: C_11  and  C_12
REMARK    6  A    between atoms: C_12  and  N_13
REMARK    7  A    between atoms: N_13  and  C_14
REMARK    8  A    between atoms: C_17  and  N_18
REMARK    9  A    between atoms: C_23  and  C_24
REMARK                            x       y       z     vdW  Elec       q    Type
REMARK                         _______ _______ _______ _____ _____    ______ ____
ROOT
ATOM      1  C   UNL     1       7.067   5.614  18.174  0.00  0.00    +0.000 C 
ATOM      2  O   UNL     1       7.855   5.024  18.910  0.00  0.00    +0.000 OA
ATOM      3  N   UNL     1       7.218   6.964  17.915  0.00  0.00    +0.000 N 
ATOM      4  H   UNL     1       6.786   7.323  17.076  0.00  0.00    +0.000 HD
ENDROOT
BRANCH   1  10
ATOM      5  C   UNL     1       0.977   2.705  18.802  0.00  0.00    +0.000 C 
ATOM      6  C   UNL     1       2.307   3.326  18.492  0.00  0.00    +0.000 A 
ATOM      7  C   UNL     1       3.031   3.999  19.565  0.00  0.00    +0.000 A 
ATOM      8  C   UNL     1       4.238   4.540  19.315  0.00  0.00    +0.000 A 
ATOM      9  N   UNL     1       4.777   4.478  18.023  0.00  0.00    +0.000 N 
ATOM     10  C   UNL     1       5.981   4.941  17.501  0.00  0.00    +0.000 A 
ATOM     11  C   UNL     1       5.954   4.536  16.167  0.00  0.00    +0.000 A 
ATOM     12  C   UNL     1       6.960   4.717  15.090  0.00  0.00    +0.000 C 
ATOM     13  N   UNL     1       4.789   3.881  15.862  0.00  0.00    +0.000 NA
ATOM     14  C   UNL     1       4.106   3.842  16.980  0.00  0.00    +0.000 A 
ATOM     15  C   UNL     1       2.840   3.254  17.255  0.00  0.00    +0.000 A 
ENDBRANCH   1  10
BRANCH   3  16
ATOM     16  C   UNL     1       8.364   7.685  18.442  0.00  0.00    +0.000 C 
BRANCH  16  17
ATOM     17  C   UNL     1       8.269   9.181  18.162  0.00  0.00    +0.000 C 
BRANCH  17  18
ATOM     18  C   UNL     1       9.401   9.918  18.874  0.00  0.00    +0.000 C 
BRANCH  18  19
ATOM     19  N   UNL     1       8.901  11.156  19.480  0.00  0.00    +0.000 N 
ATOM     20  H   UNL     1       8.938  11.124  20.495  0.00  0.00    +0.000 HD
BRANCH  19  21
ATOM     21  C   UNL     1       9.449  12.357  18.998  0.00  0.00    +0.000 A 
ATOM     22  C   UNL     1      10.392  12.403  17.961  0.00  0.00    +0.000 A 
ATOM     23  C   UNL     1      10.903  13.614  17.491  0.00  0.00    +0.000 A 
ATOM     24  C   UNL     1      10.445  14.811  18.038  0.00  0.00    +0.000 A 
ATOM     25  C   UNL     1       9.449  14.803  19.023  0.00  0.00    +0.000 A 
ATOM     26  C   UNL     1       8.947  13.578  19.481  0.00  0.00    +0.000 A 
BRANCH  24  27
ATOM     27  N   UNL     1      11.006  16.085  17.571  0.00  0.00    +0.000 N 
ATOM     28  O   UNL     1      10.803  16.404  16.391  0.00  0.00    +0.000 OA
ATOM     29  O   UNL     1      11.657  16.758  18.381  0.00  0.00    +0.000 OA
ENDBRANCH  24  27
ENDBRANCH  19  21
ENDBRANCH  18  19
ENDBRANCH  17  18
ENDBRANCH  16  17
ENDBRANCH   3  16
TORSDOF 7
ENDMDL
MODEL 9
REMARK VINA RESULT:      -7.5      3.283      5.618
REMARK  Name = 
REMARK  9 active torsions:
REMARK  status: ('A' for Active; 'I' for Inactive)
REMARK    1  A    between atoms: C_1  and  C_2
REMARK    2  A    between atoms: C_6  and  C_7
REMARK    3  A    between atoms: N_9  and  C_10
REMARK    4  A    between atoms: C_10  and  C_11
REMARK    5  A    between atoms: C_11  and  C_12
REMARK    6  A    between atoms: C_12  and  N_13
REMARK    7  A    between atoms: N_13  and  C_14
REMARK    8  A    between atoms: C_17  and  N_18
REMARK    9  A    between atoms: C_23  and  C_24
REMARK                            x       y       z     vdW  Elec       q    Type
REMARK                         _______ _______ _______ _____ _____    ______ ____
ROOT
ATOM      1  C   UNL     1      -0.622  11.375  21.274  0.00  0.00    +0.000 C 
ATOM      2  O   UNL     1       0.255  12.198  21.523  0.00  0.00    +0.000 OA
ATOM      3  N   UNL     1      -0.624  10.136  21.888  0.00  0.00    +0.000 N 
ATOM      4  H   UNL     1      -1.503   9.641  21.926  0.00  0.00    +0.000 HD
ENDROOT
BRANCH   1  10
ATOM      5  C   UNL     1      -3.348  10.285  15.165  0.00  0.00    +0.000 C 
ATOM      6  C   UNL     1      -2.890  10.613  16.555  0.00  0.00    +0.000 A 
ATOM      7  C   UNL     1      -1.683   9.970  17.063  0.00  0.00    +0.000 A 
ATOM      8  C   UNL     1      -1.239  10.270  18.298  0.00  0.00    +0.000 A 
ATOM      9  N   UNL     1      -1.953  11.175  19.095  0.00  0.00    +0.000 N 
ATOM     10  C   UNL     1      -1.721  11.657  20.380  0.00  0.00    +0.000 A 
ATOM     11  C   UNL     1      -2.760  12.561  20.600  0.00  0.00    +0.000 A 
ATOM     12  C   UNL     1      -3.055  13.412  21.779  0.00  0.00    +0.000 C 
ATOM     13  N   UNL     1      -3.610  12.622  19.526  0.00  0.00    +0.000 NA
ATOM     14  C   UNL     1      -3.109  11.803  18.635  0.00  0.00    +0.000 A 
ATOM     15  C   UNL     1      -3.561  11.497  17.321  0.00  0.00    +0.000 A 
ENDBRANCH   1  10
BRANCH   3  16
ATOM     16  C   UNL     1       0.367   9.823  22.904  0.00  0.00    +0.000 C 
BRANCH  16  17
ATOM     17  C   UNL     1       1.524   9.008  22.334  0.00  0.00    +0.000 C 
BRANCH  17  18
ATOM     18  C   UNL     1       1.075   8.276  21.072  0.00  0.00    +0.000 C 
BRANCH  18  19
ATOM     19  N   UNL     1       2.224   7.655  20.407  0.00  0.00    +0.000 N 
ATOM     20  H   UNL     1       3.063   7.699  20.977  0.00  0.00    +0.000 HD
BRANCH  19  21
ATOM     21  C   UNL     1       2.032   6.357  19.901  0.00  0.00    +0.000 A 
ATOM     22  C   UNL     1       2.307   6.010  18.571  0.00  0.00    +0.000 A 
ATOM     23  C   UNL     1       2.124   4.707  18.103  0.00  0.00    +0.000 A 
ATOM     24  C   UNL     1       1.691   3.716  18.982  0.00  0.00    +0.000 A 
ATOM     25  C   UNL     1       1.480   4.014  20.334  0.00  0.00    +0.000 A 
ATOM     26  C   UNL     1       1.670   5.327  20.786  0.00  0.00    +0.000 A 
BRANCH  24  27
ATOM     27  N   UNL     1       1.464   2.354  18.486  0.00  0.00    +0.000 N 
ATOM     28  O   UNL     1       2.460   1.662  18.231  0.00  0.00    +0.000 OA
ATOM     29  O   UNL     1       0.293   1.981  18.342  0.00  0.00    +0.000 OA
ENDBRANCH  24  27
ENDBRANCH  19  21
ENDBRANCH  18  19
ENDBRANCH  17  18
ENDBRANCH  16  17
ENDBRANCH   3  16
TORSDOF 7
ENDMDL
