MODEL 1
REMARK VINA RESULT:      -7.2      0.000      0.000
REMARK  Name = 
REMARK  4 active torsions:
REMARK  status: ('A' for Active; 'I' for Inactive)
REMARK    1  A    between atoms: C_2  and  C_3
REMARK    2  A    between atoms: C_3  and  N_4
REMARK    3  A    between atoms: C_6  and  C_7
REMARK    4  A    between atoms: C_15  and  C_16
REMARK                            x       y       z     vdW  Elec       q    Type
REMARK                         _______ _______ _______ _____ _____    ______ ____
ROOT
ATOM      1  N   UNL     1       3.114   3.939  20.109  0.00  0.00    +0.000 N 
ATOM      2  C   UNL     1       2.482   5.163  19.922  0.00  0.00    +0.000 A 
ATOM      3  C   UNL     1       3.082   6.184  19.283  0.00  0.00    +0.000 A 
ATOM      4  C   UNL     1       4.414   5.978  18.758  0.00  0.00    +0.000 A 
ATOM      5  C   UNL     1       5.053   4.807  18.909  0.00  0.00    +0.000 A 
ATOM      6  C   UNL     1       4.407   3.683  19.636  0.00  0.00    +0.000 A 
ATOM      7  O   UNL     1       4.999   2.618  19.793  0.00  0.00    +0.000 OA
ENDROOT
BRANCH   3   8
ATOM      8  C   UNL     1       2.367   7.467  19.182  0.00  0.00    +0.000 A 
ATOM      9  C   UNL     1       1.680   7.972  20.295  0.00  0.00    +0.000 A 
ATOM     10  C   UNL     1       0.959   9.165  20.197  0.00  0.00    +0.000 A 
ATOM     11  C   UNL     1       0.932   9.861  18.990  0.00  0.00    +0.000 A 
ATOM     12 CL   UNL     1       0.013  11.309  18.860  0.00  0.00    +0.000 Cl
ATOM     13  C   UNL     1       1.638   9.385  17.886  0.00  0.00    +0.000 A 
ATOM     14  C   UNL     1       2.358   8.190  17.982  0.00  0.00    +0.000 A 
ENDBRANCH   3   8
BRANCH   5  15
ATOM     15  C   UNL     1       6.443   4.631  18.319  0.00  0.00    +0.000 C 
ATOM     16  N   UNL     1       7.596   4.485  17.829  0.00  0.00    +0.000 NA
ENDBRANCH   5  15
BRANCH   1  17
ATOM     17  C   UNL     1       2.424   2.882  20.841  0.00  0.00    +0.000 C 
BRANCH  17  19
ATOM     18  C   UNL     1       0.966   2.293  18.877  0.00  0.00    +0.000 C 
ATOM     19  C   UNL     1       1.112   2.587  20.176  0.00  0.00    +0.000 C 
ENDBRANCH  17  19
ENDBRANCH   1  17
TORSDOF 4
ENDMDL
MODEL 2
REMARK VINA RESULT:      -7.2      1.364      3.329
REMARK  Name = 
REMARK  4 active torsions:
REMARK  status: ('A' for Active; 'I' for Inactive)
REMARK    1  A    between atoms: C_2  and  C_3
REMARK    2  A    between atoms: C_3  and  N_4
REMARK    3  A    between atoms: C_6  and  C_7
REMARK    4  A    between atoms: C_15  and  C_16
REMARK                            x       y       z     vdW  Elec       q    Type
REMARK                         _______ _______ _______ _____ _____    ______ ____
ROOT
ATOM      1  N   UNL     1       4.253   4.698  18.763  0.00  0.00    +0.000 N 
ATOM      2  C   UNL     1       3.713   5.978  18.703  0.00  0.00    +0.000 A 
ATOM      3  C   UNL     1       2.660   6.343  19.455  0.00  0.00    +0.000 A 
ATOM      4  C   UNL     1       2.098   5.373  20.369  0.00  0.00    +0.000 A 
ATOM      5  C   UNL     1       2.598   4.130  20.464  0.00  0.00    +0.000 A 
ATOM      6  C   UNL     1       3.746   3.711  19.617  0.00  0.00    +0.000 A 
ATOM      7  O   UNL     1       4.191   2.568  19.689  0.00  0.00    +0.000 OA
ENDROOT
BRANCH   3   8
ATOM      8  C   UNL     1       2.110   7.699  19.284  0.00  0.00    +0.000 A 
ATOM      9  C   UNL     1       1.447   8.321  20.352  0.00  0.00    +0.000 A 
ATOM     10  C   UNL     1       0.880   9.588  20.187  0.00  0.00    +0.000 A 
ATOM     11  C   UNL     1       0.985  10.239  18.960  0.00  0.00    +0.000 A 
ATOM     12 CL   UNL     1       0.254  11.782  18.747  0.00  0.00    +0.000 Cl
ATOM     13  C   UNL     1       1.670   9.644  17.901  0.00  0.00    +0.000 A 
ATOM     14  C   UNL     1       2.236   8.375  18.064  0.00  0.00    +0.000 A 
ENDBRANCH   3   8
BRANCH   5  15
ATOM     15  C   UNL     1       1.990   3.153  21.457  0.00  0.00    +0.000 C 
ATOM     16  N   UNL     1       1.486   2.341  22.281  0.00  0.00    +0.000 NA
ENDBRANCH   5  15
BRANCH   1  17
ATOM     17  C   UNL     1       5.374   4.353  17.895  0.00  0.00    +0.000 C 
BRANCH  17  19
ATOM     18  C   UNL     1       5.437   5.079  15.487  0.00  0.00    +0.000 C 
ATOM     19  C   UNL     1       4.913   4.331  16.467  0.00  0.00    +0.000 C 
ENDBRANCH  17  19
ENDBRANCH   1  17
TORSDOF 4
ENDMDL
MODEL 3
REMARK VINA RESULT:      -7.2      1.688      1.851
REMARK  Name = 
REMARK  4 active torsions:
REMARK  status: ('A' for Active; 'I' for Inactive)
REMARK    1  A    between atoms: C_2  and  C_3
REMARK    2  A    between atoms: C_3  and  N_4
REMARK    3  A    between atoms: C_6  and  C_7
REMARK    4  A    between atoms: C_15  and  C_16
REMARK                            x       y       z     vdW  Elec       q    Type
REMARK                         _______ _______ _______ _____ _____    ______ ____
ROOT
ATOM      1  N   UNL     1       3.050   4.306  17.687  0.00  0.00    +0.000 N 
ATOM      2  C   UNL     1       2.410   5.448  18.153  0.00  0.00    +0.000 A 
ATOM      3  C   UNL     1       2.979   6.664  18.077  0.00  0.00    +0.000 A 
ATOM      4  C   UNL     1       4.286   6.776  17.466  0.00  0.00    +0.000 A 
ATOM      5  C   UNL     1       4.931   5.697  16.995  0.00  0.00    +0.000 A 
ATOM      6  C   UNL     1       4.320   4.346  17.098  0.00  0.00    +0.000 A 
ATOM      7  O   UNL     1       4.919   3.355  16.686  0.00  0.00    +0.000 OA
ENDROOT
BRANCH   3   8
ATOM      8  C   UNL     1       2.259   7.814  18.650  0.00  0.00    +0.000 A 
ATOM      9  C   UNL     1       1.859   7.787  19.994  0.00  0.00    +0.000 A 
ATOM     10  C   UNL     1       1.135   8.852  20.536  0.00  0.00    +0.000 A 
ATOM     11  C   UNL     1       0.818   9.951  19.739  0.00  0.00    +0.000 A 
ATOM     12 CL   UNL     1      -0.106  11.244  20.396  0.00  0.00    +0.000 Cl
ATOM     13  C   UNL     1       1.239  10.003  18.411  0.00  0.00    +0.000 A 
ATOM     14  C   UNL     1       1.963   8.937  17.866  0.00  0.00    +0.000 A 
ENDBRANCH   3   8
BRANCH   5  15
ATOM     15  C   UNL     1       6.292   5.867  16.339  0.00  0.00    +0.000 C 
ATOM     16  N   UNL     1       7.421   6.007  15.795  0.00  0.00    +0.000 NA
ENDBRANCH   5  15
BRANCH   1  17
ATOM     17  C   UNL     1       2.396   3.009  17.830  0.00  0.00    +0.000 C 
BRANCH  17  19
ATOM     18  C   UNL     1       1.062   2.752  19.948  0.00  0.00    +0.000 C 
ATOM     19  C   UNL     1       1.165   3.161  18.677  0.00  0.00    +0.000 C 
ENDBRANCH  17  19
ENDBRANCH   1  17
TORSDOF 4
ENDMDL
MODEL 4
REMARK VINA RESULT:      -7.2      0.297      1.148
REMARK  Name = 
REMARK  4 active torsions:
REMARK  status: ('A' for Active; 'I' for Inactive)
REMARK    1  A    between atoms: C_2  and  C_3
REMARK    2  A    between atoms: C_3  and  N_4
REMARK    3  A    between atoms: C_6  and  C_7
REMARK    4  A    between atoms: C_15  and  C_16
REMARK                            x       y       z     vdW  Elec       q    Type
REMARK                         _______ _______ _______ _____ _____    ______ ____
ROOT
ATOM      1  N   UNL     1       3.236   4.043  19.968  0.00  0.00    +0.000 N 
ATOM      2  C   UNL     1       2.583   5.262  19.819  0.00  0.00    +0.000 A 
ATOM      3  C   UNL     1       3.112   6.269  19.102  0.00  0.00    +0.000 A 
ATOM      4  C   UNL     1       4.386   6.055  18.451  0.00  0.00    +0.000 A 
ATOM      5  C   UNL     1       5.042   4.889  18.563  0.00  0.00    +0.000 A 
ATOM      6  C   UNL     1       4.476   3.779  19.375  0.00  0.00    +0.000 A 
ATOM      7  O   UNL     1       5.085   2.719  19.495  0.00  0.00    +0.000 OA
ENDROOT
BRANCH   3   8
ATOM      8  C   UNL     1       2.386   7.549  19.046  0.00  0.00    +0.000 A 
ATOM      9  C   UNL     1       2.432   8.325  17.879  0.00  0.00    +0.000 A 
ATOM     10  C   UNL     1       1.785   9.563  17.830  0.00  0.00    +0.000 A 
ATOM     11  C   UNL     1       1.083  10.022  18.942  0.00  0.00    +0.000 A 
ATOM     12 CL   UNL     1       0.319  11.563  18.894  0.00  0.00    +0.000 Cl
ATOM     13  C   UNL     1       1.003   9.243  20.096  0.00  0.00    +0.000 A 
ATOM     14  C   UNL     1       1.651   8.005  20.148  0.00  0.00    +0.000 A 
ENDBRANCH   3   8
BRANCH   5  15
ATOM     15  C   UNL     1       6.366   4.702  17.841  0.00  0.00    +0.000 C 
ATOM     16  N   UNL     1       7.466   4.548  17.242  0.00  0.00    +0.000 NA
ENDBRANCH   5  15
BRANCH   1  17
ATOM     17  C   UNL     1       2.626   3.001  20.788  0.00  0.00    +0.000 C 
BRANCH  17  19
ATOM     18  C   UNL     1       0.895   2.350  19.082  0.00  0.00    +0.000 C 
ATOM     19  C   UNL     1       1.223   2.750  20.318  0.00  0.00    +0.000 C 
ENDBRANCH  17  19
ENDBRANCH   1  17
TORSDOF 4
ENDMDL
MODEL 5
REMARK VINA RESULT:      -7.2      3.906      6.036
REMARK  Name = 
REMARK  4 active torsions:
REMARK  status: ('A' for Active; 'I' for Inactive)
REMARK    1  A    between atoms: C_2  and  C_3
REMARK    2  A    between atoms: C_3  and  N_4
REMARK    3  A    between atoms: C_6  and  C_7
REMARK    4  A    between atoms: C_15  and  C_16
REMARK                            x       y       z     vdW  Elec       q    Type
REMARK                         _______ _______ _______ _____ _____    ______ ____
ROOT
ATOM      1  N   UNL     1       6.928   5.705  17.121  0.00  0.00    +0.000 N 
ATOM      2  C   UNL     1       5.967   5.226  18.005  0.00  0.00    +0.000 A 
ATOM      3  C   UNL     1       4.999   4.379  17.613  0.00  0.00    +0.000 A 
ATOM      4  C   UNL     1       4.985   3.940  16.234  0.00  0.00    +0.000 A 
ATOM      5  C   UNL     1       5.902   4.372  15.353  0.00  0.00    +0.000 A 
ATOM      6  C   UNL     1       6.960   5.329  15.772  0.00  0.00    +0.000 A 
ATOM      7  O   UNL     1       7.787   5.740  14.963  0.00  0.00    +0.000 OA
ENDROOT
BRANCH   3   8
ATOM      8  C   UNL     1       3.983   3.969  18.597  0.00  0.00    +0.000 A 
ATOM      9  C   UNL     1       3.598   4.855  19.613  0.00  0.00    +0.000 A 
ATOM     10  C   UNL     1       2.670   4.460  20.580  0.00  0.00    +0.000 A 
ATOM     11  C   UNL     1       2.118   3.182  20.527  0.00  0.00    +0.000 A 
ATOM     12 CL   UNL     1       1.004   2.683  21.740  0.00  0.00    +0.000 Cl
ATOM     13  C   UNL     1       2.469   2.303  19.503  0.00  0.00    +0.000 A 
ATOM     14  C   UNL     1       3.399   2.697  18.536  0.00  0.00    +0.000 A 
ENDBRANCH   3   8
BRANCH   5  15
ATOM     15  C   UNL     1       5.861   3.864  13.921  0.00  0.00    +0.000 C 
ATOM     16  N   UNL     1       5.827   3.443  12.733  0.00  0.00    +0.000 NA
ENDBRANCH   5  15
BRANCH   1  17
ATOM     17  C   UNL     1       7.932   6.650  17.599  0.00  0.00    +0.000 C 
BRANCH  17  19
ATOM     18  C   UNL     1       8.056   9.150  17.860  0.00  0.00    +0.000 C 
ATOM     19  C   UNL     1       7.364   8.040  17.569  0.00  0.00    +0.000 C 
ENDBRANCH  17  19
ENDBRANCH   1  17
TORSDOF 4
ENDMDL
MODEL 6
REMARK VINA RESULT:      -7.1      1.672      2.115
REMARK  Name = 
REMARK  4 active torsions:
REMARK  status: ('A' for Active; 'I' for Inactive)
REMARK    1  A    between atoms: C_2  and  C_3
REMARK    2  A    between atoms: C_3  and  N_4
REMARK    3  A    between atoms: C_6  and  C_7
REMARK    4  A    between atoms: C_15  and  C_16
REMARK                            x       y       z     vdW  Elec       q    Type
REMARK                         _______ _______ _______ _____ _____    ______ ____
ROOT
ATOM      1  N   UNL     1       3.007   4.284  17.686  0.00  0.00    +0.000 N 
ATOM      2  C   UNL     1       2.356   5.425  18.142  0.00  0.00    +0.000 A 
ATOM      3  C   UNL     1       2.925   6.642  18.080  0.00  0.00    +0.000 A 
ATOM      4  C   UNL     1       4.243   6.756  17.494  0.00  0.00    +0.000 A 
ATOM      5  C   UNL     1       4.900   5.679  17.034  0.00  0.00    +0.000 A 
ATOM      6  C   UNL     1       4.288   4.327  17.123  0.00  0.00    +0.000 A 
ATOM      7  O   UNL     1       4.896   3.339  16.720  0.00  0.00    +0.000 OA
ENDROOT
BRANCH   3   8
ATOM      8  C   UNL     1       2.193   7.790  18.641  0.00  0.00    +0.000 A 
ATOM      9  C   UNL     1       1.880   8.885  17.823  0.00  0.00    +0.000 A 
ATOM     10  C   UNL     1       1.227  10.000  18.356  0.00  0.00    +0.000 A 
ATOM     11  C   UNL     1       0.877  10.018  19.705  0.00  0.00    +0.000 A 
ATOM     12 CL   UNL     1       0.108  11.406  20.369  0.00  0.00    +0.000 Cl
ATOM     13  C   UNL     1       1.154   8.921  20.520  0.00  0.00    +0.000 A 
ATOM     14  C   UNL     1       1.809   7.805  19.989  0.00  0.00    +0.000 A 
ENDBRANCH   3   8
BRANCH   5  15
ATOM     15  C   UNL     1       6.273   5.852  16.405  0.00  0.00    +0.000 C 
ATOM     16  N   UNL     1       7.412   5.996  15.883  0.00  0.00    +0.000 NA
ENDBRANCH   5  15
BRANCH   1  17
ATOM     17  C   UNL     1       2.351   2.987  17.814  0.00  0.00    +0.000 C 
BRANCH  17  19
ATOM     18  C   UNL     1       1.070   2.831  19.974  0.00  0.00    +0.000 C 
ATOM     19  C   UNL     1       1.126   3.128  18.668  0.00  0.00    +0.000 C 
ENDBRANCH  17  19
ENDBRANCH   1  17
TORSDOF 4
ENDMDL
MODEL 7
REMARK VINA RESULT:      -7.1      1.349      3.511
REMARK  Name = 
REMARK  4 active torsions:
REMARK  status: ('A' for Active; 'I' for Inactive)
REMARK    1  A    between atoms: C_2  and  C_3
REMARK    2  A    between atoms: C_3  and  N_4
REMARK    3  A    between atoms: C_6  and  C_7
REMARK    4  A    between atoms: C_15  and  C_16
REMARK                            x       y       z     vdW  Elec       q    Type
REMARK                         _______ _______ _______ _____ _____    ______ ____
ROOT
ATOM      1  N   UNL     1       4.266   4.674  18.845  0.00  0.00    +0.000 N 
ATOM      2  C   UNL     1       3.720   5.951  18.772  0.00  0.00    +0.000 A 
ATOM      3  C   UNL     1       2.648   6.309  19.501  0.00  0.00    +0.000 A 
ATOM      4  C   UNL     1       2.073   5.336  20.404  0.00  0.00    +0.000 A 
ATOM      5  C   UNL     1       2.579   4.096  20.510  0.00  0.00    +0.000 A 
ATOM      6  C   UNL     1       3.747   3.684  19.689  0.00  0.00    +0.000 A 
ATOM      7  O   UNL     1       4.198   2.544  19.770  0.00  0.00    +0.000 OA
ENDROOT
BRANCH   3   8
ATOM      8  C   UNL     1       2.094   7.661  19.318  0.00  0.00    +0.000 A 
ATOM      9  C   UNL     1       2.236   8.312  18.084  0.00  0.00    +0.000 A 
ATOM     10  C   UNL     1       1.755   9.613  17.913  0.00  0.00    +0.000 A 
ATOM     11  C   UNL     1       1.123  10.262  18.972  0.00  0.00    +0.000 A 
ATOM     12 CL   UNL     1       0.566  11.877  18.773  0.00  0.00    +0.000 Cl
ATOM     13  C   UNL     1       0.947   9.612  20.193  0.00  0.00    +0.000 A 
ATOM     14  C   UNL     1       1.429   8.311  20.366  0.00  0.00    +0.000 A 
ENDBRANCH   3   8
BRANCH   5  15
ATOM     15  C   UNL     1       1.956   3.116  21.490  0.00  0.00    +0.000 C 
ATOM     16  N   UNL     1       1.438   2.302  22.304  0.00  0.00    +0.000 NA
ENDBRANCH   5  15
BRANCH   1  17
ATOM     17  C   UNL     1       5.407   4.335  18.001  0.00  0.00    +0.000 C 
BRANCH  17  19
ATOM     18  C   UNL     1       5.773   4.042  15.529  0.00  0.00    +0.000 C 
ATOM     19  C   UNL     1       5.010   4.436  16.558  0.00  0.00    +0.000 C 
ENDBRANCH  17  19
ENDBRANCH   1  17
TORSDOF 4
ENDMDL
MODEL 8
REMARK VINA RESULT:      -7.0      1.286      3.557
REMARK  Name = 
REMARK  4 active torsions:
REMARK  status: ('A' for Active; 'I' for Inactive)
REMARK    1  A    between atoms: C_2  and  C_3
REMARK    2  A    between atoms: C_3  and  N_4
REMARK    3  A    between atoms: C_6  and  C_7
REMARK    4  A    between atoms: C_15  and  C_16
REMARK                            x       y       z     vdW  Elec       q    Type
REMARK                         _______ _______ _______ _____ _____    ______ ____
ROOT
ATOM      1  N   UNL     1       4.354   4.702  19.000  0.00  0.00    +0.000 N 
ATOM      2  C   UNL     1       3.790   5.969  18.905  0.00  0.00    +0.000 A 
ATOM      3  C   UNL     1       2.667   6.301  19.566  0.00  0.00    +0.000 A 
ATOM      4  C   UNL     1       2.053   5.307  20.420  0.00  0.00    +0.000 A 
ATOM      5  C   UNL     1       2.573   4.075  20.546  0.00  0.00    +0.000 A 
ATOM      6  C   UNL     1       3.800   3.693  19.798  0.00  0.00    +0.000 A 
ATOM      7  O   UNL     1       4.265   2.561  19.897  0.00  0.00    +0.000 OA
ENDROOT
BRANCH   3   8
ATOM      8  C   UNL     1       2.101   7.645  19.362  0.00  0.00    +0.000 A 
ATOM      9  C   UNL     1       1.491   8.314  20.432  0.00  0.00    +0.000 A 
ATOM     10  C   UNL     1       0.909   9.570  20.239  0.00  0.00    +0.000 A 
ATOM     11  C   UNL     1       0.945  10.163  18.978  0.00  0.00    +0.000 A 
ATOM     12 CL   UNL     1       0.195  11.691  18.732  0.00  0.00    +0.000 Cl
ATOM     13  C   UNL     1       1.578   9.520  17.914  0.00  0.00    +0.000 A 
ATOM     14  C   UNL     1       2.159   8.263  18.106  0.00  0.00    +0.000 A 
ENDBRANCH   3   8
BRANCH   5  15
ATOM     15  C   UNL     1       1.906   3.073  21.474  0.00  0.00    +0.000 C 
ATOM     16  N   UNL     1       1.352   2.241  22.243  0.00  0.00    +0.000 NA
ENDBRANCH   5  15
BRANCH   1  17
ATOM     17  C   UNL     1       5.554   4.393  18.229  0.00  0.00    +0.000 C 
BRANCH  17  19
ATOM     18  C   UNL     1       7.535   5.933  18.417  0.00  0.00    +0.000 C 
ATOM     19  C   UNL     1       6.309   5.659  17.950  0.00  0.00    +0.000 C 
ENDBRANCH  17  19
ENDBRANCH   1  17
TORSDOF 4
ENDMDL
MODEL 9
REMARK VINA RESULT:      -7.0      3.873      6.050
REMARK  Name = 
REMARK  4 active torsions:
REMARK  status: ('A' for Active; 'I' for Inactive)
REMARK    1  A    between atoms: C_2  and  C_3
REMARK    2  A    between atoms: C_3  and  N_4
REMARK    3  A    between atoms: C_6  and  C_7
REMARK    4  A    between atoms: C_15  and  C_16
REMARK                            x       y       z     vdW  Elec       q    Type
REMARK                         _______ _______ _______ _____ _____    ______ ____
ROOT
ATOM      1  N   UNL     1       7.020   5.840  17.582  0.00  0.00    +0.000 N 
ATOM      2  C   UNL     1       6.114   5.329  18.504  0.00  0.00    +0.000 A 
ATOM      3  C   UNL     1       5.137   4.477  18.145  0.00  0.00    +0.000 A 
ATOM      4  C   UNL     1       5.056   4.068  16.760  0.00  0.00    +0.000 A 
ATOM      5  C   UNL     1       5.920   4.532  15.842  0.00  0.00    +0.000 A 
ATOM      6  C   UNL     1       6.985   5.494  16.226  0.00  0.00    +0.000 A 
ATOM      7  O   UNL     1       7.763   5.934  15.383  0.00  0.00    +0.000 OA
ENDROOT
BRANCH   3   8
ATOM      8  C   UNL     1       4.180   4.031  19.172  0.00  0.00    +0.000 A 
ATOM      9  C   UNL     1       4.289   2.742  19.714  0.00  0.00    +0.000 A 
ATOM     10  C   UNL     1       3.359   2.292  20.654  0.00  0.00    +0.000 A 
ATOM     11  C   UNL     1       2.325   3.132  21.062  0.00  0.00    +0.000 A 
ATOM     12 CL   UNL     1       1.158   2.563  22.191  0.00  0.00    +0.000 Cl
ATOM     13  C   UNL     1       2.226   4.427  20.555  0.00  0.00    +0.000 A 
ATOM     14  C   UNL     1       3.155   4.879  19.612  0.00  0.00    +0.000 A 
ENDBRANCH   3   8
BRANCH   5  15
ATOM     15  C   UNL     1       5.810   4.055  14.403  0.00  0.00    +0.000 C 
ATOM     16  N   UNL     1       5.719   3.659  13.209  0.00  0.00    +0.000 NA
ENDBRANCH   5  15
BRANCH   1  17
ATOM     17  C   UNL     1       8.035   6.789  18.028  0.00  0.00    +0.000 C 
BRANCH  17  19
ATOM     18  C   UNL     1       8.293   9.292  17.985  0.00  0.00    +0.000 C 
ATOM     19  C   UNL     1       7.589   8.186  17.709  0.00  0.00    +0.000 C 
ENDBRANCH  17  19
ENDBRANCH   1  17
TORSDOF 4
ENDMDL
