MODEL 1
REMARK VINA RESULT:      -6.8      0.000      0.000
REMARK  Name = 
REMARK  13 active torsions:
REMARK  status: ('A' for Active; 'I' for Inactive)
REMARK    1  A    between atoms: C_2  and  P_26
REMARK    2  A    between atoms: N_3  and  C_4
REMARK    3  A    between atoms: C_4  and  C_5
REMARK    4  A    between atoms: C_5  and  C_6
REMARK    5  A    between atoms: C_6  and  C_7
REMARK    6  A    between atoms: C_7  and  C_8
REMARK    7  A    between atoms: C_8  and  N_9
REMARK    8  A    between atoms: N_9  and  S_10
REMARK    9  A    between atoms: S_10  and  C_13
REMARK   10  A    between atoms: C_16  and  O_17
REMARK   11  A    between atoms: O_17  and  C_18
REMARK   12  A    between atoms: P_26  and  O_28
REMARK   13  A    between atoms: P_26  and  O_29
REMARK                            x       y       z     vdW  Elec       q    Type
REMARK                         _______ _______ _______ _____ _____    ______ ____
ROOT
ATOM      1  N   UNL     1       2.516   5.216  18.020  0.00  0.00    +0.000 NA
ATOM      2  H   UNL     1       2.303   5.976  17.368  0.00  0.00    +0.000 HD
ENDROOT
BRANCH   1   3
ATOM      3  S   UNL     1       2.764   5.937  19.546  0.00  0.00    +0.000 S 
ATOM      4  O   UNL     1       1.924   5.253  20.496  0.00  0.00    +0.000 OA
ATOM      5  O   UNL     1       4.201   6.016  19.720  0.00  0.00    +0.000 OA
BRANCH   3   6
ATOM      6  C   UNL     1       2.132   7.577  19.305  0.00  0.00    +0.000 A 
ATOM      7  C   UNL     1       1.433   8.199  20.343  0.00  0.00    +0.000 A 
ATOM      8  C   UNL     1       0.835   9.438  20.113  0.00  0.00    +0.000 A 
ATOM      9  C   UNL     1       0.939  10.051  18.860  0.00  0.00    +0.000 A 
ATOM     10  C   UNL     1       1.607   9.398  17.817  0.00  0.00    +0.000 A 
ATOM     11  C   UNL     1       2.234   8.175  18.047  0.00  0.00    +0.000 A 
BRANCH   9  12
ATOM     12  O   UNL     1       0.292  11.260  18.727  0.00  0.00    +0.000 OA
BRANCH  12  13
ATOM     13  C   UNL     1      -1.077  11.299  18.587  0.00  0.00    +0.000 A 
ATOM     14  C   UNL     1      -1.755  12.152  19.461  0.00  0.00    +0.000 A 
ATOM     15  C   UNL     1      -3.145  12.261  19.397  0.00  0.00    +0.000 A 
ATOM     16  C   UNL     1      -3.860  11.515  18.459  0.00  0.00    +0.000 A 
ATOM     17  C   UNL     1      -3.185  10.689  17.564  0.00  0.00    +0.000 A 
ATOM     18  C   UNL     1      -1.793  10.604  17.609  0.00  0.00    +0.000 A 
ENDBRANCH  12  13
ENDBRANCH   9  12
ENDBRANCH   3   6
ENDBRANCH   1   3
BRANCH   1  19
ATOM     19  C   UNL     1       1.500   4.146  17.987  0.00  0.00    +0.000 C 
BRANCH  19  20
ATOM     20  C   UNL     1       2.157   2.795  17.725  0.00  0.00    +0.000 C 
BRANCH  20  21
ATOM     21  C   UNL     1       2.425   2.095  19.057  0.00  0.00    +0.000 C 
BRANCH  21  22
ATOM     22  C   UNL     1       3.786   2.455  19.646  0.00  0.00    +0.000 C 
BRANCH  22  23
ATOM     23  C   UNL     1       4.855   2.449  18.556  0.00  0.00    +0.000 C 
BRANCH  23  26
ATOM     24  O   UNL     1       5.584   3.784  16.133  0.00  0.00    +0.000 OA
ATOM     25  C   UNL     1       5.839   4.297  17.223  0.00  0.00    +0.000 C 
ATOM     26  N   UNL     1       5.515   3.724  18.439  0.00  0.00    +0.000 N 
ATOM     27  H   UNL     1       5.972   4.152  19.247  0.00  0.00    +0.000 HD
BRANCH  25  28
ATOM     28  P   UNL     1       6.693   5.913  17.158  0.00  0.00    +0.000 P 
ATOM     29  O   UNL     1       7.234   5.622  15.746  0.00  0.00    +0.000 OA
BRANCH  28  30
ATOM     30  O   UNL     1       5.280   6.743  16.961  0.00  0.00    +0.000 OA
ATOM     31  H   UNL     1       4.904   6.575  16.067  0.00  0.00    +0.000 HD
ENDBRANCH  28  30
BRANCH  28  32
ATOM     32  O   UNL     1       7.502   7.441  17.097  0.00  0.00    +0.000 OA
ATOM     33  H   UNL     1       6.982   7.935  16.429  0.00  0.00    +0.000 HD
ENDBRANCH  28  32
ENDBRANCH  25  28
ENDBRANCH  23  26
ENDBRANCH  22  23
ENDBRANCH  21  22
ENDBRANCH  20  21
ENDBRANCH  19  20
ENDBRANCH   1  19
TORSDOF 13
ENDMDL
MODEL 2
REMARK VINA RESULT:      -6.7      1.094      1.666
REMARK  Name = 
REMARK  13 active torsions:
REMARK  status: ('A' for Active; 'I' for Inactive)
REMARK    1  A    between atoms: C_2  and  P_26
REMARK    2  A    between atoms: N_3  and  C_4
REMARK    3  A    between atoms: C_4  and  C_5
REMARK    4  A    between atoms: C_5  and  C_6
REMARK    5  A    between atoms: C_6  and  C_7
REMARK    6  A    between atoms: C_7  and  C_8
REMARK    7  A    between atoms: C_8  and  N_9
REMARK    8  A    between atoms: N_9  and  S_10
REMARK    9  A    between atoms: S_10  and  C_13
REMARK   10  A    between atoms: C_16  and  O_17
REMARK   11  A    between atoms: O_17  and  C_18
REMARK   12  A    between atoms: P_26  and  O_28
REMARK   13  A    between atoms: P_26  and  O_29
REMARK                            x       y       z     vdW  Elec       q    Type
REMARK                         _______ _______ _______ _____ _____    ______ ____
ROOT
ATOM      1  N   UNL     1       1.931   5.154  20.388  0.00  0.00    +0.000 NA
ATOM      2  H   UNL     1       1.914   5.809  21.175  0.00  0.00    +0.000 HD
ENDROOT
BRANCH   1   3
ATOM      3  S   UNL     1       2.721   5.953  19.104  0.00  0.00    +0.000 S 
ATOM      4  O   UNL     1       4.117   6.050  19.441  0.00  0.00    +0.000 OA
ATOM      5  O   UNL     1       2.274   5.296  17.891  0.00  0.00    +0.000 OA
BRANCH   3   6
ATOM      6  C   UNL     1       2.007   7.576  19.164  0.00  0.00    +0.000 A 
ATOM      7  C   UNL     1       2.059   8.387  18.027  0.00  0.00    +0.000 A 
ATOM      8  C   UNL     1       1.605   9.704  18.109  0.00  0.00    +0.000 A 
ATOM      9  C   UNL     1       1.099  10.202  19.314  0.00  0.00    +0.000 A 
ATOM     10  C   UNL     1       1.089   9.392  20.455  0.00  0.00    +0.000 A 
ATOM     11  C   UNL     1       1.511   8.066  20.374  0.00  0.00    +0.000 A 
BRANCH   9  12
ATOM     12  O   UNL     1       0.700  11.521  19.298  0.00  0.00    +0.000 OA
BRANCH  12  13
ATOM     13  C   UNL     1      -0.628  11.842  19.463  0.00  0.00    +0.000 A 
ATOM     14  C   UNL     1      -0.927  12.653  20.561  0.00  0.00    +0.000 A 
ATOM     15  C   UNL     1      -2.246  13.034  20.814  0.00  0.00    +0.000 A 
ATOM     16  C   UNL     1      -3.269  12.604  19.969  0.00  0.00    +0.000 A 
ATOM     17  C   UNL     1      -2.972  11.823  18.854  0.00  0.00    +0.000 A 
ATOM     18  C   UNL     1      -1.649  11.468  18.586  0.00  0.00    +0.000 A 
ENDBRANCH  12  13
ENDBRANCH   9  12
ENDBRANCH   3   6
ENDBRANCH   1   3
BRANCH   1  19
ATOM     19  C   UNL     1       2.500   3.844  20.759  0.00  0.00    +0.000 C 
BRANCH  19  20
ATOM     20  C   UNL     1       1.576   2.716  20.310  0.00  0.00    +0.000 C 
BRANCH  20  21
ATOM     21  C   UNL     1       2.150   2.061  19.054  0.00  0.00    +0.000 C 
BRANCH  21  22
ATOM     22  C   UNL     1       3.674   2.115  19.008  0.00  0.00    +0.000 C 
BRANCH  22  23
ATOM     23  C   UNL     1       4.148   2.539  17.621  0.00  0.00    +0.000 C 
BRANCH  23  26
ATOM     24  O   UNL     1       5.900   3.496  15.572  0.00  0.00    +0.000 OA
ATOM     25  C   UNL     1       5.790   4.115  16.630  0.00  0.00    +0.000 C 
ATOM     26  N   UNL     1       4.962   3.726  17.667  0.00  0.00    +0.000 N 
ATOM     27  H   UNL     1       5.132   4.210  18.552  0.00  0.00    +0.000 HD
BRANCH  25  28
ATOM     28  P   UNL     1       6.807   5.629  16.773  0.00  0.00    +0.000 P 
ATOM     29  O   UNL     1       7.298   5.491  15.320  0.00  0.00    +0.000 OA
BRANCH  28  30
ATOM     30  O   UNL     1       5.484   6.617  16.731  0.00  0.00    +0.000 OA
ATOM     31  H   UNL     1       4.851   6.315  16.042  0.00  0.00    +0.000 HD
ENDBRANCH  28  30
BRANCH  28  32
ATOM     32  O   UNL     1       7.767   7.061  16.907  0.00  0.00    +0.000 OA
ATOM     33  H   UNL     1       7.396   7.638  16.208  0.00  0.00    +0.000 HD
ENDBRANCH  28  32
ENDBRANCH  25  28
ENDBRANCH  23  26
ENDBRANCH  22  23
ENDBRANCH  21  22
ENDBRANCH  20  21
ENDBRANCH  19  20
ENDBRANCH   1  19
TORSDOF 13
ENDMDL
MODEL 3
REMARK VINA RESULT:      -6.6      0.884      1.471
REMARK  Name = 
REMARK  13 active torsions:
REMARK  status: ('A' for Active; 'I' for Inactive)
REMARK    1  A    between atoms: C_2  and  P_26
REMARK    2  A    between atoms: N_3  and  C_4
REMARK    3  A    between atoms: C_4  and  C_5
REMARK    4  A    between atoms: C_5  and  C_6
REMARK    5  A    between atoms: C_6  and  C_7
REMARK    6  A    between atoms: C_7  and  C_8
REMARK    7  A    between atoms: C_8  and  N_9
REMARK    8  A    between atoms: N_9  and  S_10
REMARK    9  A    between atoms: S_10  and  C_13
REMARK   10  A    between atoms: C_16  and  O_17
REMARK   11  A    between atoms: O_17  and  C_18
REMARK   12  A    between atoms: P_26  and  O_28
REMARK   13  A    between atoms: P_26  and  O_29
REMARK                            x       y       z     vdW  Elec       q    Type
REMARK                         _______ _______ _______ _____ _____    ______ ____
ROOT
ATOM      1  N   UNL     1       1.874   4.960  18.770  0.00  0.00    +0.000 NA
ATOM      2  H   UNL     1       1.376   5.609  18.153  0.00  0.00    +0.000 HD
ENDROOT
BRANCH   1   3
ATOM      3  S   UNL     1       2.598   5.905  19.991  0.00  0.00    +0.000 S 
ATOM      4  O   UNL     1       1.997   5.535  21.246  0.00  0.00    +0.000 OA
ATOM      5  O   UNL     1       4.028   5.809  19.774  0.00  0.00    +0.000 OA
BRANCH   3   6
ATOM      6  C   UNL     1       2.072   7.547  19.571  0.00  0.00    +0.000 A 
ATOM      7  C   UNL     1       1.367   8.300  20.513  0.00  0.00    +0.000 A 
ATOM      8  C   UNL     1       0.851   9.542  20.143  0.00  0.00    +0.000 A 
ATOM      9  C   UNL     1       1.043  10.028  18.846  0.00  0.00    +0.000 A 
ATOM     10  C   UNL     1       1.716   9.246  17.900  0.00  0.00    +0.000 A 
ATOM     11  C   UNL     1       2.263   8.018  18.270  0.00  0.00    +0.000 A 
BRANCH   9  12
ATOM     12  O   UNL     1       0.473  11.252  18.572  0.00  0.00    +0.000 OA
BRANCH  12  13
ATOM     13  C   UNL     1      -0.892  11.410  18.647  0.00  0.00    +0.000 A 
ATOM     14  C   UNL     1      -1.642  10.663  17.734  0.00  0.00    +0.000 A 
ATOM     15  C   UNL     1      -3.035  10.754  17.731  0.00  0.00    +0.000 A 
ATOM     16  C   UNL     1      -3.681  11.592  18.639  0.00  0.00    +0.000 A 
ATOM     17  C   UNL     1      -2.939  12.312  19.573  0.00  0.00    +0.000 A 
ATOM     18  C   UNL     1      -1.549  12.198  19.595  0.00  0.00    +0.000 A 
ENDBRANCH  12  13
ENDBRANCH   9  12
ENDBRANCH   3   6
ENDBRANCH   1   3
BRANCH   1  19
ATOM     19  C   UNL     1       1.010   3.865  19.250  0.00  0.00    +0.000 C 
BRANCH  19  20
ATOM     20  C   UNL     1       1.316   2.575  18.495  0.00  0.00    +0.000 C 
BRANCH  20  21
ATOM     21  C   UNL     1       2.495   1.867  19.161  0.00  0.00    +0.000 C 
BRANCH  21  22
ATOM     22  C   UNL     1       3.779   1.968  18.343  0.00  0.00    +0.000 C 
BRANCH  22  23
ATOM     23  C   UNL     1       4.688   3.052  18.914  0.00  0.00    +0.000 C 
BRANCH  23  26
ATOM     24  O   UNL     1       4.161   4.841  16.744  0.00  0.00    +0.000 OA
ATOM     25  C   UNL     1       5.295   4.392  16.915  0.00  0.00    +0.000 C 
ATOM     26  N   UNL     1       5.636   3.530  17.940  0.00  0.00    +0.000 N 
ATOM     27  H   UNL     1       6.547   3.080  17.832  0.00  0.00    +0.000 HD
BRANCH  25  28
ATOM     28  P   UNL     1       6.555   4.941  15.707  0.00  0.00    +0.000 P 
ATOM     29  O   UNL     1       6.303   6.422  16.048  0.00  0.00    +0.000 OA
BRANCH  28  30
ATOM     30  O   UNL     1       7.805   4.443  16.663  0.00  0.00    +0.000 OA
ATOM     31  H   UNL     1       8.262   3.672  16.258  0.00  0.00    +0.000 HD
ENDBRANCH  28  30
BRANCH  28  32
ATOM     32  O   UNL     1       7.746   5.461  14.566  0.00  0.00    +0.000 OA
ATOM     33  H   UNL     1       7.405   5.107  13.719  0.00  0.00    +0.000 HD
ENDBRANCH  28  32
ENDBRANCH  25  28
ENDBRANCH  23  26
ENDBRANCH  22  23
ENDBRANCH  21  22
ENDBRANCH  20  21
ENDBRANCH  19  20
ENDBRANCH   1  19
TORSDOF 13
ENDMDL
MODEL 4
REMARK VINA RESULT:      -6.4      1.127      1.355
REMARK  Name = 
REMARK  13 active torsions:
REMARK  status: ('A' for Active; 'I' for Inactive)
REMARK    1  A    between atoms: C_2  and  P_26
REMARK    2  A    between atoms: N_3  and  C_4
REMARK    3  A    between atoms: C_4  and  C_5
REMARK    4  A    between atoms: C_5  and  C_6
REMARK    5  A    between atoms: C_6  and  C_7
REMARK    6  A    between atoms: C_7  and  C_8
REMARK    7  A    between atoms: C_8  and  N_9
REMARK    8  A    between atoms: N_9  and  S_10
REMARK    9  A    between atoms: S_10  and  C_13
REMARK   10  A    between atoms: C_16  and  O_17
REMARK   11  A    between atoms: O_17  and  C_18
REMARK   12  A    between atoms: P_26  and  O_28
REMARK   13  A    between atoms: P_26  and  O_29
REMARK                            x       y       z     vdW  Elec       q    Type
REMARK                         _______ _______ _______ _____ _____    ______ ____
ROOT
ATOM      1  N   UNL     1       2.201   5.560  17.706  0.00  0.00    +0.000 NA
ATOM      2  H   UNL     1       1.542   6.119  17.156  0.00  0.00    +0.000 HD
ENDROOT
BRANCH   1   3
ATOM      3  S   UNL     1       3.233   6.663  18.500  0.00  0.00    +0.000 S 
ATOM      4  O   UNL     1       3.623   6.074  19.753  0.00  0.00    +0.000 OA
ATOM      5  O   UNL     1       4.213   7.072  17.512  0.00  0.00    +0.000 OA
BRANCH   3   6
ATOM      6  C   UNL     1       2.154   8.033  18.826  0.00  0.00    +0.000 A 
ATOM      7  C   UNL     1       1.592   8.172  20.098  0.00  0.00    +0.000 A 
ATOM      8  C   UNL     1       0.652   9.179  20.320  0.00  0.00    +0.000 A 
ATOM      9  C   UNL     1       0.283  10.041  19.282  0.00  0.00    +0.000 A 
ATOM     10  C   UNL     1       0.823   9.866  18.003  0.00  0.00    +0.000 A 
ATOM     11  C   UNL     1       1.786   8.883  17.780  0.00  0.00    +0.000 A 
BRANCH   9  12
ATOM     12  O   UNL     1      -0.671  10.985  19.597  0.00  0.00    +0.000 OA
BRANCH  12  13
ATOM     13  C   UNL     1      -1.897  10.962  18.973  0.00  0.00    +0.000 A 
ATOM     14  C   UNL     1      -2.785  11.977  19.337  0.00  0.00    +0.000 A 
ATOM     15  C   UNL     1      -4.054  12.039  18.758  0.00  0.00    +0.000 A 
ATOM     16  C   UNL     1      -4.438  11.085  17.816  0.00  0.00    +0.000 A 
ATOM     17  C   UNL     1      -3.544  10.091  17.426  0.00  0.00    +0.000 A 
ATOM     18  C   UNL     1      -2.264  10.048  17.982  0.00  0.00    +0.000 A 
ENDBRANCH  12  13
ENDBRANCH   9  12
ENDBRANCH   3   6
ENDBRANCH   1   3
BRANCH   1  19
ATOM     19  C   UNL     1       1.520   4.591  18.585  0.00  0.00    +0.000 C 
BRANCH  19  20
ATOM     20  C   UNL     1       1.987   3.172  18.276  0.00  0.00    +0.000 C 
BRANCH  20  21
ATOM     21  C   UNL     1       2.161   2.400  19.584  0.00  0.00    +0.000 C 
BRANCH  21  22
ATOM     22  C   UNL     1       3.554   2.568  20.184  0.00  0.00    +0.000 C 
BRANCH  22  23
ATOM     23  C   UNL     1       4.605   2.620  19.079  0.00  0.00    +0.000 C 
BRANCH  23  26
ATOM     24  O   UNL     1       5.800   4.237  17.044  0.00  0.00    +0.000 OA
ATOM     25  C   UNL     1       6.077   4.429  18.227  0.00  0.00    +0.000 C 
ATOM     26  N   UNL     1       5.540   3.699  19.272  0.00  0.00    +0.000 N 
ATOM     27  H   UNL     1       6.016   3.825  20.168  0.00  0.00    +0.000 HD
BRANCH  25  28
ATOM     28  P   UNL     1       7.272   5.775  18.554  0.00  0.00    +0.000 P 
ATOM     29  O   UNL     1       8.303   4.783  19.125  0.00  0.00    +0.000 OA
BRANCH  28  30
ATOM     30  O   UNL     1       7.629   5.956  16.953  0.00  0.00    +0.000 OA
ATOM     31  H   UNL     1       7.287   6.816  16.620  0.00  0.00    +0.000 HD
ENDBRANCH  28  30
BRANCH  28  32
ATOM     32  O   UNL     1       8.403   7.047  18.864  0.00  0.00    +0.000 OA
ATOM     33  H   UNL     1       8.597   7.388  17.966  0.00  0.00    +0.000 HD
ENDBRANCH  28  32
ENDBRANCH  25  28
ENDBRANCH  23  26
ENDBRANCH  22  23
ENDBRANCH  21  22
ENDBRANCH  20  21
ENDBRANCH  19  20
ENDBRANCH   1  19
TORSDOF 13
ENDMDL
MODEL 5
REMARK VINA RESULT:      -6.4      1.814      2.651
REMARK  Name = 
REMARK  13 active torsions:
REMARK  status: ('A' for Active; 'I' for Inactive)
REMARK    1  A    between atoms: C_2  and  P_26
REMARK    2  A    between atoms: N_3  and  C_4
REMARK    3  A    between atoms: C_4  and  C_5
REMARK    4  A    between atoms: C_5  and  C_6
REMARK    5  A    between atoms: C_6  and  C_7
REMARK    6  A    between atoms: C_7  and  C_8
REMARK    7  A    between atoms: C_8  and  N_9
REMARK    8  A    between atoms: N_9  and  S_10
REMARK    9  A    between atoms: S_10  and  C_13
REMARK   10  A    between atoms: C_16  and  O_17
REMARK   11  A    between atoms: O_17  and  C_18
REMARK   12  A    between atoms: P_26  and  O_28
REMARK   13  A    between atoms: P_26  and  O_29
REMARK                            x       y       z     vdW  Elec       q    Type
REMARK                         _______ _______ _______ _____ _____    ______ ____
ROOT
ATOM      1  N   UNL     1       2.163   5.339  17.917  0.00  0.00    +0.000 NA
ATOM      2  H   UNL     1       1.454   5.857  17.388  0.00  0.00    +0.000 HD
ENDROOT
BRANCH   1   3
ATOM      3  S   UNL     1       3.213   6.502  18.592  0.00  0.00    +0.000 S 
ATOM      4  O   UNL     1       3.783   5.936  19.786  0.00  0.00    +0.000 OA
ATOM      5  O   UNL     1       4.043   6.970  17.500  0.00  0.00    +0.000 OA
BRANCH   3   6
ATOM      6  C   UNL     1       2.100   7.804  19.054  0.00  0.00    +0.000 A 
ATOM      7  C   UNL     1       1.726   8.753  18.100  0.00  0.00    +0.000 A 
ATOM      8  C   UNL     1       0.948   9.843  18.492  0.00  0.00    +0.000 A 
ATOM      9  C   UNL     1       0.544   9.977  19.825  0.00  0.00    +0.000 A 
ATOM     10  C   UNL     1       0.959   9.041  20.778  0.00  0.00    +0.000 A 
ATOM     11  C   UNL     1       1.710   7.933  20.389  0.00  0.00    +0.000 A 
BRANCH   9  12
ATOM     12  O   UNL     1      -0.200  11.101  20.115  0.00  0.00    +0.000 OA
BRANCH  12  13
ATOM     13  C   UNL     1       0.307  12.352  19.849  0.00  0.00    +0.000 A 
ATOM     14  C   UNL     1       1.463  12.703  20.552  0.00  0.00    +0.000 A 
ATOM     15  C   UNL     1       2.053  13.952  20.351  0.00  0.00    +0.000 A 
ATOM     16  C   UNL     1       1.489  14.853  19.448  0.00  0.00    +0.000 A 
ATOM     17  C   UNL     1       0.357  14.494  18.720  0.00  0.00    +0.000 A 
ATOM     18  C   UNL     1      -0.215  13.233  18.900  0.00  0.00    +0.000 A 
ENDBRANCH  12  13
ENDBRANCH   9  12
ENDBRANCH   3   6
ENDBRANCH   1   3
BRANCH   1  19
ATOM     19  C   UNL     1       1.567   4.394  18.880  0.00  0.00    +0.000 C 
BRANCH  19  20
ATOM     20  C   UNL     1       1.287   3.054  18.208  0.00  0.00    +0.000 C 
BRANCH  20  21
ATOM     21  C   UNL     1       2.553   2.566  17.505  0.00  0.00    +0.000 C 
BRANCH  21  22
ATOM     22  C   UNL     1       3.569   1.968  18.473  0.00  0.00    +0.000 C 
BRANCH  22  23
ATOM     23  C   UNL     1       4.714   2.948  18.714  0.00  0.00    +0.000 C 
BRANCH  23  26
ATOM     24  O   UNL     1       6.998   4.645  18.426  0.00  0.00    +0.000 OA
ATOM     25  C   UNL     1       6.378   4.269  17.431  0.00  0.00    +0.000 C 
ATOM     26  N   UNL     1       5.270   3.444  17.481  0.00  0.00    +0.000 N 
ATOM     27  H   UNL     1       4.739   3.390  16.609  0.00  0.00    +0.000 HD
BRANCH  25  28
ATOM     28  P   UNL     1       7.014   4.871  15.825  0.00  0.00    +0.000 P 
ATOM     29  O   UNL     1       6.300   3.737  15.066  0.00  0.00    +0.000 OA
BRANCH  28  30
ATOM     30  O   UNL     1       5.988   6.165  15.813  0.00  0.00    +0.000 OA
ATOM     31  H   UNL     1       6.253   6.807  15.117  0.00  0.00    +0.000 HD
ENDBRANCH  28  30
BRANCH  28  32
ATOM     32  O   UNL     1       7.615   5.440  14.306  0.00  0.00    +0.000 OA
ATOM     33  H   UNL     1       8.581   5.303  14.390  0.00  0.00    +0.000 HD
ENDBRANCH  28  32
ENDBRANCH  25  28
ENDBRANCH  23  26
ENDBRANCH  22  23
ENDBRANCH  21  22
ENDBRANCH  20  21
ENDBRANCH  19  20
ENDBRANCH   1  19
TORSDOF 13
ENDMDL
MODEL 6
REMARK VINA RESULT:      -6.3      2.048      3.026
REMARK  Name = 
REMARK  13 active torsions:
REMARK  status: ('A' for Active; 'I' for Inactive)
REMARK    1  A    between atoms: C_2  and  P_26
REMARK    2  A    between atoms: N_3  and  C_4
REMARK    3  A    between atoms: C_4  and  C_5
REMARK    4  A    between atoms: C_5  and  C_6
REMARK    5  A    between atoms: C_6  and  C_7
REMARK    6  A    between atoms: C_7  and  C_8
REMARK    7  A    between atoms: C_8  and  N_9
REMARK    8  A    between atoms: N_9  and  S_10
REMARK    9  A    between atoms: S_10  and  C_13
REMARK   10  A    between atoms: C_16  and  O_17
REMARK   11  A    between atoms: O_17  and  C_18
REMARK   12  A    between atoms: P_26  and  O_28
REMARK   13  A    between atoms: P_26  and  O_29
REMARK                            x       y       z     vdW  Elec       q    Type
REMARK                         _______ _______ _______ _____ _____    ______ ____
ROOT
ATOM      1  N   UNL     1       2.515   5.270  17.817  0.00  0.00    +0.000 NA
ATOM      2  H   UNL     1       2.552   6.064  17.170  0.00  0.00    +0.000 HD
ENDROOT
BRANCH   1   3
ATOM      3  S   UNL     1       2.703   5.910  19.387  0.00  0.00    +0.000 S 
ATOM      4  O   UNL     1       1.876   5.138  20.277  0.00  0.00    +0.000 OA
ATOM      5  O   UNL     1       4.132   6.040  19.595  0.00  0.00    +0.000 OA
BRANCH   3   6
ATOM      6  C   UNL     1       2.006   7.534  19.227  0.00  0.00    +0.000 A 
ATOM      7  C   UNL     1       2.136   8.217  18.015  0.00  0.00    +0.000 A 
ATOM      8  C   UNL     1       1.694   9.537  17.926  0.00  0.00    +0.000 A 
ATOM      9  C   UNL     1       1.122  10.165  19.037  0.00  0.00    +0.000 A 
ATOM     10  C   UNL     1       1.034   9.484  20.256  0.00  0.00    +0.000 A 
ATOM     11  C   UNL     1       1.444   8.154  20.345  0.00  0.00    +0.000 A 
BRANCH   9  12
ATOM     12  O   UNL     1       0.741  11.477  18.855  0.00  0.00    +0.000 OA
BRANCH  12  13
ATOM     13  C   UNL     1       1.646  12.493  19.060  0.00  0.00    +0.000 A 
ATOM     14  C   UNL     1       1.798  12.916  20.383  0.00  0.00    +0.000 A 
ATOM     15  C   UNL     1       2.693  13.942  20.693  0.00  0.00    +0.000 A 
ATOM     16  C   UNL     1       3.436  14.548  19.680  0.00  0.00    +0.000 A 
ATOM     17  C   UNL     1       3.313  14.107  18.365  0.00  0.00    +0.000 A 
ATOM     18  C   UNL     1       2.440  13.061  18.060  0.00  0.00    +0.000 A 
ENDBRANCH  12  13
ENDBRANCH   9  12
ENDBRANCH   3   6
ENDBRANCH   1   3
BRANCH   1  19
ATOM     19  C   UNL     1       1.314   4.438  17.617  0.00  0.00    +0.000 C 
BRANCH  19  20
ATOM     20  C   UNL     1       1.437   3.129  18.391  0.00  0.00    +0.000 C 
BRANCH  20  21
ATOM     21  C   UNL     1       2.584   2.303  17.810  0.00  0.00    +0.000 C 
BRANCH  21  22
ATOM     22  C   UNL     1       3.592   1.869  18.870  0.00  0.00    +0.000 C 
BRANCH  22  23
ATOM     23  C   UNL     1       4.704   2.906  19.001  0.00  0.00    +0.000 C 
BRANCH  23  26
ATOM     24  O   UNL     1       7.053   4.423  18.397  0.00  0.00    +0.000 OA
ATOM     25  C   UNL     1       6.208   4.218  17.526  0.00  0.00    +0.000 C 
ATOM     26  N   UNL     1       5.051   3.491  17.731  0.00  0.00    +0.000 N 
ATOM     27  H   UNL     1       4.353   3.583  16.990  0.00  0.00    +0.000 HD
BRANCH  25  28
ATOM     28  P   UNL     1       6.569   4.944  15.885  0.00  0.00    +0.000 P 
ATOM     29  O   UNL     1       5.161   5.562  15.799  0.00  0.00    +0.000 OA
BRANCH  28  30
ATOM     30  O   UNL     1       7.555   6.102  16.525  0.00  0.00    +0.000 OA
ATOM     31  H   UNL     1       8.051   5.745  17.296  0.00  0.00    +0.000 HD
ENDBRANCH  28  30
BRANCH  28  32
ATOM     32  O   UNL     1       6.910   5.630  14.334  0.00  0.00    +0.000 OA
ATOM     33  H   UNL     1       6.113   5.397  13.814  0.00  0.00    +0.000 HD
ENDBRANCH  28  32
ENDBRANCH  25  28
ENDBRANCH  23  26
ENDBRANCH  22  23
ENDBRANCH  21  22
ENDBRANCH  20  21
ENDBRANCH  19  20
ENDBRANCH   1  19
TORSDOF 13
ENDMDL
MODEL 7
REMARK VINA RESULT:      -6.2      5.683     10.860
REMARK  Name = 
REMARK  13 active torsions:
REMARK  status: ('A' for Active; 'I' for Inactive)
REMARK    1  A    between atoms: C_2  and  P_26
REMARK    2  A    between atoms: N_3  and  C_4
REMARK    3  A    between atoms: C_4  and  C_5
REMARK    4  A    between atoms: C_5  and  C_6
REMARK    5  A    between atoms: C_6  and  C_7
REMARK    6  A    between atoms: C_7  and  C_8
REMARK    7  A    between atoms: C_8  and  N_9
REMARK    8  A    between atoms: N_9  and  S_10
REMARK    9  A    between atoms: S_10  and  C_13
REMARK   10  A    between atoms: C_16  and  O_17
REMARK   11  A    between atoms: O_17  and  C_18
REMARK   12  A    between atoms: P_26  and  O_28
REMARK   13  A    between atoms: P_26  and  O_29
REMARK                            x       y       z     vdW  Elec       q    Type
REMARK                         _______ _______ _______ _____ _____    ______ ____
ROOT
ATOM      1  N   UNL     1      -1.072  11.398  20.393  0.00  0.00    +0.000 NA
ATOM      2  H   UNL     1      -1.990  11.007  20.160  0.00  0.00    +0.000 HD
ENDROOT
BRANCH   1   3
ATOM      3  S   UNL     1      -0.147  11.360  18.960  0.00  0.00    +0.000 S 
ATOM      4  O   UNL     1      -1.061  11.290  17.850  0.00  0.00    +0.000 OA
ATOM      5  O   UNL     1       0.821  12.433  19.083  0.00  0.00    +0.000 OA
BRANCH   3   6
ATOM      6  C   UNL     1       0.707   9.811  19.094  0.00  0.00    +0.000 A 
ATOM      7  C   UNL     1       0.809   9.193  20.343  0.00  0.00    +0.000 A 
ATOM      8  C   UNL     1       1.581   8.037  20.469  0.00  0.00    +0.000 A 
ATOM      9  C   UNL     1       2.238   7.503  19.357  0.00  0.00    +0.000 A 
ATOM     10  C   UNL     1       2.161   8.154  18.120  0.00  0.00    +0.000 A 
ATOM     11  C   UNL     1       1.367   9.291  17.978  0.00  0.00    +0.000 A 
BRANCH   9  12
ATOM     12  O   UNL     1       2.995   6.375  19.591  0.00  0.00    +0.000 OA
BRANCH  12  13
ATOM     13  C   UNL     1       2.380   5.160  19.787  0.00  0.00    +0.000 A 
ATOM     14  C   UNL     1       1.865   4.546  18.643  0.00  0.00    +0.000 A 
ATOM     15  C   UNL     1       1.222   3.310  18.739  0.00  0.00    +0.000 A 
ATOM     16  C   UNL     1       1.092   2.687  19.980  0.00  0.00    +0.000 A 
ATOM     17  C   UNL     1       1.633   3.280  21.118  0.00  0.00    +0.000 A 
ATOM     18  C   UNL     1       2.302   4.501  21.017  0.00  0.00    +0.000 A 
ENDBRANCH  12  13
ENDBRANCH   9  12
ENDBRANCH   3   6
ENDBRANCH   1   3
BRANCH   1  19
ATOM     19  C   UNL     1      -1.172  12.718  21.043  0.00  0.00    +0.000 C 
BRANCH  19  20
ATOM     20  C   UNL     1      -2.311  13.529  20.431  0.00  0.00    +0.000 C 
BRANCH  20  21
ATOM     21  C   UNL     1      -3.644  12.863  20.770  0.00  0.00    +0.000 C 
BRANCH  21  22
ATOM     22  C   UNL     1      -4.406  12.409  19.529  0.00  0.00    +0.000 C 
BRANCH  22  23
ATOM     23  C   UNL     1      -5.841  12.927  19.567  0.00  0.00    +0.000 C 
BRANCH  23  26
ATOM     24  O   UNL     1      -7.303  11.323  21.429  0.00  0.00    +0.000 OA
ATOM     25  C   UNL     1      -6.959  12.465  21.734  0.00  0.00    +0.000 C 
ATOM     26  N   UNL     1      -6.245  13.303  20.898  0.00  0.00    +0.000 N 
ATOM     27  H   UNL     1      -6.217  14.279  21.197  0.00  0.00    +0.000 HD
BRANCH  25  28
ATOM     28  P   UNL     1      -7.450  13.022  23.406  0.00  0.00    +0.000 P 
ATOM     29  O   UNL     1      -7.374  11.585  23.956  0.00  0.00    +0.000 OA
BRANCH  28  30
ATOM     30  O   UNL     1      -5.980  13.716  23.694  0.00  0.00    +0.000 OA
ATOM     31  H   UNL     1      -5.262  13.048  23.610  0.00  0.00    +0.000 HD
ENDBRANCH  28  30
BRANCH  28  32
ATOM     32  O   UNL     1      -7.914  13.548  24.987  0.00  0.00    +0.000 OA
ATOM     33  H   UNL     1      -8.806  13.157  25.093  0.00  0.00    +0.000 HD
ENDBRANCH  28  32
ENDBRANCH  25  28
ENDBRANCH  23  26
ENDBRANCH  22  23
ENDBRANCH  21  22
ENDBRANCH  20  21
ENDBRANCH  19  20
ENDBRANCH   1  19
TORSDOF 13
ENDMDL
MODEL 8
REMARK VINA RESULT:      -6.2      2.199      3.118
REMARK  Name = 
REMARK  13 active torsions:
REMARK  status: ('A' for Active; 'I' for Inactive)
REMARK    1  A    between atoms: C_2  and  P_26
REMARK    2  A    between atoms: N_3  and  C_4
REMARK    3  A    between atoms: C_4  and  C_5
REMARK    4  A    between atoms: C_5  and  C_6
REMARK    5  A    between atoms: C_6  and  C_7
REMARK    6  A    between atoms: C_7  and  C_8
REMARK    7  A    between atoms: C_8  and  N_9
REMARK    8  A    between atoms: N_9  and  S_10
REMARK    9  A    between atoms: S_10  and  C_13
REMARK   10  A    between atoms: C_16  and  O_17
REMARK   11  A    between atoms: O_17  and  C_18
REMARK   12  A    between atoms: P_26  and  O_28
REMARK   13  A    between atoms: P_26  and  O_29
REMARK                            x       y       z     vdW  Elec       q    Type
REMARK                         _______ _______ _______ _____ _____    ______ ____
ROOT
ATOM      1  N   UNL     1       2.328   5.382  20.518  0.00  0.00    +0.000 NA
ATOM      2  H   UNL     1       3.174   5.014  20.964  0.00  0.00    +0.000 HD
ENDROOT
BRANCH   1   3
ATOM      3  S   UNL     1       2.828   6.140  19.074  0.00  0.00    +0.000 S 
ATOM      4  O   UNL     1       4.251   6.342  19.156  0.00  0.00    +0.000 OA
ATOM      5  O   UNL     1       2.228   5.378  17.997  0.00  0.00    +0.000 OA
BRANCH   3   6
ATOM      6  C   UNL     1       2.023   7.717  19.168  0.00  0.00    +0.000 A 
ATOM      7  C   UNL     1       2.092   8.585  18.075  0.00  0.00    +0.000 A 
ATOM      8  C   UNL     1       1.561   9.871  18.192  0.00  0.00    +0.000 A 
ATOM      9  C   UNL     1       0.963  10.281  19.388  0.00  0.00    +0.000 A 
ATOM     10  C   UNL     1       0.936   9.416  20.487  0.00  0.00    +0.000 A 
ATOM     11  C   UNL     1       1.435   8.120  20.370  0.00  0.00    +0.000 A 
BRANCH   9  12
ATOM     12  O   UNL     1       0.492  11.576  19.410  0.00  0.00    +0.000 OA
BRANCH  12  13
ATOM     13  C   UNL     1       1.376  12.631  19.391  0.00  0.00    +0.000 A 
ATOM     14  C   UNL     1       2.065  12.870  20.582  0.00  0.00    +0.000 A 
ATOM     15  C   UNL     1       2.984  13.918  20.663  0.00  0.00    +0.000 A 
ATOM     16  C   UNL     1       3.214  14.730  19.552  0.00  0.00    +0.000 A 
ATOM     17  C   UNL     1       2.553  14.475  18.353  0.00  0.00    +0.000 A 
ATOM     18  C   UNL     1       1.658  13.408  18.264  0.00  0.00    +0.000 A 
ENDBRANCH  12  13
ENDBRANCH   9  12
ENDBRANCH   3   6
ENDBRANCH   1   3
BRANCH   1  19
ATOM     19  C   UNL     1       1.283   4.354  20.360  0.00  0.00    +0.000 C 
BRANCH  19  20
ATOM     20  C   UNL     1       1.874   2.959  20.546  0.00  0.00    +0.000 C 
BRANCH  20  21
ATOM     21  C   UNL     1       3.368   2.996  20.226  0.00  0.00    +0.000 C 
BRANCH  21  22
ATOM     22  C   UNL     1       3.774   1.947  19.195  0.00  0.00    +0.000 C 
BRANCH  22  23
ATOM     23  C   UNL     1       3.889   2.580  17.811  0.00  0.00    +0.000 C 
BRANCH  23  26
ATOM     24  O   UNL     1       4.979   3.832  15.482  0.00  0.00    +0.000 OA
ATOM     25  C   UNL     1       5.354   4.178  16.602  0.00  0.00    +0.000 C 
ATOM     26  N   UNL     1       4.874   3.631  17.778  0.00  0.00    +0.000 N 
ATOM     27  H   UNL     1       5.422   3.862  18.609  0.00  0.00    +0.000 HD
BRANCH  25  28
ATOM     28  P   UNL     1       6.617   5.500  16.642  0.00  0.00    +0.000 P 
ATOM     29  O   UNL     1       7.195   4.971  17.969  0.00  0.00    +0.000 OA
BRANCH  28  30
ATOM     30  O   UNL     1       7.499   4.805  15.433  0.00  0.00    +0.000 OA
ATOM     31  H   UNL     1       6.947   4.688  14.627  0.00  0.00    +0.000 HD
ENDBRANCH  28  30
BRANCH  28  32
ATOM     32  O   UNL     1       7.813   6.750  16.681  0.00  0.00    +0.000 OA
ATOM     33  H   UNL     1       8.397   6.469  17.415  0.00  0.00    +0.000 HD
ENDBRANCH  28  32
ENDBRANCH  25  28
ENDBRANCH  23  26
ENDBRANCH  22  23
ENDBRANCH  21  22
ENDBRANCH  20  21
ENDBRANCH  19  20
ENDBRANCH   1  19
TORSDOF 13
ENDMDL
MODEL 9
REMARK VINA RESULT:      -6.2      2.103      2.995
REMARK  Name = 
REMARK  13 active torsions:
REMARK  status: ('A' for Active; 'I' for Inactive)
REMARK    1  A    between atoms: C_2  and  P_26
REMARK    2  A    between atoms: N_3  and  C_4
REMARK    3  A    between atoms: C_4  and  C_5
REMARK    4  A    between atoms: C_5  and  C_6
REMARK    5  A    between atoms: C_6  and  C_7
REMARK    6  A    between atoms: C_7  and  C_8
REMARK    7  A    between atoms: C_8  and  N_9
REMARK    8  A    between atoms: N_9  and  S_10
REMARK    9  A    between atoms: S_10  and  C_13
REMARK   10  A    between atoms: C_16  and  O_17
REMARK   11  A    between atoms: O_17  and  C_18
REMARK   12  A    between atoms: P_26  and  O_28
REMARK   13  A    between atoms: P_26  and  O_29
REMARK                            x       y       z     vdW  Elec       q    Type
REMARK                         _______ _______ _______ _____ _____    ______ ____
ROOT
ATOM      1  N   UNL     1       1.558   4.704  19.067  0.00  0.00    +0.000 NA
ATOM      2  H   UNL     1       0.914   5.318  18.559  0.00  0.00    +0.000 HD
ENDROOT
BRANCH   1   3
ATOM      3  S   UNL     1       2.666   5.720  19.874  0.00  0.00    +0.000 S 
ATOM      4  O   UNL     1       2.598   5.414  21.278  0.00  0.00    +0.000 OA
ATOM      5  O   UNL     1       3.908   5.623  19.132  0.00  0.00    +0.000 OA
BRANCH   3   6
ATOM      6  C   UNL     1       1.974   7.332  19.608  0.00  0.00    +0.000 A 
ATOM      7  C   UNL     1       2.145   7.953  18.368  0.00  0.00    +0.000 A 
ATOM      8  C   UNL     1       1.705   9.266  18.197  0.00  0.00    +0.000 A 
ATOM      9  C   UNL     1       1.096   9.949  19.255  0.00  0.00    +0.000 A 
ATOM     10  C   UNL     1       0.968   9.330  20.504  0.00  0.00    +0.000 A 
ATOM     11  C   UNL     1       1.375   8.008  20.674  0.00  0.00    +0.000 A 
BRANCH   9  12
ATOM     12  O   UNL     1       0.721  11.249  18.994  0.00  0.00    +0.000 OA
BRANCH  12  13
ATOM     13  C   UNL     1       1.629  12.272  19.143  0.00  0.00    +0.000 A 
ATOM     14  C   UNL     1       1.810  12.741  20.447  0.00  0.00    +0.000 A 
ATOM     15  C   UNL     1       2.710  13.777  20.702  0.00  0.00    +0.000 A 
ATOM     16  C   UNL     1       3.430  14.348  19.652  0.00  0.00    +0.000 A 
ATOM     17  C   UNL     1       3.277  13.862  18.356  0.00  0.00    +0.000 A 
ATOM     18  C   UNL     1       2.400  12.806  18.107  0.00  0.00    +0.000 A 
ENDBRANCH  12  13
ENDBRANCH   9  12
ENDBRANCH   3   6
ENDBRANCH   1   3
BRANCH   1  19
ATOM     19  C   UNL     1       0.852   3.735  19.926  0.00  0.00    +0.000 C 
BRANCH  19  20
ATOM     20  C   UNL     1       1.367   2.322  19.670  0.00  0.00    +0.000 C 
BRANCH  20  21
ATOM     21  C   UNL     1       2.045   2.270  18.302  0.00  0.00    +0.000 C 
BRANCH  21  22
ATOM     22  C   UNL     1       3.546   2.014  18.400  0.00  0.00    +0.000 C 
BRANCH  22  23
ATOM     23  C   UNL     1       4.239   2.412  17.099  0.00  0.00    +0.000 C 
BRANCH  23  26
ATOM     24  O   UNL     1       6.064   3.516  15.194  0.00  0.00    +0.000 OA
ATOM     25  C   UNL     1       5.889   4.074  16.277  0.00  0.00    +0.000 C 
ATOM     26  N   UNL     1       5.021   3.612  17.249  0.00  0.00    +0.000 N 
ATOM     27  H   UNL     1       5.137   4.050  18.166  0.00  0.00    +0.000 HD
BRANCH  25  28
ATOM     28  P   UNL     1       6.861   5.599  16.550  0.00  0.00    +0.000 P 
ATOM     29  O   UNL     1       7.862   4.854  17.453  0.00  0.00    +0.000 OA
BRANCH  28  30
ATOM     30  O   UNL     1       7.490   5.568  15.024  0.00  0.00    +0.000 OA
ATOM     31  H   UNL     1       7.114   6.298  14.482  0.00  0.00    +0.000 HD
ENDBRANCH  28  30
BRANCH  28  32
ATOM     32  O   UNL     1       7.781   7.041  16.809  0.00  0.00    +0.000 OA
ATOM     33  H   UNL     1       8.421   7.026  16.067  0.00  0.00    +0.000 HD
ENDBRANCH  28  32
ENDBRANCH  25  28
ENDBRANCH  23  26
ENDBRANCH  22  23
ENDBRANCH  21  22
ENDBRANCH  20  21
ENDBRANCH  19  20
ENDBRANCH   1  19
TORSDOF 13
ENDMDL
