MODEL 1
REMARK VINA RESULT:      -6.7      0.000      0.000
REMARK  Name = 
REMARK  8 active torsions:
REMARK  status: ('A' for Active; 'I' for Inactive)
REMARK    1  A    between atoms: C_1  and  C_2
REMARK    2  A    between atoms: C_5  and  C_6
REMARK    3  A    between atoms: N_8  and  C_9
REMARK    4  A    between atoms: C_14  and  C_15
REMARK    5  A    between atoms: C_15  and  N_16
REMARK    6  A    between atoms: N_16  and  C_17
REMARK    7  A    between atoms: N_16  and  C_18
REMARK    8  A    between atoms: C_20  and  C_21
REMARK                            x       y       z     vdW  Elec       q    Type
REMARK                         _______ _______ _______ _____ _____    ______ ____
ROOT
ATOM      1  C   UNL     1       2.316   7.801  18.713  0.00  0.00    +0.000 C 
ATOM      2  O   UNL     1       1.967   7.612  19.876  0.00  0.00    +0.000 OA
ATOM      3  N   UNL     1       1.854   8.842  17.916  0.00  0.00    +0.000 N 
ATOM      4  H   UNL     1       2.150   8.798  16.943  0.00  0.00    +0.000 HD
ENDROOT
BRANCH   1   9
ATOM      5  C   UNL     1       4.747   3.860  16.545  0.00  0.00    +0.000 C 
ATOM      6  C   UNL     1       4.356   5.198  17.054  0.00  0.00    +0.000 A 
ATOM      7  C   UNL     1       5.073   6.370  16.957  0.00  0.00    +0.000 A 
ATOM      8  O   UNL     1       4.403   7.399  17.531  0.00  0.00    +0.000 OA
ATOM      9  C   UNL     1       3.229   6.898  18.029  0.00  0.00    +0.000 A 
ATOM     10  C   UNL     1       3.152   5.539  17.744  0.00  0.00    +0.000 A 
ATOM     11  C   UNL     1       2.045   4.592  18.072  0.00  0.00    +0.000 C 
ENDBRANCH   1   9
BRANCH   3  12
ATOM     12  C   UNL     1       0.879   9.799  18.260  0.00  0.00    +0.000 A 
ATOM     13  C   UNL     1       1.148  10.890  19.087  0.00  0.00    +0.000 A 
ATOM     14  C   UNL     1       0.119  11.730  19.515  0.00  0.00    +0.000 A 
ATOM     15  C   UNL     1      -1.195  11.503  19.107  0.00  0.00    +0.000 A 
ATOM     16 CL   UNL     1      -2.409  12.534  19.775  0.00  0.00    +0.000 Cl
ATOM     17  C   UNL     1      -1.489  10.463  18.212  0.00  0.00    +0.000 A 
ATOM     18  C   UNL     1      -0.429   9.626  17.785  0.00  0.00    +0.000 A 
BRANCH  17  19
ATOM     19  C   UNL     1      -2.890  10.228  17.674  0.00  0.00    +0.000 C 
BRANCH  19  20
ATOM     20  N   UNL     1      -3.299  11.180  16.622  0.00  0.00    +0.000 NA
ATOM     21  C   UNL     1      -3.062  10.632  15.282  0.00  0.00    +0.000 C 
ATOM     22  C   UNL     1      -4.726  11.490  16.767  0.00  0.00    +0.000 C 
ENDBRANCH  19  20
ENDBRANCH  17  19
ENDBRANCH   3  12
TORSDOF 4
ENDMDL
MODEL 2
REMARK VINA RESULT:      -6.6      4.120      8.311
REMARK  Name = 
REMARK  8 active torsions:
REMARK  status: ('A' for Active; 'I' for Inactive)
REMARK    1  A    between atoms: C_1  and  C_2
REMARK    2  A    between atoms: C_5  and  C_6
REMARK    3  A    between atoms: N_8  and  C_9
REMARK    4  A    between atoms: C_14  and  C_15
REMARK    5  A    between atoms: C_15  and  N_16
REMARK    6  A    between atoms: N_16  and  C_17
REMARK    7  A    between atoms: N_16  and  C_18
REMARK    8  A    between atoms: C_20  and  C_21
REMARK                            x       y       z     vdW  Elec       q    Type
REMARK                         _______ _______ _______ _____ _____    ______ ____
ROOT
ATOM      1  C   UNL     1       1.577   7.770  20.309  0.00  0.00    +0.000 C 
ATOM      2  O   UNL     1       2.012   8.091  19.206  0.00  0.00    +0.000 OA
ATOM      3  N   UNL     1       1.603   6.476  20.814  0.00  0.00    +0.000 N 
ATOM      4  H   UNL     1       1.105   6.350  21.692  0.00  0.00    +0.000 HD
ENDROOT
BRANCH   1   9
ATOM      5  C   UNL     1      -1.164  11.513  22.456  0.00  0.00    +0.000 C 
ATOM      6  C   UNL     1      -0.254  10.369  22.201  0.00  0.00    +0.000 A 
ATOM      7  C   UNL     1       0.499   9.680  23.124  0.00  0.00    +0.000 A 
ATOM      8  O   UNL     1       1.209   8.689  22.531  0.00  0.00    +0.000 OA
ATOM      9  C   UNL     1       0.931   8.732  21.189  0.00  0.00    +0.000 A 
ATOM     10  C   UNL     1       0.018   9.751  20.941  0.00  0.00    +0.000 A 
ATOM     11  C   UNL     1      -0.587  10.146  19.635  0.00  0.00    +0.000 C 
ENDBRANCH   1   9
BRANCH   3  12
ATOM     12  C   UNL     1       2.053   5.319  20.147  0.00  0.00    +0.000 A 
ATOM     13  C   UNL     1       1.255   4.189  19.970  0.00  0.00    +0.000 A 
ATOM     14  C   UNL     1       1.788   3.017  19.431  0.00  0.00    +0.000 A 
ATOM     15  C   UNL     1       3.126   2.964  19.041  0.00  0.00    +0.000 A 
ATOM     16 CL   UNL     1       3.716   1.438  18.484  0.00  0.00    +0.000 Cl
ATOM     17  C   UNL     1       3.936   4.105  19.131  0.00  0.00    +0.000 A 
ATOM     18  C   UNL     1       3.374   5.286  19.676  0.00  0.00    +0.000 A 
BRANCH  17  19
ATOM     19  C   UNL     1       5.374   4.120  18.643  0.00  0.00    +0.000 C 
BRANCH  19  20
ATOM     20  N   UNL     1       5.587   4.920  17.420  0.00  0.00    +0.000 NA
ATOM     21  C   UNL     1       6.865   5.640  17.466  0.00  0.00    +0.000 C 
ATOM     22  C   UNL     1       5.577   4.037  16.247  0.00  0.00    +0.000 C 
ENDBRANCH  19  20
ENDBRANCH  17  19
ENDBRANCH   3  12
TORSDOF 4
ENDMDL
MODEL 3
REMARK VINA RESULT:      -6.5      3.371      7.615
REMARK  Name = 
REMARK  8 active torsions:
REMARK  status: ('A' for Active; 'I' for Inactive)
REMARK    1  A    between atoms: C_1  and  C_2
REMARK    2  A    between atoms: C_5  and  C_6
REMARK    3  A    between atoms: N_8  and  C_9
REMARK    4  A    between atoms: C_14  and  C_15
REMARK    5  A    between atoms: C_15  and  N_16
REMARK    6  A    between atoms: N_16  and  C_17
REMARK    7  A    between atoms: N_16  and  C_18
REMARK    8  A    between atoms: C_20  and  C_21
REMARK                            x       y       z     vdW  Elec       q    Type
REMARK                         _______ _______ _______ _____ _____    ______ ____
ROOT
ATOM      1  C   UNL     1       1.494   9.606  18.442  0.00  0.00    +0.000 C 
ATOM      2  O   UNL     1       2.029   9.884  17.371  0.00  0.00    +0.000 OA
ATOM      3  N   UNL     1       1.729   8.437  19.155  0.00  0.00    +0.000 N 
ATOM      4  H   UNL     1       1.128   8.301  19.964  0.00  0.00    +0.000 HD
ENDROOT
BRANCH   1   9
ATOM      5  C   UNL     1      -2.659  12.281  19.761  0.00  0.00    +0.000 C 
ATOM      6  C   UNL     1      -1.302  11.686  19.687  0.00  0.00    +0.000 A 
ATOM      7  C   UNL     1      -0.236  11.930  20.524  0.00  0.00    +0.000 A 
ATOM      8  O   UNL     1       0.847  11.203  20.159  0.00  0.00    +0.000 OA
ATOM      9  C   UNL     1       0.498  10.475  19.051  0.00  0.00    +0.000 A 
ATOM     10  C   UNL     1      -0.830  10.733  18.731  0.00  0.00    +0.000 A 
ATOM     11  C   UNL     1      -1.640  10.147  17.622  0.00  0.00    +0.000 C 
ENDBRANCH   1   9
BRANCH   3  12
ATOM     12  C   UNL     1       2.545   7.357  18.758  0.00  0.00    +0.000 A 
ATOM     13  C   UNL     1       3.453   7.443  17.702  0.00  0.00    +0.000 A 
ATOM     14  C   UNL     1       4.133   6.310  17.255  0.00  0.00    +0.000 A 
ATOM     15  C   UNL     1       3.932   5.075  17.872  0.00  0.00    +0.000 A 
ATOM     16 CL   UNL     1       4.741   3.716  17.177  0.00  0.00    +0.000 Cl
ATOM     17  C   UNL     1       3.088   4.969  18.987  0.00  0.00    +0.000 A 
ATOM     18  C   UNL     1       2.411   6.133  19.428  0.00  0.00    +0.000 A 
BRANCH  17  19
ATOM     19  C   UNL     1       2.901   3.665  19.743  0.00  0.00    +0.000 C 
BRANCH  19  20
ATOM     20  N   UNL     1       1.499   3.371  20.100  0.00  0.00    +0.000 NA
ATOM     21  C   UNL     1       0.855   2.526  19.088  0.00  0.00    +0.000 C 
ATOM     22  C   UNL     1       1.455   2.685  21.396  0.00  0.00    +0.000 C 
ENDBRANCH  19  20
ENDBRANCH  17  19
ENDBRANCH   3  12
TORSDOF 4
ENDMDL
MODEL 4
REMARK VINA RESULT:      -6.4      3.478      7.950
REMARK  Name = 
REMARK  8 active torsions:
REMARK  status: ('A' for Active; 'I' for Inactive)
REMARK    1  A    between atoms: C_1  and  C_2
REMARK    2  A    between atoms: C_5  and  C_6
REMARK    3  A    between atoms: N_8  and  C_9
REMARK    4  A    between atoms: C_14  and  C_15
REMARK    5  A    between atoms: C_15  and  N_16
REMARK    6  A    between atoms: N_16  and  C_17
REMARK    7  A    between atoms: N_16  and  C_18
REMARK    8  A    between atoms: C_20  and  C_21
REMARK                            x       y       z     vdW  Elec       q    Type
REMARK                         _______ _______ _______ _____ _____    ______ ____
ROOT
ATOM      1  C   UNL     1       1.522   9.425  18.496  0.00  0.00    +0.000 C 
ATOM      2  O   UNL     1       1.895   9.695  17.357  0.00  0.00    +0.000 OA
ATOM      3  N   UNL     1       1.875   8.270  19.182  0.00  0.00    +0.000 N 
ATOM      4  H   UNL     1       1.397   8.137  20.070  0.00  0.00    +0.000 HD
ENDROOT
BRANCH   1   9
ATOM      5  C   UNL     1      -2.379  12.240  20.228  0.00  0.00    +0.000 C 
ATOM      6  C   UNL     1      -1.077  11.551  20.051  0.00  0.00    +0.000 A 
ATOM      7  C   UNL     1       0.014  11.600  20.889  0.00  0.00    +0.000 A 
ATOM      8  O   UNL     1       1.029  10.840  20.412  0.00  0.00    +0.000 OA
ATOM      9  C   UNL     1       0.609  10.288  19.230  0.00  0.00    +0.000 A 
ATOM     10  C   UNL     1      -0.697  10.692  18.973  0.00  0.00    +0.000 A 
ATOM     11  C   UNL     1      -1.565  10.318  17.818  0.00  0.00    +0.000 C 
ENDBRANCH   1   9
BRANCH   3  12
ATOM     12  C   UNL     1       2.644   7.197  18.686  0.00  0.00    +0.000 A 
ATOM     13  C   UNL     1       3.630   7.358  17.712  0.00  0.00    +0.000 A 
ATOM     14  C   UNL     1       4.264   6.250  17.151  0.00  0.00    +0.000 A 
ATOM     15  C   UNL     1       3.937   4.960  17.569  0.00  0.00    +0.000 A 
ATOM     16 CL   UNL     1       4.701   3.653  16.739  0.00  0.00    +0.000 Cl
ATOM     17  C   UNL     1       3.008   4.765  18.603  0.00  0.00    +0.000 A 
ATOM     18  C   UNL     1       2.380   5.905  19.163  0.00  0.00    +0.000 A 
BRANCH  17  19
ATOM     19  C   UNL     1       2.680   3.387  19.150  0.00  0.00    +0.000 C 
BRANCH  19  20
ATOM     20  N   UNL     1       3.325   3.083  20.444  0.00  0.00    +0.000 NA
ATOM     21  C   UNL     1       2.352   2.586  21.423  0.00  0.00    +0.000 C 
ATOM     22  C   UNL     1       4.368   2.070  20.247  0.00  0.00    +0.000 C 
ENDBRANCH  19  20
ENDBRANCH  17  19
ENDBRANCH   3  12
TORSDOF 4
ENDMDL
MODEL 5
REMARK VINA RESULT:      -6.4      2.326      2.754
REMARK  Name = 
REMARK  8 active torsions:
REMARK  status: ('A' for Active; 'I' for Inactive)
REMARK    1  A    between atoms: C_1  and  C_2
REMARK    2  A    between atoms: C_5  and  C_6
REMARK    3  A    between atoms: N_8  and  C_9
REMARK    4  A    between atoms: C_14  and  C_15
REMARK    5  A    between atoms: C_15  and  N_16
REMARK    6  A    between atoms: N_16  and  C_17
REMARK    7  A    between atoms: N_16  and  C_18
REMARK    8  A    between atoms: C_20  and  C_21
REMARK                            x       y       z     vdW  Elec       q    Type
REMARK                         _______ _______ _______ _____ _____    ______ ____
ROOT
ATOM      1  C   UNL     1       2.009   6.388  20.258  0.00  0.00    +0.000 C 
ATOM      2  O   UNL     1       1.150   5.767  20.880  0.00  0.00    +0.000 OA
ATOM      3  N   UNL     1       2.155   7.769  20.294  0.00  0.00    +0.000 N 
ATOM      4  H   UNL     1       2.838   8.143  19.639  0.00  0.00    +0.000 HD
ENDROOT
BRANCH   1   9
ATOM      5  C   UNL     1       4.359   3.662  16.627  0.00  0.00    +0.000 C 
ATOM      6  C   UNL     1       4.043   4.535  17.784  0.00  0.00    +0.000 A 
ATOM      7  C   UNL     1       4.935   5.167  18.621  0.00  0.00    +0.000 A 
ATOM      8  O   UNL     1       4.287   5.888  19.568  0.00  0.00    +0.000 OA
ATOM      9  C   UNL     1       2.942   5.721  19.364  0.00  0.00    +0.000 A 
ATOM     10  C   UNL     1       2.744   4.899  18.259  0.00  0.00    +0.000 A 
ATOM     11  C   UNL     1       1.450   4.467  17.654  0.00  0.00    +0.000 C 
ENDBRANCH   1   9
BRANCH   3  12
ATOM     12  C   UNL     1       1.328   8.688  20.971  0.00  0.00    +0.000 A 
ATOM     13  C   UNL     1       1.243   8.746  22.362  0.00  0.00    +0.000 A 
ATOM     14  C   UNL     1       0.306   9.572  22.984  0.00  0.00    +0.000 A 
ATOM     15  C   UNL     1      -0.548  10.370  22.223  0.00  0.00    +0.000 A 
ATOM     16 CL   UNL     1      -1.741  11.277  23.083  0.00  0.00    +0.000 Cl
ATOM     17  C   UNL     1      -0.435  10.396  20.825  0.00  0.00    +0.000 A 
ATOM     18  C   UNL     1       0.526   9.554  20.214  0.00  0.00    +0.000 A 
BRANCH  17  19
ATOM     19  C   UNL     1      -1.285  11.309  19.959  0.00  0.00    +0.000 C 
BRANCH  19  20
ATOM     20  N   UNL     1      -0.831  11.406  18.558  0.00  0.00    +0.000 NA
ATOM     21  C   UNL     1      -1.784  10.772  17.640  0.00  0.00    +0.000 C 
ATOM     22  C   UNL     1      -0.675  12.817  18.187  0.00  0.00    +0.000 C 
ENDBRANCH  19  20
ENDBRANCH  17  19
ENDBRANCH   3  12
TORSDOF 4
ENDMDL
MODEL 6
REMARK VINA RESULT:      -6.4      1.030      1.520
REMARK  Name = 
REMARK  8 active torsions:
REMARK  status: ('A' for Active; 'I' for Inactive)
REMARK    1  A    between atoms: C_1  and  C_2
REMARK    2  A    between atoms: C_5  and  C_6
REMARK    3  A    between atoms: N_8  and  C_9
REMARK    4  A    between atoms: C_14  and  C_15
REMARK    5  A    between atoms: C_15  and  N_16
REMARK    6  A    between atoms: N_16  and  C_17
REMARK    7  A    between atoms: N_16  and  C_18
REMARK    8  A    between atoms: C_20  and  C_21
REMARK                            x       y       z     vdW  Elec       q    Type
REMARK                         _______ _______ _______ _____ _____    ______ ____
ROOT
ATOM      1  C   UNL     1       2.338   7.437  18.700  0.00  0.00    +0.000 C 
ATOM      2  O   UNL     1       2.179   7.558  19.913  0.00  0.00    +0.000 OA
ATOM      3  N   UNL     1       1.943   8.382  17.761  0.00  0.00    +0.000 N 
ATOM      4  H   UNL     1       2.041   8.087  16.792  0.00  0.00    +0.000 HD
ENDROOT
BRANCH   1   9
ATOM      5  C   UNL     1       5.235   3.912  16.394  0.00  0.00    +0.000 C 
ATOM      6  C   UNL     1       4.154   4.632  17.112  0.00  0.00    +0.000 A 
ATOM      7  C   UNL     1       2.968   4.110  17.575  0.00  0.00    +0.000 A 
ATOM      8  O   UNL     1       2.224   5.062  18.189  0.00  0.00    +0.000 OA
ATOM      9  C   UNL     1       2.923   6.239  18.119  0.00  0.00    +0.000 A 
ATOM     10  C   UNL     1       4.133   6.016  17.471  0.00  0.00    +0.000 A 
ATOM     11  C   UNL     1       5.222   6.998  17.192  0.00  0.00    +0.000 C 
ENDBRANCH   1   9
BRANCH   3  12
ATOM     12  C   UNL     1       1.245   9.580  18.012  0.00  0.00    +0.000 A 
ATOM     13  C   UNL     1       1.882  10.759  18.401  0.00  0.00    +0.000 A 
ATOM     14  C   UNL     1       1.139  11.879  18.777  0.00  0.00    +0.000 A 
ATOM     15  C   UNL     1      -0.255  11.845  18.750  0.00  0.00    +0.000 A 
ATOM     16 CL   UNL     1      -1.081  13.245  19.333  0.00  0.00    +0.000 Cl
ATOM     17  C   UNL     1      -0.926  10.703  18.288  0.00  0.00    +0.000 A 
ATOM     18  C   UNL     1      -0.153   9.579  17.906  0.00  0.00    +0.000 A 
BRANCH  17  19
ATOM     19  C   UNL     1      -2.439  10.646  18.161  0.00  0.00    +0.000 C 
BRANCH  19  20
ATOM     20  N   UNL     1      -2.974  11.378  16.996  0.00  0.00    +0.000 NA
ATOM     21  C   UNL     1      -2.741  10.642  15.748  0.00  0.00    +0.000 C 
ATOM     22  C   UNL     1      -4.416  11.588  17.167  0.00  0.00    +0.000 C 
ENDBRANCH  19  20
ENDBRANCH  17  19
ENDBRANCH   3  12
TORSDOF 4
ENDMDL
MODEL 7
REMARK VINA RESULT:      -6.3      3.861      7.784
REMARK  Name = 
REMARK  8 active torsions:
REMARK  status: ('A' for Active; 'I' for Inactive)
REMARK    1  A    between atoms: C_1  and  C_2
REMARK    2  A    between atoms: C_5  and  C_6
REMARK    3  A    between atoms: N_8  and  C_9
REMARK    4  A    between atoms: C_14  and  C_15
REMARK    5  A    between atoms: C_15  and  N_16
REMARK    6  A    between atoms: N_16  and  C_17
REMARK    7  A    between atoms: N_16  and  C_18
REMARK    8  A    between atoms: C_20  and  C_21
REMARK                            x       y       z     vdW  Elec       q    Type
REMARK                         _______ _______ _______ _____ _____    ______ ____
ROOT
ATOM      1  C   UNL     1       1.562   8.218  19.977  0.00  0.00    +0.000 C 
ATOM      2  O   UNL     1       1.726   7.361  20.843  0.00  0.00    +0.000 OA
ATOM      3  N   UNL     1       2.063   8.130  18.684  0.00  0.00    +0.000 N 
ATOM      4  H   UNL     1       1.940   8.968  18.121  0.00  0.00    +0.000 HD
ENDROOT
BRANCH   1   9
ATOM      5  C   UNL     1      -1.068  12.133  21.950  0.00  0.00    +0.000 C 
ATOM      6  C   UNL     1      -0.302  11.225  21.061  0.00  0.00    +0.000 A 
ATOM      7  C   UNL     1       0.053  11.443  19.749  0.00  0.00    +0.000 A 
ATOM      8  O   UNL     1       0.755  10.396  19.254  0.00  0.00    +0.000 OA
ATOM      9  C   UNL     1       0.856   9.460  20.251  0.00  0.00    +0.000 A 
ATOM     10  C   UNL     1       0.225   9.938  21.395  0.00  0.00    +0.000 A 
ATOM     11  C   UNL     1       0.108   9.273  22.726  0.00  0.00    +0.000 C 
ENDBRANCH   1   9
BRANCH   3  12
ATOM     12  C   UNL     1       2.884   7.108  18.165  0.00  0.00    +0.000 A 
ATOM     13  C   UNL     1       4.138   7.356  17.606  0.00  0.00    +0.000 A 
ATOM     14  C   UNL     1       4.851   6.335  16.977  0.00  0.00    +0.000 A 
ATOM     15  C   UNL     1       4.330   5.043  16.915  0.00  0.00    +0.000 A 
ATOM     16 CL   UNL     1       5.241   3.876  16.025  0.00  0.00    +0.000 Cl
ATOM     17  C   UNL     1       3.110   4.741  17.537  0.00  0.00    +0.000 A 
ATOM     18  C   UNL     1       2.404   5.791  18.175  0.00  0.00    +0.000 A 
BRANCH  17  19
ATOM     19  C   UNL     1       2.541   3.333  17.569  0.00  0.00    +0.000 C 
BRANCH  19  20
ATOM     20  N   UNL     1       2.808   2.603  18.825  0.00  0.00    +0.000 NA
ATOM     21  C   UNL     1       1.563   2.159  19.461  0.00  0.00    +0.000 C 
ATOM     22  C   UNL     1       3.647   1.433  18.545  0.00  0.00    +0.000 C 
ENDBRANCH  19  20
ENDBRANCH  17  19
ENDBRANCH   3  12
TORSDOF 4
ENDMDL
MODEL 8
REMARK VINA RESULT:      -6.3      3.538      8.200
REMARK  Name = 
REMARK  8 active torsions:
REMARK  status: ('A' for Active; 'I' for Inactive)
REMARK    1  A    between atoms: C_1  and  C_2
REMARK    2  A    between atoms: C_5  and  C_6
REMARK    3  A    between atoms: N_8  and  C_9
REMARK    4  A    between atoms: C_14  and  C_15
REMARK    5  A    between atoms: C_15  and  N_16
REMARK    6  A    between atoms: N_16  and  C_17
REMARK    7  A    between atoms: N_16  and  C_18
REMARK    8  A    between atoms: C_20  and  C_21
REMARK                            x       y       z     vdW  Elec       q    Type
REMARK                         _______ _______ _______ _____ _____    ______ ____
ROOT
ATOM      1  C   UNL     1       1.691   8.836  18.404  0.00  0.00    +0.000 C 
ATOM      2  O   UNL     1       2.200   9.031  17.303  0.00  0.00    +0.000 OA
ATOM      3  N   UNL     1       1.777   7.639  19.105  0.00  0.00    +0.000 N 
ATOM      4  H   UNL     1       1.210   7.596  19.948  0.00  0.00    +0.000 HD
ENDROOT
BRANCH   1   9
ATOM      5  C   UNL     1      -1.848  12.209  19.899  0.00  0.00    +0.000 C 
ATOM      6  C   UNL     1      -0.638  11.358  19.785  0.00  0.00    +0.000 A 
ATOM      7  C   UNL     1       0.448  11.331  20.631  0.00  0.00    +0.000 A 
ATOM      8  O   UNL     1       1.366  10.424  20.217  0.00  0.00    +0.000 OA
ATOM      9  C   UNL     1       0.887   9.849  19.069  0.00  0.00    +0.000 A 
ATOM     10  C   UNL     1      -0.360  10.389  18.770  0.00  0.00    +0.000 A 
ATOM     11  C   UNL     1      -1.262  10.046  17.631  0.00  0.00    +0.000 C 
ENDBRANCH   1   9
BRANCH   3  12
ATOM     12  C   UNL     1       2.383   6.445  18.664  0.00  0.00    +0.000 A 
ATOM     13  C   UNL     1       1.692   5.463  17.954  0.00  0.00    +0.000 A 
ATOM     14  C   UNL     1       2.294   4.238  17.664  0.00  0.00    +0.000 A 
ATOM     15  C   UNL     1       3.606   3.983  18.062  0.00  0.00    +0.000 A 
ATOM     16 CL   UNL     1       4.223   2.400  17.748  0.00  0.00    +0.000 Cl
ATOM     17  C   UNL     1       4.357   4.977  18.706  0.00  0.00    +0.000 A 
ATOM     18  C   UNL     1       3.729   6.216  18.987  0.00  0.00    +0.000 A 
BRANCH  17  19
ATOM     19  C   UNL     1       5.814   4.777  19.084  0.00  0.00    +0.000 C 
BRANCH  19  20
ATOM     20  N   UNL     1       6.767   5.496  18.215  0.00  0.00    +0.000 NA
ATOM     21  C   UNL     1       7.878   6.061  18.989  0.00  0.00    +0.000 C 
ATOM     22  C   UNL     1       7.304   4.575  17.207  0.00  0.00    +0.000 C 
ENDBRANCH  19  20
ENDBRANCH  17  19
ENDBRANCH   3  12
TORSDOF 4
ENDMDL
MODEL 9
REMARK VINA RESULT:      -6.3      2.193      2.700
REMARK  Name = 
REMARK  8 active torsions:
REMARK  status: ('A' for Active; 'I' for Inactive)
REMARK    1  A    between atoms: C_1  and  C_2
REMARK    2  A    between atoms: C_5  and  C_6
REMARK    3  A    between atoms: N_8  and  C_9
REMARK    4  A    between atoms: C_14  and  C_15
REMARK    5  A    between atoms: C_15  and  N_16
REMARK    6  A    between atoms: N_16  and  C_17
REMARK    7  A    between atoms: N_16  and  C_18
REMARK    8  A    between atoms: C_20  and  C_21
REMARK                            x       y       z     vdW  Elec       q    Type
REMARK                         _______ _______ _______ _____ _____    ______ ____
ROOT
ATOM      1  C   UNL     1       2.798   6.804  19.072  0.00  0.00    +0.000 C 
ATOM      2  O   UNL     1       3.103   7.682  18.268  0.00  0.00    +0.000 OA
ATOM      3  N   UNL     1       1.986   7.006  20.181  0.00  0.00    +0.000 N 
ATOM      4  H   UNL     1       1.918   6.211  20.812  0.00  0.00    +0.000 HD
ENDROOT
BRANCH   1   9
ATOM      5  C   UNL     1       3.641   1.839  18.191  0.00  0.00    +0.000 C 
ATOM      6  C   UNL     1       3.752   3.260  18.604  0.00  0.00    +0.000 A 
ATOM      7  C   UNL     1       4.809   3.862  19.249  0.00  0.00    +0.000 A 
ATOM      8  O   UNL     1       4.564   5.177  19.462  0.00  0.00    +0.000 OA
ATOM      9  C   UNL     1       3.317   5.449  18.963  0.00  0.00    +0.000 A 
ATOM     10  C   UNL     1       2.781   4.291  18.409  0.00  0.00    +0.000 A 
ATOM     11  C   UNL     1       1.463   4.121  17.730  0.00  0.00    +0.000 C 
ENDBRANCH   1   9
BRANCH   3  12
ATOM     12  C   UNL     1       1.438   8.231  20.613  0.00  0.00    +0.000 A 
ATOM     13  C   UNL     1       1.441   8.632  21.950  0.00  0.00    +0.000 A 
ATOM     14  C   UNL     1       0.762   9.783  22.350  0.00  0.00    +0.000 A 
ATOM     15  C   UNL     1       0.085  10.565  21.414  0.00  0.00    +0.000 A 
ATOM     16 CL   UNL     1      -0.811  11.910  22.024  0.00  0.00    +0.000 Cl
ATOM     17  C   UNL     1       0.128  10.236  20.051  0.00  0.00    +0.000 A 
ATOM     18  C   UNL     1       0.827   9.066  19.666  0.00  0.00    +0.000 A 
BRANCH  17  19
ATOM     19  C   UNL     1      -0.523  11.100  18.986  0.00  0.00    +0.000 C 
BRANCH  19  20
ATOM     20  N   UNL     1      -1.871  10.650  18.585  0.00  0.00    +0.000 NA
ATOM     21  C   UNL     1      -2.853  11.735  18.690  0.00  0.00    +0.000 C 
ATOM     22  C   UNL     1      -1.835  10.168  17.199  0.00  0.00    +0.000 C 
ENDBRANCH  19  20
ENDBRANCH  17  19
ENDBRANCH   3  12
TORSDOF 4
ENDMDL
