MODEL 1
REMARK VINA RESULT:      -6.1      0.000      0.000
REMARK  Name = 
REMARK  4 active torsions:
REMARK  status: ('A' for Active; 'I' for Inactive)
REMARK    1  A    between atoms: C_1  and  C_2
REMARK    2  A    between atoms: C_9  and  C_10
REMARK    3  A    between atoms: C_23  and  C_24
REMARK    4  A    between atoms: C_23  and  C_25
REMARK                            x       y       z     vdW  Elec       q    Type
REMARK                         _______ _______ _______ _____ _____    ______ ____
ROOT
ATOM      1  C   UNL     1      -0.823  13.096  19.951  0.00  0.00    +0.000 C 
ATOM      2  O   UNL     1      -1.398  13.240  18.869  0.00  0.00    +0.000 OA
ATOM      3  N   UNL     1      -1.452  13.535  21.144  0.00  0.00    +0.000 N 
ATOM      4  C   UNL     1      -2.761  14.222  21.149  0.00  0.00    +0.000 C 
ATOM      5  C   UNL     1      -4.265  13.469  20.343  0.00  0.00    +0.000 C 
ATOM      6  C   UNL     1      -5.228  12.743  21.702  0.00  0.00    +0.000 C 
ATOM      7  C   UNL     1      -3.906  12.647  22.082  0.00  0.00    +0.000 C 
ATOM      8  C   UNL     1      -4.310  14.584  22.343  0.00  0.00    +0.000 C 
ATOM      9  C   UNL     1      -3.165  14.063  22.839  0.00  0.00    +0.000 C 
ATOM     10  C   UNL     1      -2.012  14.500  23.626  0.00  0.00    +0.000 C 
ATOM     11  S   UNL     1      -0.730  13.560  22.715  0.00  0.00    +0.000 S 
ATOM     12  O   UNL     1      -0.728  12.206  23.212  0.00  0.00    +0.000 OA
ATOM     13  O   UNL     1       0.480  14.353  22.658  0.00  0.00    +0.000 OA
ATOM     14  C   UNL     1      -4.799  13.246  23.398  0.00  0.00    +0.000 C 
ATOM     15  C   UNL     1      -6.152  13.938  23.871  0.00  0.00    +0.000 C 
ATOM     16  C   UNL     1      -4.446  12.345  24.648  0.00  0.00    +0.000 C 
ENDROOT
BRANCH   1  25
ATOM     17  C   UNL     1       2.732  13.683  19.993  0.00  0.00    +0.000 C 
ATOM     18  C   UNL     1       1.566  13.121  19.180  0.00  0.00    +0.000 C 
ATOM     19  O   UNL     1       1.998  12.093  18.281  0.00  0.00    +0.000 OA
ATOM     20  N   UNL     1       1.874  10.827  18.996  0.00  0.00    +0.000 NA
ATOM     21  C   UNL     1       1.636   9.791  17.984  0.00  0.00    +0.000 C 
ATOM     22  C   UNL     1       0.154   9.470  17.942  0.00  0.00    +0.000 C 
ATOM     23  C   UNL     1      -0.503  10.348  18.982  0.00  0.00    +0.000 C 
ATOM     24  C   UNL     1       0.637  10.978  19.777  0.00  0.00    +0.000 C 
ATOM     25  C   UNL     1       0.545  12.464  20.092  0.00  0.00    +0.000 C 
ENDBRANCH   1  25
TORSDOF 1
ENDMDL
MODEL 2
REMARK VINA RESULT:      -5.9      2.017      2.532
REMARK  Name = 
REMARK  4 active torsions:
REMARK  status: ('A' for Active; 'I' for Inactive)
REMARK    1  A    between atoms: C_1  and  C_2
REMARK    2  A    between atoms: C_9  and  C_10
REMARK    3  A    between atoms: C_23  and  C_24
REMARK    4  A    between atoms: C_23  and  C_25
REMARK                            x       y       z     vdW  Elec       q    Type
REMARK                         _______ _______ _______ _____ _____    ______ ____
ROOT
ATOM      1  C   UNL     1      -1.586  12.612  20.541  0.00  0.00    +0.000 C 
ATOM      2  O   UNL     1      -2.446  11.936  19.968  0.00  0.00    +0.000 OA
ATOM      3  N   UNL     1      -1.948  13.845  21.140  0.00  0.00    +0.000 N 
ATOM      4  C   UNL     1      -3.316  14.399  21.062  0.00  0.00    +0.000 C 
ATOM      5  C   UNL     1      -4.804  13.416  21.611  0.00  0.00    +0.000 C 
ATOM      6  C   UNL     1      -5.207  14.039  23.269  0.00  0.00    +0.000 C 
ATOM      7  C   UNL     1      -3.840  14.160  23.142  0.00  0.00    +0.000 C 
ATOM      8  C   UNL     1      -4.530  15.655  22.014  0.00  0.00    +0.000 C 
ATOM      9  C   UNL     1      -3.215  15.598  22.326  0.00  0.00    +0.000 C 
ATOM     10  C   UNL     1      -2.003  16.387  22.109  0.00  0.00    +0.000 C 
ATOM     11  S   UNL     1      -0.852  14.988  21.835  0.00  0.00    +0.000 S 
ATOM     12  O   UNL     1      -0.453  14.476  23.123  0.00  0.00    +0.000 OA
ATOM     13  O   UNL     1       0.120  15.370  20.832  0.00  0.00    +0.000 OA
ATOM     14  C   UNL     1      -4.449  15.611  23.785  0.00  0.00    +0.000 C 
ATOM     15  C   UNL     1      -5.734  16.524  23.999  0.00  0.00    +0.000 C 
ATOM     16  C   UNL     1      -3.606  15.936  25.083  0.00  0.00    +0.000 C 
ENDROOT
BRANCH   1  25
ATOM     17  C   UNL     1       1.433  11.866  18.720  0.00  0.00    +0.000 C 
ATOM     18  C   UNL     1       0.272  11.270  19.517  0.00  0.00    +0.000 C 
ATOM     19  O   UNL     1       0.643  10.037  20.144  0.00  0.00    +0.000 OA
ATOM     20  N   UNL     1       1.144  10.373  21.473  0.00  0.00    +0.000 NA
ATOM     21  C   UNL     1       0.879   9.212  22.331  0.00  0.00    +0.000 C 
ATOM     22  C   UNL     1      -0.366   9.480  23.156  0.00  0.00    +0.000 C 
ATOM     23  C   UNL     1      -0.846  10.860  22.771  0.00  0.00    +0.000 C 
ATOM     24  C   UNL     1       0.266  11.466  21.919  0.00  0.00    +0.000 C 
ATOM     25  C   UNL     1      -0.135  12.198  20.647  0.00  0.00    +0.000 C 
ENDBRANCH   1  25
TORSDOF 1
ENDMDL
MODEL 3
REMARK VINA RESULT:      -5.9      3.330      6.575
REMARK  Name = 
REMARK  4 active torsions:
REMARK  status: ('A' for Active; 'I' for Inactive)
REMARK    1  A    between atoms: C_1  and  C_2
REMARK    2  A    between atoms: C_9  and  C_10
REMARK    3  A    between atoms: C_23  and  C_24
REMARK    4  A    between atoms: C_23  and  C_25
REMARK                            x       y       z     vdW  Elec       q    Type
REMARK                         _______ _______ _______ _____ _____    ______ ____
ROOT
ATOM      1  C   UNL     1      -4.372  13.123  23.086  0.00  0.00    +0.000 C 
ATOM      2  O   UNL     1      -4.010  12.072  23.622  0.00  0.00    +0.000 OA
ATOM      3  N   UNL     1      -3.409  14.111  22.757  0.00  0.00    +0.000 N 
ATOM      4  C   UNL     1      -1.975  13.966  23.082  0.00  0.00    +0.000 C 
ATOM      5  C   UNL     1      -0.993  12.476  22.537  0.00  0.00    +0.000 C 
ATOM      6  C   UNL     1      -0.070  13.019  21.069  0.00  0.00    +0.000 C 
ATOM      7  C   UNL     1      -1.246  13.738  21.063  0.00  0.00    +0.000 C 
ATOM      8  C   UNL     1      -0.187  14.621  22.506  0.00  0.00    +0.000 C 
ATOM      9  C   UNL     1      -1.316  15.206  22.046  0.00  0.00    +0.000 C 
ATOM     10  C   UNL     1      -2.080  16.434  22.263  0.00  0.00    +0.000 C 
ATOM     11  S   UNL     1      -3.755  15.695  22.157  0.00  0.00    +0.000 S 
ATOM     12  O   UNL     1      -4.099  15.564  20.763  0.00  0.00    +0.000 OA
ATOM     13  O   UNL     1      -4.624  16.370  23.098  0.00  0.00    +0.000 OA
ATOM     14  C   UNL     1       0.038  14.809  20.758  0.00  0.00    +0.000 C 
ATOM     15  C   UNL     1       1.608  15.050  20.852  0.00  0.00    +0.000 C 
ATOM     16  C   UNL     1      -0.333  15.620  19.452  0.00  0.00    +0.000 C 
ENDROOT
BRANCH   1  25
ATOM     17  C   UNL     1      -7.688  13.641  24.400  0.00  0.00    +0.000 C 
ATOM     18  C   UNL     1      -6.779  12.674  23.640  0.00  0.00    +0.000 C 
ATOM     19  O   UNL     1      -7.530  11.826  22.763  0.00  0.00    +0.000 OA
ATOM     20  N   UNL     1      -7.588  12.501  21.471  0.00  0.00    +0.000 NA
ATOM     21  C   UNL     1      -7.704  11.452  20.450  0.00  0.00    +0.000 C 
ATOM     22  C   UNL     1      -6.342  11.212  19.829  0.00  0.00    +0.000 C 
ATOM     23  C   UNL     1      -5.387  12.167  20.508  0.00  0.00    +0.000 C 
ATOM     24  C   UNL     1      -6.258  13.114  21.329  0.00  0.00    +0.000 C 
ATOM     25  C   UNL     1      -5.814  13.434  22.748  0.00  0.00    +0.000 C 
ENDBRANCH   1  25
TORSDOF 1
ENDMDL
MODEL 4
REMARK VINA RESULT:      -5.8      1.709      1.984
REMARK  Name = 
REMARK  4 active torsions:
REMARK  status: ('A' for Active; 'I' for Inactive)
REMARK    1  A    between atoms: C_1  and  C_2
REMARK    2  A    between atoms: C_9  and  C_10
REMARK    3  A    between atoms: C_23  and  C_24
REMARK    4  A    between atoms: C_23  and  C_25
REMARK                            x       y       z     vdW  Elec       q    Type
REMARK                         _______ _______ _______ _____ _____    ______ ____
ROOT
ATOM      1  C   UNL     1      -1.104  12.161  20.062  0.00  0.00    +0.000 C 
ATOM      2  O   UNL     1      -1.955  11.664  19.318  0.00  0.00    +0.000 OA
ATOM      3  N   UNL     1      -1.444  13.277  20.868  0.00  0.00    +0.000 N 
ATOM      4  C   UNL     1      -2.772  13.922  20.819  0.00  0.00    +0.000 C 
ATOM      5  C   UNL     1      -4.344  12.950  21.076  0.00  0.00    +0.000 C 
ATOM      6  C   UNL     1      -4.831  13.268  22.797  0.00  0.00    +0.000 C 
ATOM      7  C   UNL     1      -3.453  13.323  22.778  0.00  0.00    +0.000 C 
ATOM      8  C   UNL     1      -3.985  15.048  21.924  0.00  0.00    +0.000 C 
ATOM      9  C   UNL     1      -2.699  14.848  22.296  0.00  0.00    +0.000 C 
ATOM     10  C   UNL     1      -1.436  15.585  22.310  0.00  0.00    +0.000 C 
ATOM     11  S   UNL     1      -0.342  14.193  21.836  0.00  0.00    +0.000 S 
ATOM     12  O   UNL     1      -0.062  13.420  23.021  0.00  0.00    +0.000 OA
ATOM     13  O   UNL     1       0.716  14.697  20.987  0.00  0.00    +0.000 OA
ATOM     14  C   UNL     1      -4.031  14.660  23.653  0.00  0.00    +0.000 C 
ATOM     15  C   UNL     1      -5.279  15.596  23.965  0.00  0.00    +0.000 C 
ATOM     16  C   UNL     1      -3.266  14.676  25.037  0.00  0.00    +0.000 C 
ENDROOT
BRANCH   1  25
ATOM     17  C   UNL     1       2.024  11.675  18.340  0.00  0.00    +0.000 C 
ATOM     18  C   UNL     1       0.773  10.983  18.884  0.00  0.00    +0.000 C 
ATOM     19  O   UNL     1       1.034   9.616  19.222  0.00  0.00    +0.000 OA
ATOM     20  N   UNL     1       1.434   9.597  20.625  0.00  0.00    +0.000 NA
ATOM     21  C   UNL     1       1.045   8.285  21.158  0.00  0.00    +0.000 C 
ATOM     22  C   UNL     1      -0.253   8.430  21.930  0.00  0.00    +0.000 C 
ATOM     23  C   UNL     1      -0.636   9.889  21.854  0.00  0.00    +0.000 C 
ATOM     24  C   UNL     1       0.570  10.607  21.256  0.00  0.00    +0.000 C 
ATOM     25  C   UNL     1       0.313  11.643  20.171  0.00  0.00    +0.000 C 
ENDBRANCH   1  25
TORSDOF 1
ENDMDL
MODEL 5
REMARK VINA RESULT:      -5.8      2.949      5.156
REMARK  Name = 
REMARK  4 active torsions:
REMARK  status: ('A' for Active; 'I' for Inactive)
REMARK    1  A    between atoms: C_1  and  C_2
REMARK    2  A    between atoms: C_9  and  C_10
REMARK    3  A    between atoms: C_23  and  C_24
REMARK    4  A    between atoms: C_23  and  C_25
REMARK                            x       y       z     vdW  Elec       q    Type
REMARK                         _______ _______ _______ _____ _____    ______ ____
ROOT
ATOM      1  C   UNL     1      -0.203  13.939  18.964  0.00  0.00    +0.000 C 
ATOM      2  O   UNL     1      -0.417  13.607  17.794  0.00  0.00    +0.000 OA
ATOM      3  N   UNL     1      -0.394  12.996  20.006  0.00  0.00    +0.000 N 
ATOM      4  C   UNL     1      -0.900  11.629  19.762  0.00  0.00    +0.000 C 
ATOM      5  C   UNL     1      -0.075  10.482  18.544  0.00  0.00    +0.000 C 
ATOM      6  C   UNL     1       0.945   9.363  19.549  0.00  0.00    +0.000 C 
ATOM      7  C   UNL     1       0.920  10.564  20.226  0.00  0.00    +0.000 C 
ATOM      8  C   UNL     1      -0.896   9.813  20.575  0.00  0.00    +0.000 C 
ATOM      9  C   UNL     1      -0.464  10.884  21.279  0.00  0.00    +0.000 C 
ATOM     10  C   UNL     1      -0.937  11.746  22.362  0.00  0.00    +0.000 C 
ATOM     11  S   UNL     1      -0.300  13.333  21.699  0.00  0.00    +0.000 S 
ATOM     12  O   UNL     1       1.097  13.434  22.044  0.00  0.00    +0.000 OA
ATOM     13  O   UNL     1      -1.243  14.384  22.018  0.00  0.00    +0.000 OA
ATOM     14  C   UNL     1       0.623   9.314  21.340  0.00  0.00    +0.000 C 
ATOM     15  C   UNL     1       0.181   7.799  21.538  0.00  0.00    +0.000 C 
ATOM     16  C   UNL     1       1.631   9.513  22.542  0.00  0.00    +0.000 C 
ENDROOT
BRANCH   1  25
ATOM     17  C   UNL     1      -1.173  17.375  19.450  0.00  0.00    +0.000 C 
ATOM     18  C   UNL     1      -0.413  16.405  18.545  0.00  0.00    +0.000 C 
ATOM     19  O   UNL     1       0.643  17.064  17.836  0.00  0.00    +0.000 OA
ATOM     20  N   UNL     1       1.841  16.949  18.661  0.00  0.00    +0.000 NA
ATOM     21  C   UNL     1       2.988  16.967  17.745  0.00  0.00    +0.000 C 
ATOM     22  C   UNL     1       3.470  15.545  17.528  0.00  0.00    +0.000 C 
ATOM     23  C   UNL     1       2.573  14.657  18.359  0.00  0.00    +0.000 C 
ATOM     24  C   UNL     1       1.751  15.598  19.235  0.00  0.00    +0.000 C 
ATOM     25  C   UNL     1       0.261  15.321  19.368  0.00  0.00    +0.000 C 
ENDBRANCH   1  25
TORSDOF 1
ENDMDL
MODEL 6
REMARK VINA RESULT:      -5.8      7.875     11.617
REMARK  Name = 
REMARK  4 active torsions:
REMARK  status: ('A' for Active; 'I' for Inactive)
REMARK    1  A    between atoms: C_1  and  C_2
REMARK    2  A    between atoms: C_9  and  C_10
REMARK    3  A    between atoms: C_23  and  C_24
REMARK    4  A    between atoms: C_23  and  C_25
REMARK                            x       y       z     vdW  Elec       q    Type
REMARK                         _______ _______ _______ _____ _____    ______ ____
ROOT
ATOM      1  C   UNL     1       7.343  14.989  21.096  0.00  0.00    +0.000 C 
ATOM      2  O   UNL     1       6.805  14.104  21.768  0.00  0.00    +0.000 OA
ATOM      3  N   UNL     1       8.676  14.813  20.645  0.00  0.00    +0.000 N 
ATOM      4  C   UNL     1       9.487  13.628  20.993  0.00  0.00    +0.000 C 
ATOM      5  C   UNL     1       8.885  11.895  20.653  0.00  0.00    +0.000 C 
ATOM      6  C   UNL     1       9.733  11.380  19.132  0.00  0.00    +0.000 C 
ATOM      7  C   UNL     1       9.561  12.744  19.026  0.00  0.00    +0.000 C 
ATOM      8  C   UNL     1      11.050  12.580  20.346  0.00  0.00    +0.000 C 
ATOM      9  C   UNL     1      10.756  13.786  19.807  0.00  0.00    +0.000 C 
ATOM     10  C   UNL     1      11.258  15.159  19.857  0.00  0.00    +0.000 C 
ATOM     11  S   UNL     1       9.634  16.008  19.841  0.00  0.00    +0.000 S 
ATOM     12  O   UNL     1       9.179  16.079  18.474  0.00  0.00    +0.000 OA
ATOM     13  O   UNL     1       9.712  17.185  20.681  0.00  0.00    +0.000 OA
ATOM     14  C   UNL     1      11.161  12.371  18.589  0.00  0.00    +0.000 C 
ATOM     15  C   UNL     1      12.332  11.297  18.658  0.00  0.00    +0.000 C 
ATOM     16  C   UNL     1      11.431  13.049  17.186  0.00  0.00    +0.000 C 
ENDROOT
BRANCH   1  25
ATOM     17  C   UNL     1       5.671  17.940  22.315  0.00  0.00    +0.000 C 
ATOM     18  C   UNL     1       5.482  16.587  21.627  0.00  0.00    +0.000 C 
ATOM     19  O   UNL     1       4.325  16.584  20.782  0.00  0.00    +0.000 OA
ATOM     20  N   UNL     1       4.770  16.993  19.454  0.00  0.00    +0.000 NA
ATOM     21  C   UNL     1       3.857  16.366  18.490  0.00  0.00    +0.000 C 
ATOM     22  C   UNL     1       4.521  15.132  17.910  0.00  0.00    +0.000 C 
ATOM     23  C   UNL     1       5.884  15.036  18.554  0.00  0.00    +0.000 C 
ATOM     24  C   UNL     1       6.085  16.350  19.305  0.00  0.00    +0.000 C 
ATOM     25  C   UNL     1       6.656  16.281  20.714  0.00  0.00    +0.000 C 
ENDBRANCH   1  25
TORSDOF 1
ENDMDL
MODEL 7
REMARK VINA RESULT:      -5.8      3.898      6.333
REMARK  Name = 
REMARK  4 active torsions:
REMARK  status: ('A' for Active; 'I' for Inactive)
REMARK    1  A    between atoms: C_1  and  C_2
REMARK    2  A    between atoms: C_9  and  C_10
REMARK    3  A    between atoms: C_23  and  C_24
REMARK    4  A    between atoms: C_23  and  C_25
REMARK                            x       y       z     vdW  Elec       q    Type
REMARK                         _______ _______ _______ _____ _____    ______ ____
ROOT
ATOM      1  C   UNL     1      -4.725  12.731  20.915  0.00  0.00    +0.000 C 
ATOM      2  O   UNL     1      -3.893  12.488  20.036  0.00  0.00    +0.000 OA
ATOM      3  N   UNL     1      -4.287  13.141  22.200  0.00  0.00    +0.000 N 
ATOM      4  C   UNL     1      -2.858  13.238  22.563  0.00  0.00    +0.000 C 
ATOM      5  C   UNL     1      -1.660  14.260  21.560  0.00  0.00    +0.000 C 
ATOM      6  C   UNL     1      -1.463  15.813  22.483  0.00  0.00    +0.000 C 
ATOM      7  C   UNL     1      -2.751  15.388  22.729  0.00  0.00    +0.000 C 
ATOM      8  C   UNL     1      -1.649  14.157  23.850  0.00  0.00    +0.000 C 
ATOM      9  C   UNL     1      -2.991  14.197  24.014  0.00  0.00    +0.000 C 
ATOM     10  C   UNL     1      -4.009  13.588  24.870  0.00  0.00    +0.000 C 
ATOM     11  S   UNL     1      -5.297  13.361  23.586  0.00  0.00    +0.000 S 
ATOM     12  O   UNL     1      -5.991  14.615  23.421  0.00  0.00    +0.000 OA
ATOM     13  O   UNL     1      -6.006  12.126  23.848  0.00  0.00    +0.000 OA
ATOM     14  C   UNL     1      -2.047  15.847  24.206  0.00  0.00    +0.000 C 
ATOM     15  C   UNL     1      -0.693  16.138  24.990  0.00  0.00    +0.000 C 
ATOM     16  C   UNL     1      -3.044  16.857  24.904  0.00  0.00    +0.000 C 
ENDROOT
BRANCH   1  25
ATOM     17  C   UNL     1      -7.484  10.480  20.358  0.00  0.00    +0.000 C 
ATOM     18  C   UNL     1      -6.566  11.520  19.714  0.00  0.00    +0.000 C 
ATOM     19  O   UNL     1      -7.209  12.181  18.617  0.00  0.00    +0.000 OA
ATOM     20  N   UNL     1      -7.866  13.364  19.163  0.00  0.00    +0.000 NA
ATOM     21  C   UNL     1      -7.915  14.357  18.084  0.00  0.00    +0.000 C 
ATOM     22  C   UNL     1      -6.796  15.361  18.282  0.00  0.00    +0.000 C 
ATOM     23  C   UNL     1      -6.064  14.944  19.537  0.00  0.00    +0.000 C 
ATOM     24  C   UNL     1      -6.923  13.858  20.180  0.00  0.00    +0.000 C 
ATOM     25  C   UNL     1      -6.219  12.616  20.705  0.00  0.00    +0.000 C 
ENDBRANCH   1  25
TORSDOF 1
ENDMDL
MODEL 8
REMARK VINA RESULT:      -5.8      7.104     11.572
REMARK  Name = 
REMARK  4 active torsions:
REMARK  status: ('A' for Active; 'I' for Inactive)
REMARK    1  A    between atoms: C_1  and  C_2
REMARK    2  A    between atoms: C_9  and  C_10
REMARK    3  A    between atoms: C_23  and  C_24
REMARK    4  A    between atoms: C_23  and  C_25
REMARK                            x       y       z     vdW  Elec       q    Type
REMARK                         _______ _______ _______ _____ _____    ______ ____
ROOT
ATOM      1  C   UNL     1       7.795  13.168  22.693  0.00  0.00    +0.000 C 
ATOM      2  O   UNL     1       7.485  11.985  22.856  0.00  0.00    +0.000 OA
ATOM      3  N   UNL     1       8.926  13.495  21.902  0.00  0.00    +0.000 N 
ATOM      4  C   UNL     1       9.802  12.468  21.300  0.00  0.00    +0.000 C 
ATOM      5  C   UNL     1       9.120  11.119  20.206  0.00  0.00    +0.000 C 
ATOM      6  C   UNL     1       9.462  11.659  18.505  0.00  0.00    +0.000 C 
ATOM      7  C   UNL     1       9.269  12.812  19.237  0.00  0.00    +0.000 C 
ATOM      8  C   UNL     1      11.089  12.220  19.803  0.00  0.00    +0.000 C 
ATOM      9  C   UNL     1      10.648  13.454  20.137  0.00  0.00    +0.000 C 
ATOM     10  C   UNL     1      11.145  14.646  20.825  0.00  0.00    +0.000 C 
ATOM     11  S   UNL     1       9.595  15.077  21.704  0.00  0.00    +0.000 S 
ATOM     12  O   UNL     1       8.744  15.794  20.786  0.00  0.00    +0.000 OA
ATOM     13  O   UNL     1       9.929  15.608  23.008  0.00  0.00    +0.000 OA
ATOM     14  C   UNL     1      10.658  13.013  18.278  0.00  0.00    +0.000 C 
ATOM     15  C   UNL     1      11.792  12.290  17.428  0.00  0.00    +0.000 C 
ATOM     16  C   UNL     1      10.488  14.374  17.492  0.00  0.00    +0.000 C 
ENDROOT
BRANCH   1  25
ATOM     17  C   UNL     1       6.594  14.667  25.742  0.00  0.00    +0.000 C 
ATOM     18  C   UNL     1       6.196  13.884  24.490  0.00  0.00    +0.000 C 
ATOM     19  O   UNL     1       4.833  14.134  24.125  0.00  0.00    +0.000 OA
ATOM     20  N   UNL     1       4.845  15.261  23.197  0.00  0.00    +0.000 NA
ATOM     21  C   UNL     1       3.676  15.101  22.323  0.00  0.00    +0.000 C 
ATOM     22  C   UNL     1       4.122  14.506  21.002  0.00  0.00    +0.000 C 
ATOM     23  C   UNL     1       5.618  14.317  21.101  0.00  0.00    +0.000 C 
ATOM     24  C   UNL     1       6.046  15.035  22.378  0.00  0.00    +0.000 C 
ATOM     25  C   UNL     1       7.027  14.323  23.298  0.00  0.00    +0.000 C 
ENDBRANCH   1  25
TORSDOF 1
ENDMDL
MODEL 9
REMARK VINA RESULT:      -5.7      4.191      6.296
REMARK  Name = 
REMARK  4 active torsions:
REMARK  status: ('A' for Active; 'I' for Inactive)
REMARK    1  A    between atoms: C_1  and  C_2
REMARK    2  A    between atoms: C_9  and  C_10
REMARK    3  A    between atoms: C_23  and  C_24
REMARK    4  A    between atoms: C_23  and  C_25
REMARK                            x       y       z     vdW  Elec       q    Type
REMARK                         _______ _______ _______ _____ _____    ______ ____
ROOT
ATOM      1  C   UNL     1      -4.973  12.634  20.362  0.00  0.00    +0.000 C 
ATOM      2  O   UNL     1      -3.924  12.541  19.720  0.00  0.00    +0.000 OA
ATOM      3  N   UNL     1      -4.930  13.035  21.722  0.00  0.00    +0.000 N 
ATOM      4  C   UNL     1      -3.663  13.296  22.437  0.00  0.00    +0.000 C 
ATOM      5  C   UNL     1      -2.403  14.508  21.785  0.00  0.00    +0.000 C 
ATOM      6  C   UNL     1      -2.653  16.028  22.748  0.00  0.00    +0.000 C 
ATOM      7  C   UNL     1      -3.893  15.431  22.654  0.00  0.00    +0.000 C 
ATOM      8  C   UNL     1      -2.950  14.299  24.000  0.00  0.00    +0.000 C 
ATOM      9  C   UNL     1      -4.283  14.161  23.819  0.00  0.00    +0.000 C 
ATOM     10  C   UNL     1      -5.391  13.388  24.381  0.00  0.00    +0.000 C 
ATOM     11  S   UNL     1      -6.275  13.060  22.809  0.00  0.00    +0.000 S 
ATOM     12  O   UNL     1      -7.067  14.221  22.490  0.00  0.00    +0.000 OA
ATOM     13  O   UNL     1      -6.853  11.733  22.865  0.00  0.00    +0.000 OA
ATOM     14  C   UNL     1      -3.648  15.906  24.267  0.00  0.00    +0.000 C 
ATOM     15  C   UNL     1      -2.585  16.330  25.373  0.00  0.00    +0.000 C 
ATOM     16  C   UNL     1      -4.915  16.747  24.702  0.00  0.00    +0.000 C 
ENDROOT
BRANCH   1  25
ATOM     17  C   UNL     1      -7.086  10.134  18.853  0.00  0.00    +0.000 C 
ATOM     18  C   UNL     1      -6.254  11.391  18.597  0.00  0.00    +0.000 C 
ATOM     19  O   UNL     1      -6.749  12.129  17.473  0.00  0.00    +0.000 OA
ATOM     20  N   UNL     1      -7.714  13.093  17.992  0.00  0.00    +0.000 NA
ATOM     21  C   UNL     1      -7.704  14.238  17.074  0.00  0.00    +0.000 C 
ATOM     22  C   UNL     1      -6.857  15.345  17.672  0.00  0.00    +0.000 C 
ATOM     23  C   UNL     1      -6.357  14.831  19.002  0.00  0.00    +0.000 C 
ATOM     24  C   UNL     1      -7.123  13.538  19.265  0.00  0.00    +0.000 C 
ATOM     25  C   UNL     1      -6.338  12.340  19.779  0.00  0.00    +0.000 C 
ENDBRANCH   1  25
TORSDOF 1
ENDMDL
