MODEL 1
REMARK VINA RESULT:      -6.9      0.000      0.000
REMARK  Name = 
REMARK  1 active torsions:
REMARK  status: ('A' for Active; 'I' for Inactive)
REMARK    1  A    between atoms: N_11  and  C_12
REMARK                            x       y       z     vdW  Elec       q    Type
REMARK                         _______ _______ _______ _____ _____    ______ ____
ROOT
ATOM      1  O   UNL     1       3.919   2.199  17.169  0.00  0.00    +0.000 OA
ATOM      2  C   UNL     1       3.589   3.304  17.599  0.00  0.00    +0.000 A 
ATOM      3  C   UNL     1       2.546   3.370  18.675  0.00  0.00    +0.000 A 
ATOM      4  C   UNL     1       2.112   4.562  19.112  0.00  0.00    +0.000 A 
ATOM      5  C   UNL     1       2.595   5.810  18.518  0.00  0.00    +0.000 A 
ATOM      6  C   UNL     1       2.032   7.054  18.829  0.00  0.00    +0.000 A 
ATOM      7  C   UNL     1       2.520   8.212  18.234  0.00  0.00    +0.000 A 
ATOM      8  C   UNL     1       3.571   8.089  17.351  0.00  0.00    +0.000 A 
ATOM      9  N   UNL     1       4.140   6.909  17.038  0.00  0.00    +0.000 NA
ATOM     10  C   UNL     1       3.653   5.772  17.607  0.00  0.00    +0.000 A 
ATOM     11  N   UNL     1       4.171   4.505  17.205  0.00  0.00    +0.000 N 
ATOM     12  O   UNL     1       1.125   4.667  20.069  0.00  0.00    +0.000 OA
ATOM     13  C   UNL     1       1.591   4.414  21.399  0.00  0.00    +0.000 C 
ATOM     14  C   UNL     1       2.438   3.153  21.571  0.00  0.00    +0.000 C 
ATOM     15  C   UNL     1       1.884   1.972  20.777  0.00  0.00    +0.000 C 
ATOM     16  C   UNL     1       2.062   2.058  19.247  0.00  0.00    +0.000 C 
ENDROOT
BRANCH  11  17
ATOM     17  C   UNL     1       5.224   4.520  16.244  0.00  0.00    +0.000 A 
ATOM     18  C   UNL     1       4.956   4.300  14.886  0.00  0.00    +0.000 A 
ATOM     19  C   UNL     1       5.981   4.384  13.941  0.00  0.00    +0.000 A 
ATOM     20  C   UNL     1       7.289   4.647  14.347  0.00  0.00    +0.000 A 
ATOM     21  C   UNL     1       7.575   4.820  15.699  0.00  0.00    +0.000 A 
ATOM     22  C   UNL     1       6.547   4.764  16.641  0.00  0.00    +0.000 A 
ENDBRANCH  11  17
TORSDOF 1
ENDMDL
MODEL 2
REMARK VINA RESULT:      -6.8      0.066      1.031
REMARK  Name = 
REMARK  1 active torsions:
REMARK  status: ('A' for Active; 'I' for Inactive)
REMARK    1  A    between atoms: N_11  and  C_12
REMARK                            x       y       z     vdW  Elec       q    Type
REMARK                         _______ _______ _______ _____ _____    ______ ____
ROOT
ATOM      1  O   UNL     1       3.950   2.256  17.129  0.00  0.00    +0.000 OA
ATOM      2  C   UNL     1       3.603   3.348  17.578  0.00  0.00    +0.000 A 
ATOM      3  C   UNL     1       2.562   3.378  18.658  0.00  0.00    +0.000 A 
ATOM      4  C   UNL     1       2.109   4.555  19.116  0.00  0.00    +0.000 A 
ATOM      5  C   UNL     1       2.570   5.822  18.541  0.00  0.00    +0.000 A 
ATOM      6  C   UNL     1       1.987   7.050  18.875  0.00  0.00    +0.000 A 
ATOM      7  C   UNL     1       2.454   8.226  18.298  0.00  0.00    +0.000 A 
ATOM      8  C   UNL     1       3.505   8.135  17.411  0.00  0.00    +0.000 A 
ATOM      9  N   UNL     1       4.092   6.971  17.076  0.00  0.00    +0.000 NA
ATOM     10  C   UNL     1       3.626   5.816  17.627  0.00  0.00    +0.000 A 
ATOM     11  N   UNL     1       4.164   4.565  17.203  0.00  0.00    +0.000 N 
ATOM     12  O   UNL     1       1.124   4.628  20.077  0.00  0.00    +0.000 OA
ATOM     13  C   UNL     1       1.597   4.361  21.402  0.00  0.00    +0.000 C 
ATOM     14  C   UNL     1       2.466   3.111  21.550  0.00  0.00    +0.000 C 
ATOM     15  C   UNL     1       1.930   1.935  20.737  0.00  0.00    +0.000 C 
ATOM     16  C   UNL     1       2.102   2.049  19.209  0.00  0.00    +0.000 C 
ENDROOT
BRANCH  11  17
ATOM     17  C   UNL     1       5.213   4.614  16.239  0.00  0.00    +0.000 A 
ATOM     18  C   UNL     1       6.534   4.868  16.633  0.00  0.00    +0.000 A 
ATOM     19  C   UNL     1       7.567   4.846  15.693  0.00  0.00    +0.000 A 
ATOM     20  C   UNL     1       7.287   4.611  14.348  0.00  0.00    +0.000 A 
ATOM     21  C   UNL     1       5.972   4.404  13.938  0.00  0.00    +0.000 A 
ATOM     22  C   UNL     1       4.942   4.398  14.879  0.00  0.00    +0.000 A 
ENDBRANCH  11  17
TORSDOF 1
ENDMDL
MODEL 3
REMARK VINA RESULT:      -6.8      1.776      5.447
REMARK  Name = 
REMARK  1 active torsions:
REMARK  status: ('A' for Active; 'I' for Inactive)
REMARK    1  A    between atoms: N_11  and  C_12
REMARK                            x       y       z     vdW  Elec       q    Type
REMARK                         _______ _______ _______ _____ _____    ______ ____
ROOT
ATOM      1  O   UNL     1       5.236   3.161  18.913  0.00  0.00    +0.000 OA
ATOM      2  C   UNL     1       4.781   4.230  18.505  0.00  0.00    +0.000 A 
ATOM      3  C   UNL     1       5.560   4.992  17.474  0.00  0.00    +0.000 A 
ATOM      4  C   UNL     1       5.127   6.193  17.064  0.00  0.00    +0.000 A 
ATOM      5  C   UNL     1       3.932   6.809  17.645  0.00  0.00    +0.000 A 
ATOM      6  C   UNL     1       3.559   8.129  17.366  0.00  0.00    +0.000 A 
ATOM      7  C   UNL     1       2.420   8.673  17.947  0.00  0.00    +0.000 A 
ATOM      8  C   UNL     1       1.676   7.868  18.783  0.00  0.00    +0.000 A 
ATOM      9  N   UNL     1       2.002   6.592  19.065  0.00  0.00    +0.000 NA
ATOM     10  C   UNL     1       3.128   6.063  18.510  0.00  0.00    +0.000 A 
ATOM     11  N   UNL     1       3.547   4.751  18.881  0.00  0.00    +0.000 N 
ATOM     12  O   UNL     1       5.835   6.945  16.150  0.00  0.00    +0.000 OA
ATOM     13  C   UNL     1       5.683   6.494  14.800  0.00  0.00    +0.000 C 
ATOM     14  C   UNL     1       5.865   4.991  14.584  0.00  0.00    +0.000 C 
ATOM     15  C   UNL     1       7.030   4.428  15.394  0.00  0.00    +0.000 C 
ATOM     16  C   UNL     1       6.797   4.327  16.915  0.00  0.00    +0.000 C 
ENDROOT
BRANCH  11  17
ATOM     17  C   UNL     1       2.711   4.047  19.797  0.00  0.00    +0.000 A 
ATOM     18  C   UNL     1       1.609   3.312  19.339  0.00  0.00    +0.000 A 
ATOM     19  C   UNL     1       0.835   2.570  20.234  0.00  0.00    +0.000 A 
ATOM     20  C   UNL     1       1.128   2.587  21.597  0.00  0.00    +0.000 A 
ATOM     21  C   UNL     1       2.192   3.352  22.069  0.00  0.00    +0.000 A 
ATOM     22  C   UNL     1       2.983   4.073  21.173  0.00  0.00    +0.000 A 
ENDBRANCH  11  17
TORSDOF 1
ENDMDL
MODEL 4
REMARK VINA RESULT:      -6.7      1.766      5.542
REMARK  Name = 
REMARK  1 active torsions:
REMARK  status: ('A' for Active; 'I' for Inactive)
REMARK    1  A    between atoms: N_11  and  C_12
REMARK                            x       y       z     vdW  Elec       q    Type
REMARK                         _______ _______ _______ _____ _____    ______ ____
ROOT
ATOM      1  O   UNL     1       5.286   3.121  18.838  0.00  0.00    +0.000 OA
ATOM      2  C   UNL     1       4.816   4.191  18.452  0.00  0.00    +0.000 A 
ATOM      3  C   UNL     1       5.573   4.972  17.419  0.00  0.00    +0.000 A 
ATOM      4  C   UNL     1       5.125   6.176  17.032  0.00  0.00    +0.000 A 
ATOM      5  C   UNL     1       3.935   6.776  17.641  0.00  0.00    +0.000 A 
ATOM      6  C   UNL     1       3.549   8.097  17.385  0.00  0.00    +0.000 A 
ATOM      7  C   UNL     1       2.415   8.624  17.992  0.00  0.00    +0.000 A 
ATOM      8  C   UNL     1       1.692   7.803  18.830  0.00  0.00    +0.000 A 
ATOM      9  N   UNL     1       2.031   6.526  19.089  0.00  0.00    +0.000 NA
ATOM     10  C   UNL     1       3.151   6.013  18.509  0.00  0.00    +0.000 A 
ATOM     11  N   UNL     1       3.585   4.699  18.856  0.00  0.00    +0.000 N 
ATOM     12  O   UNL     1       5.812   6.945  16.117  0.00  0.00    +0.000 OA
ATOM     13  C   UNL     1       5.641   6.510  14.763  0.00  0.00    +0.000 C 
ATOM     14  C   UNL     1       5.830   5.011  14.525  0.00  0.00    +0.000 C 
ATOM     15  C   UNL     1       7.012   4.446  15.308  0.00  0.00    +0.000 C 
ATOM     16  C   UNL     1       6.805   4.324  16.831  0.00  0.00    +0.000 C 
ENDROOT
BRANCH  11  17
ATOM     17  C   UNL     1       2.769   3.977  19.776  0.00  0.00    +0.000 A 
ATOM     18  C   UNL     1       3.013   4.046  21.154  0.00  0.00    +0.000 A 
ATOM     19  C   UNL     1       2.168   3.392  22.054  0.00  0.00    +0.000 A 
ATOM     20  C   UNL     1       1.098   2.631  21.585  0.00  0.00    +0.000 A 
ATOM     21  C   UNL     1       0.874   2.518  20.215  0.00  0.00    +0.000 A 
ATOM     22  C   UNL     1       1.700   3.192  19.316  0.00  0.00    +0.000 A 
ENDBRANCH  11  17
TORSDOF 1
ENDMDL
MODEL 5
REMARK VINA RESULT:      -6.7      1.708      4.917
REMARK  Name = 
REMARK  1 active torsions:
REMARK  status: ('A' for Active; 'I' for Inactive)
REMARK    1  A    between atoms: N_11  and  C_12
REMARK                            x       y       z     vdW  Elec       q    Type
REMARK                         _______ _______ _______ _____ _____    ______ ____
ROOT
ATOM      1  O   UNL     1       1.272   6.162  21.051  0.00  0.00    +0.000 OA
ATOM      2  C   UNL     1       2.078   5.851  20.174  0.00  0.00    +0.000 A 
ATOM      3  C   UNL     1       2.598   4.445  20.148  0.00  0.00    +0.000 A 
ATOM      4  C   UNL     1       3.533   4.096  19.250  0.00  0.00    +0.000 A 
ATOM      5  C   UNL     1       4.103   5.079  18.326  0.00  0.00    +0.000 A 
ATOM      6  C   UNL     1       5.198   4.786  17.504  0.00  0.00    +0.000 A 
ATOM      7  C   UNL     1       5.709   5.754  16.648  0.00  0.00    +0.000 A 
ATOM      8  C   UNL     1       5.095   6.987  16.630  0.00  0.00    +0.000 A 
ATOM      9  N   UNL     1       4.035   7.297  17.400  0.00  0.00    +0.000 NA
ATOM     10  C   UNL     1       3.543   6.356  18.252  0.00  0.00    +0.000 A 
ATOM     11  N   UNL     1       2.491   6.701  19.152  0.00  0.00    +0.000 N 
ATOM     12  O   UNL     1       4.068   2.825  19.219  0.00  0.00    +0.000 OA
ATOM     13  C   UNL     1       3.206   1.857  18.611  0.00  0.00    +0.000 C 
ATOM     14  C   UNL     1       1.757   1.868  19.101  0.00  0.00    +0.000 C 
ATOM     15  C   UNL     1       1.659   2.056  20.613  0.00  0.00    +0.000 C 
ATOM     16  C   UNL     1       1.996   3.468  21.131  0.00  0.00    +0.000 C 
ENDROOT
BRANCH  11  17
ATOM     17  C   UNL     1       1.982   8.029  19.062  0.00  0.00    +0.000 A 
ATOM     18  C   UNL     1       1.879   8.673  17.822  0.00  0.00    +0.000 A 
ATOM     19  C   UNL     1       1.315   9.948  17.733  0.00  0.00    +0.000 A 
ATOM     20  C   UNL     1       0.887  10.608  18.884  0.00  0.00    +0.000 A 
ATOM     21  C   UNL     1       1.029   9.996  20.128  0.00  0.00    +0.000 A 
ATOM     22  C   UNL     1       1.566   8.712  20.216  0.00  0.00    +0.000 A 
ENDBRANCH  11  17
TORSDOF 1
ENDMDL
MODEL 6
REMARK VINA RESULT:      -6.6      1.647      4.957
REMARK  Name = 
REMARK  1 active torsions:
REMARK  status: ('A' for Active; 'I' for Inactive)
REMARK    1  A    between atoms: N_11  and  C_12
REMARK                            x       y       z     vdW  Elec       q    Type
REMARK                         _______ _______ _______ _____ _____    ______ ____
ROOT
ATOM      1  O   UNL     1       1.384   6.066  21.028  0.00  0.00    +0.000 OA
ATOM      2  C   UNL     1       2.161   5.777  20.118  0.00  0.00    +0.000 A 
ATOM      3  C   UNL     1       2.688   4.375  20.048  0.00  0.00    +0.000 A 
ATOM      4  C   UNL     1       3.593   4.048  19.112  0.00  0.00    +0.000 A 
ATOM      5  C   UNL     1       4.124   5.051  18.186  0.00  0.00    +0.000 A 
ATOM      6  C   UNL     1       5.191   4.781  17.321  0.00  0.00    +0.000 A 
ATOM      7  C   UNL     1       5.665   5.767  16.465  0.00  0.00    +0.000 A 
ATOM      8  C   UNL     1       5.043   6.997  16.491  0.00  0.00    +0.000 A 
ATOM      9  N   UNL     1       4.009   7.286  17.303  0.00  0.00    +0.000 NA
ATOM     10  C   UNL     1       3.553   6.326  18.155  0.00  0.00    +0.000 A 
ATOM     11  N   UNL     1       2.532   6.647  19.097  0.00  0.00    +0.000 N 
ATOM     12  O   UNL     1       4.134   2.783  19.039  0.00  0.00    +0.000 OA
ATOM     13  C   UNL     1       3.258   1.819  18.444  0.00  0.00    +0.000 C 
ATOM     14  C   UNL     1       1.827   1.811  18.985  0.00  0.00    +0.000 C 
ATOM     15  C   UNL     1       1.781   1.971  20.502  0.00  0.00    +0.000 C 
ATOM     16  C   UNL     1       2.127   3.377  21.034  0.00  0.00    +0.000 C 
ENDROOT
BRANCH  11  17
ATOM     17  C   UNL     1       2.011   7.974  19.049  0.00  0.00    +0.000 A 
ATOM     18  C   UNL     1       1.567   8.610  20.216  0.00  0.00    +0.000 A 
ATOM     19  C   UNL     1       1.122   9.933  20.173  0.00  0.00    +0.000 A 
ATOM     20  C   UNL     1       1.078  10.619  18.960  0.00  0.00    +0.000 A 
ATOM     21  C   UNL     1       1.472   9.980  17.786  0.00  0.00    +0.000 A 
ATOM     22  C   UNL     1       1.942   8.668  17.832  0.00  0.00    +0.000 A 
ENDBRANCH  11  17
TORSDOF 1
ENDMDL
MODEL 7
REMARK VINA RESULT:      -6.6      2.409      6.270
REMARK  Name = 
REMARK  1 active torsions:
REMARK  status: ('A' for Active; 'I' for Inactive)
REMARK    1  A    between atoms: N_11  and  C_12
REMARK                            x       y       z     vdW  Elec       q    Type
REMARK                         _______ _______ _______ _____ _____    ______ ____
ROOT
ATOM      1  O   UNL     1       3.170   8.482  17.291  0.00  0.00    +0.000 OA
ATOM      2  C   UNL     1       3.239   7.405  17.884  0.00  0.00    +0.000 A 
ATOM      3  C   UNL     1       4.180   6.361  17.361  0.00  0.00    +0.000 A 
ATOM      4  C   UNL     1       4.224   5.152  17.940  0.00  0.00    +0.000 A 
ATOM      5  C   UNL     1       3.325   4.806  19.044  0.00  0.00    +0.000 A 
ATOM      6  C   UNL     1       3.226   3.503  19.548  0.00  0.00    +0.000 A 
ATOM      7  C   UNL     1       2.354   3.221  20.593  0.00  0.00    +0.000 A 
ATOM      8  C   UNL     1       1.615   4.262  21.113  0.00  0.00    +0.000 A 
ATOM      9  N   UNL     1       1.694   5.526  20.658  0.00  0.00    +0.000 NA
ATOM     10  C   UNL     1       2.535   5.802  19.623  0.00  0.00    +0.000 A 
ATOM     11  N   UNL     1       2.552   7.111  19.058  0.00  0.00    +0.000 N 
ATOM     12  O   UNL     1       5.043   4.150  17.465  0.00  0.00    +0.000 OA
ATOM     13  C   UNL     1       6.417   4.313  17.835  0.00  0.00    +0.000 C 
ATOM     14  C   UNL     1       7.001   5.706  17.599  0.00  0.00    +0.000 C 
ATOM     15  C   UNL     1       6.549   6.305  16.269  0.00  0.00    +0.000 C 
ATOM     16  C   UNL     1       5.075   6.755  16.209  0.00  0.00    +0.000 C 
ENDROOT
BRANCH  11  17
ATOM     17  C   UNL     1       1.698   8.080  19.661  0.00  0.00    +0.000 A 
ATOM     18  C   UNL     1       1.009   9.014  18.876  0.00  0.00    +0.000 A 
ATOM     19  C   UNL     1       0.121   9.915  19.467  0.00  0.00    +0.000 A 
ATOM     20  C   UNL     1      -0.056   9.920  20.850  0.00  0.00    +0.000 A 
ATOM     21  C   UNL     1       0.660   9.028  21.645  0.00  0.00    +0.000 A 
ATOM     22  C   UNL     1       1.526   8.109  21.054  0.00  0.00    +0.000 A 
ENDBRANCH  11  17
TORSDOF 1
ENDMDL
MODEL 8
REMARK VINA RESULT:      -6.5      2.455      6.365
REMARK  Name = 
REMARK  1 active torsions:
REMARK  status: ('A' for Active; 'I' for Inactive)
REMARK    1  A    between atoms: N_11  and  C_12
REMARK                            x       y       z     vdW  Elec       q    Type
REMARK                         _______ _______ _______ _____ _____    ______ ____
ROOT
ATOM      1  O   UNL     1       3.246   8.607  17.687  0.00  0.00    +0.000 OA
ATOM      2  C   UNL     1       3.169   7.447  18.094  0.00  0.00    +0.000 A 
ATOM      3  C   UNL     1       3.999   6.397  17.417  0.00  0.00    +0.000 A 
ATOM      4  C   UNL     1       3.882   5.113  17.789  0.00  0.00    +0.000 A 
ATOM      5  C   UNL     1       2.914   4.702  18.808  0.00  0.00    +0.000 A 
ATOM      6  C   UNL     1       2.647   3.356  19.088  0.00  0.00    +0.000 A 
ATOM      7  C   UNL     1       1.715   3.015  20.060  0.00  0.00    +0.000 A 
ATOM      8  C   UNL     1       1.085   4.038  20.736  0.00  0.00    +0.000 A 
ATOM      9  N   UNL     1       1.326   5.341  20.498  0.00  0.00    +0.000 NA
ATOM     10  C   UNL     1       2.227   5.678  19.534  0.00  0.00    +0.000 A 
ATOM     11  N   UNL     1       2.415   7.050  19.194  0.00  0.00    +0.000 N 
ATOM     12  O   UNL     1       4.594   4.111  17.165  0.00  0.00    +0.000 OA
ATOM     13  C   UNL     1       5.965   4.044  17.574  0.00  0.00    +0.000 C 
ATOM     14  C   UNL     1       6.715   5.377  17.580  0.00  0.00    +0.000 C 
ATOM     15  C   UNL     1       6.379   6.234  16.362  0.00  0.00    +0.000 C 
ATOM     16  C   UNL     1       4.971   6.862  16.358  0.00  0.00    +0.000 C 
ENDROOT
BRANCH  11  17
ATOM     17  C   UNL     1       1.660   8.003  19.939  0.00  0.00    +0.000 A 
ATOM     18  C   UNL     1       1.733   8.037  21.338  0.00  0.00    +0.000 A 
ATOM     19  C   UNL     1       1.045   9.017  22.057  0.00  0.00    +0.000 A 
ATOM     20  C   UNL     1       0.247   9.946  21.390  0.00  0.00    +0.000 A 
ATOM     21  C   UNL     1       0.130   9.892  20.003  0.00  0.00    +0.000 A 
ATOM     22  C   UNL     1       0.838   8.931  19.281  0.00  0.00    +0.000 A 
ENDBRANCH  11  17
TORSDOF 1
ENDMDL
MODEL 9
REMARK VINA RESULT:      -6.2      9.903     12.368
REMARK  Name = 
REMARK  1 active torsions:
REMARK  status: ('A' for Active; 'I' for Inactive)
REMARK    1  A    between atoms: N_11  and  C_12
REMARK                            x       y       z     vdW  Elec       q    Type
REMARK                         _______ _______ _______ _____ _____    ______ ____
ROOT
ATOM      1  O   UNL     1       9.371  10.841  21.142  0.00  0.00    +0.000 OA
ATOM      2  C   UNL     1       9.682  12.032  21.135  0.00  0.00    +0.000 A 
ATOM      3  C   UNL     1      10.652  12.510  20.094  0.00  0.00    +0.000 A 
ATOM      4  C   UNL     1      11.067  13.786  20.106  0.00  0.00    +0.000 A 
ATOM      5  C   UNL     1      10.637  14.715  21.154  0.00  0.00    +0.000 A 
ATOM      6  C   UNL     1      11.189  15.994  21.292  0.00  0.00    +0.000 A 
ATOM      7  C   UNL     1      10.754  16.839  22.306  0.00  0.00    +0.000 A 
ATOM      8  C   UNL     1       9.762  16.379  23.147  0.00  0.00    +0.000 A 
ATOM      9  N   UNL     1       9.205  15.159  23.034  0.00  0.00    +0.000 NA
ATOM     10  C   UNL     1       9.642  14.323  22.052  0.00  0.00    +0.000 A 
ATOM     11  N   UNL     1       9.139  12.990  21.985  0.00  0.00    +0.000 N 
ATOM     12  O   UNL     1      11.988  14.256  19.195  0.00  0.00    +0.000 OA
ATOM     13  C   UNL     1      11.433  14.510  17.900  0.00  0.00    +0.000 C 
ATOM     14  C   UNL     1      10.564  13.390  17.326  0.00  0.00    +0.000 C 
ATOM     15  C   UNL     1      11.158  12.007  17.585  0.00  0.00    +0.000 C 
ATOM     16  C   UNL     1      11.083  11.514  19.044  0.00  0.00    +0.000 C 
ENDROOT
BRANCH  11  17
ATOM     17  C   UNL     1       8.153  12.629  22.950  0.00  0.00    +0.000 A 
ATOM     18  C   UNL     1       6.790  12.804  22.678  0.00  0.00    +0.000 A 
ATOM     19  C   UNL     1       5.827  12.384  23.599  0.00  0.00    +0.000 A 
ATOM     20  C   UNL     1       6.217  11.825  24.815  0.00  0.00    +0.000 A 
ATOM     21  C   UNL     1       7.570  11.690  25.116  0.00  0.00    +0.000 A 
ATOM     22  C   UNL     1       8.533  12.083  24.186  0.00  0.00    +0.000 A 
ENDBRANCH  11  17
TORSDOF 1
ENDMDL
