MODEL 1
REMARK VINA RESULT:      -8.2      0.000      0.000
REMARK  Name = 
REMARK  8 active torsions:
REMARK  status: ('A' for Active; 'I' for Inactive)
REMARK    1  A    between atoms: C_1  and  O_2
REMARK    2  A    between atoms: O_2  and  C_3
REMARK    3  A    between atoms: C_6  and  C_7
REMARK    4  A    between atoms: N_8  and  N_9
REMARK    5  A    between atoms: C_12  and  C_13
REMARK    6  A    between atoms: C_16  and  C_17
REMARK    7  A    between atoms: C_20  and  N_21
REMARK    8  A    between atoms: C_22  and  C_23
REMARK                            x       y       z     vdW  Elec       q    Type
REMARK                         _______ _______ _______ _____ _____    ______ ____
ROOT
ATOM      1  N   UNL     1       1.342   9.866  18.642  0.00  0.00    +0.000 N 
ATOM      2  C   UNL     1       1.884   8.635  18.848  0.00  0.00    +0.000 A 
ATOM      3  N   UNL     1       2.693   8.040  18.009  0.00  0.00    +0.000 NA
ATOM      4  C   UNL     1       3.108   6.805  18.515  0.00  0.00    +0.000 A 
ATOM      5  C   UNL     1       2.554   6.463  19.746  0.00  0.00    +0.000 A 
ATOM      6  S   UNL     1       1.569   7.748  20.280  0.00  0.00    +0.000 S 
ATOM      7  H   UNL     1       1.615  10.309  17.768  0.00  0.00    +0.000 HD
ENDROOT
BRANCH   4   8
ATOM      8  C   UNL     1       3.977   5.999  17.659  0.00  0.00    +0.000 A 
ATOM      9  C   UNL     1       4.922   6.658  16.849  0.00  0.00    +0.000 A 
ATOM     10  C   UNL     1       5.594   5.987  15.825  0.00  0.00    +0.000 A 
ATOM     11  C   UNL     1       5.335   4.635  15.591  0.00  0.00    +0.000 A 
ATOM     12  C   UNL     1       5.931   3.932  14.410  0.00  0.00    +0.000 C 
ATOM     13  C   UNL     1       4.467   3.951  16.454  0.00  0.00    +0.000 A 
ATOM     14  C   UNL     1       3.786   4.629  17.474  0.00  0.00    +0.000 A 
ENDBRANCH   4   8
BRANCH   5  15
ATOM     15  N   UNL     1       2.726   5.356  20.573  0.00  0.00    +0.000 N 
ATOM     16  C   UNL     1       1.830   4.295  20.670  0.00  0.00    +0.000 C 
ATOM     17  C   UNL     1       2.203   3.281  21.714  0.00  0.00    +0.000 C 
ATOM     18  O   UNL     1       0.834   4.094  19.978  0.00  0.00    +0.000 OA
ATOM     19  H   UNL     1       3.609   5.287  21.062  0.00  0.00    +0.000 HD
ENDBRANCH   5  15
BRANCH   1  21
ATOM     20  C   UNL     1      -0.122  11.099  19.872  0.00  0.00    +0.000 C 
ATOM     21  N   UNL     1       1.075  10.651  19.716  0.00  0.00    +0.000 NA
BRANCH  20  25
ATOM     22  C   UNL     1      -0.917  13.659  23.193  0.00  0.00    +0.000 A 
ATOM     23  C   UNL     1      -0.056  14.075  22.180  0.00  0.00    +0.000 A 
ATOM     24  C   UNL     1       0.203  13.243  21.097  0.00  0.00    +0.000 A 
ATOM     25  C   UNL     1      -0.391  11.974  21.030  0.00  0.00    +0.000 A 
ATOM     26  C   UNL     1      -1.236  11.540  22.050  0.00  0.00    +0.000 A 
ATOM     27  C   UNL     1      -1.495  12.387  23.135  0.00  0.00    +0.000 A 
BRANCH  22  29
ATOM     28  C   UNL     1      -2.401  15.041  24.404  0.00  0.00    +0.000 C 
ATOM     29  O   UNL     1      -1.078  14.557  24.212  0.00  0.00    +0.000 OA
ENDBRANCH  22  29
ENDBRANCH  20  25
ENDBRANCH   1  21
TORSDOF 5
ENDMDL
MODEL 2
REMARK VINA RESULT:      -7.9      0.832      1.377
REMARK  Name = 
REMARK  8 active torsions:
REMARK  status: ('A' for Active; 'I' for Inactive)
REMARK    1  A    between atoms: C_1  and  O_2
REMARK    2  A    between atoms: O_2  and  C_3
REMARK    3  A    between atoms: C_6  and  C_7
REMARK    4  A    between atoms: N_8  and  N_9
REMARK    5  A    between atoms: C_12  and  C_13
REMARK    6  A    between atoms: C_16  and  C_17
REMARK    7  A    between atoms: C_20  and  N_21
REMARK    8  A    between atoms: C_22  and  C_23
REMARK                            x       y       z     vdW  Elec       q    Type
REMARK                         _______ _______ _______ _____ _____    ______ ____
ROOT
ATOM      1  N   UNL     1       1.303   9.986  18.236  0.00  0.00    +0.000 N 
ATOM      2  C   UNL     1       1.853   8.776  18.529  0.00  0.00    +0.000 A 
ATOM      3  N   UNL     1       2.688   8.141  17.746  0.00  0.00    +0.000 NA
ATOM      4  C   UNL     1       3.104   6.944  18.336  0.00  0.00    +0.000 A 
ATOM      5  C   UNL     1       2.525   6.671  19.572  0.00  0.00    +0.000 A 
ATOM      6  S   UNL     1       1.515   7.974  20.005  0.00  0.00    +0.000 S 
ATOM      7  H   UNL     1       1.592  10.378  17.343  0.00  0.00    +0.000 HD
ENDROOT
BRANCH   4   8
ATOM      8  C   UNL     1       4.001   6.098  17.550  0.00  0.00    +0.000 A 
ATOM      9  C   UNL     1       4.970   6.718  16.738  0.00  0.00    +0.000 A 
ATOM     10  C   UNL     1       5.675   5.997  15.771  0.00  0.00    +0.000 A 
ATOM     11  C   UNL     1       5.426   4.634  15.600  0.00  0.00    +0.000 A 
ATOM     12  C   UNL     1       6.061   3.873  14.476  0.00  0.00    +0.000 C 
ATOM     13  C   UNL     1       4.533   3.992  16.468  0.00  0.00    +0.000 A 
ATOM     14  C   UNL     1       3.819   4.720  17.431  0.00  0.00    +0.000 A 
ENDBRANCH   4   8
BRANCH   5  15
ATOM     15  N   UNL     1       2.689   5.618  20.469  0.00  0.00    +0.000 N 
ATOM     16  C   UNL     1       1.871   4.493  20.526  0.00  0.00    +0.000 C 
ATOM     17  C   UNL     1       2.203   3.558  21.654  0.00  0.00    +0.000 C 
ATOM     18  O   UNL     1       0.974   4.182  19.744  0.00  0.00    +0.000 OA
ATOM     19  H   UNL     1       3.516   5.642  21.051  0.00  0.00    +0.000 HD
ENDBRANCH   5  15
BRANCH   1  21
ATOM     20  C   UNL     1       1.198  12.093  19.088  0.00  0.00    +0.000 C 
ATOM     21  N   UNL     1       1.003  10.831  19.254  0.00  0.00    +0.000 NA
BRANCH  20  25
ATOM     22  C   UNL     1       0.320  14.675  22.371  0.00  0.00    +0.000 A 
ATOM     23  C   UNL     1      -0.531  13.614  22.068  0.00  0.00    +0.000 A 
ATOM     24  C   UNL     1      -0.245  12.771  21.000  0.00  0.00    +0.000 A 
ATOM     25  C   UNL     1       0.894  12.997  20.213  0.00  0.00    +0.000 A 
ATOM     26  C   UNL     1       1.739  14.071  20.494  0.00  0.00    +0.000 A 
ATOM     27  C   UNL     1       1.446  14.911  21.575  0.00  0.00    +0.000 A 
BRANCH  22  29
ATOM     28  C   UNL     1      -1.195  14.954  24.160  0.00  0.00    +0.000 C 
ATOM     29  O   UNL     1      -0.077  15.442  23.431  0.00  0.00    +0.000 OA
ENDBRANCH  22  29
ENDBRANCH  20  25
ENDBRANCH   1  21
TORSDOF 5
ENDMDL
MODEL 3
REMARK VINA RESULT:      -7.7      0.642      1.126
REMARK  Name = 
REMARK  8 active torsions:
REMARK  status: ('A' for Active; 'I' for Inactive)
REMARK    1  A    between atoms: C_1  and  O_2
REMARK    2  A    between atoms: O_2  and  C_3
REMARK    3  A    between atoms: C_6  and  C_7
REMARK    4  A    between atoms: N_8  and  N_9
REMARK    5  A    between atoms: C_12  and  C_13
REMARK    6  A    between atoms: C_16  and  C_17
REMARK    7  A    between atoms: C_20  and  N_21
REMARK    8  A    between atoms: C_22  and  C_23
REMARK                            x       y       z     vdW  Elec       q    Type
REMARK                         _______ _______ _______ _____ _____    ______ ____
ROOT
ATOM      1  N   UNL     1       0.737  10.064  19.003  0.00  0.00    +0.000 N 
ATOM      2  C   UNL     1       1.366   8.864  19.129  0.00  0.00    +0.000 A 
ATOM      3  N   UNL     1       2.135   8.338  18.209  0.00  0.00    +0.000 NA
ATOM      4  C   UNL     1       2.663   7.119  18.645  0.00  0.00    +0.000 A 
ATOM      5  C   UNL     1       2.236   6.716  19.907  0.00  0.00    +0.000 A 
ATOM      6  S   UNL     1       1.226   7.926  20.557  0.00  0.00    +0.000 S 
ATOM      7  H   UNL     1       0.909  10.543  18.122  0.00  0.00    +0.000 HD
ENDROOT
BRANCH   4   8
ATOM      8  C   UNL     1       3.501   6.387  17.697  0.00  0.00    +0.000 A 
ATOM      9  C   UNL     1       3.302   5.000  17.553  0.00  0.00    +0.000 A 
ATOM     10  C   UNL     1       4.225   4.201  16.876  0.00  0.00    +0.000 A 
ATOM     11  C   UNL     1       5.370   4.777  16.322  0.00  0.00    +0.000 A 
ATOM     12  C   UNL     1       6.445   3.923  15.720  0.00  0.00    +0.000 C 
ATOM     13  C   UNL     1       5.526   6.168  16.378  0.00  0.00    +0.000 A 
ATOM     14  C   UNL     1       4.603   6.967  17.068  0.00  0.00    +0.000 A 
ENDBRANCH   4   8
BRANCH   5  15
ATOM     15  N   UNL     1       2.541   5.603  20.686  0.00  0.00    +0.000 N 
ATOM     16  C   UNL     1       1.742   4.468  20.790  0.00  0.00    +0.000 C 
ATOM     17  C   UNL     1       2.251   3.457  21.779  0.00  0.00    +0.000 C 
ATOM     18  O   UNL     1       0.731   4.204  20.142  0.00  0.00    +0.000 OA
ATOM     19  H   UNL     1       3.451   5.594  21.128  0.00  0.00    +0.000 HD
ENDBRANCH   5  15
BRANCH   1  21
ATOM     20  C   UNL     1      -0.295  11.802  20.047  0.00  0.00    +0.000 C 
ATOM     21  N   UNL     1       0.517  10.806  20.118  0.00  0.00    +0.000 NA
BRANCH  20  25
ATOM     22  C   UNL     1      -0.916  14.192  23.528  0.00  0.00    +0.000 A 
ATOM     23  C   UNL     1      -0.076  14.642  22.511  0.00  0.00    +0.000 A 
ATOM     24  C   UNL     1       0.126  13.865  21.376  0.00  0.00    +0.000 A 
ATOM     25  C   UNL     1      -0.504  12.617  21.259  0.00  0.00    +0.000 A 
ATOM     26  C   UNL     1      -1.329  12.148  22.281  0.00  0.00    +0.000 A 
ATOM     27  C   UNL     1      -1.531  12.940  23.418  0.00  0.00    +0.000 A 
BRANCH  22  29
ATOM     28  C   UNL     1      -2.329  15.197  25.131  0.00  0.00    +0.000 C 
ATOM     29  O   UNL     1      -1.021  15.035  24.599  0.00  0.00    +0.000 OA
ENDBRANCH  22  29
ENDBRANCH  20  25
ENDBRANCH   1  21
TORSDOF 5
ENDMDL
MODEL 4
REMARK VINA RESULT:      -7.6      6.897      8.536
REMARK  Name = 
REMARK  8 active torsions:
REMARK  status: ('A' for Active; 'I' for Inactive)
REMARK    1  A    between atoms: C_1  and  O_2
REMARK    2  A    between atoms: O_2  and  C_3
REMARK    3  A    between atoms: C_6  and  C_7
REMARK    4  A    between atoms: N_8  and  N_9
REMARK    5  A    between atoms: C_12  and  C_13
REMARK    6  A    between atoms: C_16  and  C_17
REMARK    7  A    between atoms: C_20  and  N_21
REMARK    8  A    between atoms: C_22  and  C_23
REMARK                            x       y       z     vdW  Elec       q    Type
REMARK                         _______ _______ _______ _____ _____    ______ ____
ROOT
ATOM      1  N   UNL     1       8.265   7.713  18.923  0.00  0.00    +0.000 N 
ATOM      2  C   UNL     1       7.408   6.969  18.172  0.00  0.00    +0.000 A 
ATOM      3  N   UNL     1       6.462   6.213  18.669  0.00  0.00    +0.000 NA
ATOM      4  C   UNL     1       5.729   5.603  17.647  0.00  0.00    +0.000 A 
ATOM      5  C   UNL     1       6.176   5.887  16.360  0.00  0.00    +0.000 A 
ATOM      6  S   UNL     1       7.477   6.984  16.459  0.00  0.00    +0.000 S 
ATOM      7  H   UNL     1       8.118   7.644  19.927  0.00  0.00    +0.000 HD
ENDROOT
BRANCH   4   8
ATOM      8  C   UNL     1       4.669   4.683  18.055  0.00  0.00    +0.000 A 
ATOM      9  C   UNL     1       3.379   4.863  17.520  0.00  0.00    +0.000 A 
ATOM     10  C   UNL     1       2.272   4.201  18.055  0.00  0.00    +0.000 A 
ATOM     11  C   UNL     1       2.435   3.337  19.140  0.00  0.00    +0.000 A 
ATOM     12  C   UNL     1       1.247   2.731  19.824  0.00  0.00    +0.000 C 
ATOM     13  C   UNL     1       3.728   3.081  19.615  0.00  0.00    +0.000 A 
ATOM     14  C   UNL     1       4.836   3.755  19.083  0.00  0.00    +0.000 A 
ENDBRANCH   4   8
BRANCH   5  15
ATOM     15  N   UNL     1       5.713   5.502  15.103  0.00  0.00    +0.000 N 
ATOM     16  C   UNL     1       5.785   4.207  14.597  0.00  0.00    +0.000 C 
ATOM     17  C   UNL     1       5.309   4.084  13.177  0.00  0.00    +0.000 C 
ATOM     18  O   UNL     1       6.138   3.191  15.193  0.00  0.00    +0.000 OA
ATOM     19  H   UNL     1       5.211   6.200  14.571  0.00  0.00    +0.000 HD
ENDBRANCH   5  15
BRANCH   1  21
ATOM     20  C   UNL     1       9.213   9.759  19.220  0.00  0.00    +0.000 C 
ATOM     21  N   UNL     1       8.741   8.875  18.411  0.00  0.00    +0.000 NA
BRANCH  20  25
ATOM     22  C   UNL     1      10.600  13.458  17.603  0.00  0.00    +0.000 A 
ATOM     23  C   UNL     1       9.270  13.076  17.436  0.00  0.00    +0.000 A 
ATOM     24  C   UNL     1       8.817  11.872  17.964  0.00  0.00    +0.000 A 
ATOM     25  C   UNL     1       9.703  11.030  18.652  0.00  0.00    +0.000 A 
ATOM     26  C   UNL     1      11.040  11.393  18.804  0.00  0.00    +0.000 A 
ATOM     27  C   UNL     1      11.487  12.610  18.274  0.00  0.00    +0.000 A 
BRANCH  22  29
ATOM     28  C   UNL     1      12.205  15.174  17.372  0.00  0.00    +0.000 C 
ATOM     29  O   UNL     1      10.929  14.652  17.025  0.00  0.00    +0.000 OA
ENDBRANCH  22  29
ENDBRANCH  20  25
ENDBRANCH   1  21
TORSDOF 5
ENDMDL
MODEL 5
REMARK VINA RESULT:      -7.5      0.701      1.490
REMARK  Name = 
REMARK  8 active torsions:
REMARK  status: ('A' for Active; 'I' for Inactive)
REMARK    1  A    between atoms: C_1  and  O_2
REMARK    2  A    between atoms: O_2  and  C_3
REMARK    3  A    between atoms: C_6  and  C_7
REMARK    4  A    between atoms: N_8  and  N_9
REMARK    5  A    between atoms: C_12  and  C_13
REMARK    6  A    between atoms: C_16  and  C_17
REMARK    7  A    between atoms: C_20  and  N_21
REMARK    8  A    between atoms: C_22  and  C_23
REMARK                            x       y       z     vdW  Elec       q    Type
REMARK                         _______ _______ _______ _____ _____    ______ ____
ROOT
ATOM      1  N   UNL     1       0.758  10.076  18.875  0.00  0.00    +0.000 N 
ATOM      2  C   UNL     1       1.391   8.880  19.028  0.00  0.00    +0.000 A 
ATOM      3  N   UNL     1       2.159   8.335  18.120  0.00  0.00    +0.000 NA
ATOM      4  C   UNL     1       2.691   7.128  18.583  0.00  0.00    +0.000 A 
ATOM      5  C   UNL     1       2.267   6.754  19.855  0.00  0.00    +0.000 A 
ATOM      6  S   UNL     1       1.256   7.977  20.478  0.00  0.00    +0.000 S 
ATOM      7  H   UNL     1       0.927  10.534  17.982  0.00  0.00    +0.000 HD
ENDROOT
BRANCH   4   8
ATOM      8  C   UNL     1       3.529   6.376  17.651  0.00  0.00    +0.000 A 
ATOM      9  C   UNL     1       3.359   4.980  17.567  0.00  0.00    +0.000 A 
ATOM     10  C   UNL     1       4.288   4.174  16.907  0.00  0.00    +0.000 A 
ATOM     11  C   UNL     1       5.411   4.751  16.310  0.00  0.00    +0.000 A 
ATOM     12  C   UNL     1       6.493   3.896  15.724  0.00  0.00    +0.000 C 
ATOM     13  C   UNL     1       5.537   6.146  16.307  0.00  0.00    +0.000 A 
ATOM     14  C   UNL     1       4.608   6.953  16.980  0.00  0.00    +0.000 A 
ENDBRANCH   4   8
BRANCH   5  15
ATOM     15  N   UNL     1       2.578   5.661  20.660  0.00  0.00    +0.000 N 
ATOM     16  C   UNL     1       1.797   4.514  20.770  0.00  0.00    +0.000 C 
ATOM     17  C   UNL     1       2.305   3.530  21.786  0.00  0.00    +0.000 C 
ATOM     18  O   UNL     1       0.804   4.220  20.107  0.00  0.00    +0.000 OA
ATOM     19  H   UNL     1       3.479   5.676  21.119  0.00  0.00    +0.000 HD
ENDBRANCH   5  15
BRANCH   1  21
ATOM     20  C   UNL     1      -0.432  11.690  19.949  0.00  0.00    +0.000 C 
ATOM     21  N   UNL     1       0.538  10.843  19.972  0.00  0.00    +0.000 NA
BRANCH  20  25
ATOM     22  C   UNL     1      -1.021  14.111  23.414  0.00  0.00    +0.000 A 
ATOM     23  C   UNL     1      -1.557  12.826  23.360  0.00  0.00    +0.000 A 
ATOM     24  C   UNL     1      -1.364  12.036  22.232  0.00  0.00    +0.000 A 
ATOM     25  C   UNL     1      -0.643  12.537  21.139  0.00  0.00    +0.000 A 
ATOM     26  C   UNL     1      -0.122  13.831  21.175  0.00  0.00    +0.000 A 
ATOM     27  C   UNL     1      -0.317  14.618  22.317  0.00  0.00    +0.000 A 
BRANCH  22  29
ATOM     28  C   UNL     1      -0.639  16.051  24.705  0.00  0.00    +0.000 C 
ATOM     29  O   UNL     1      -1.293  14.796  24.566  0.00  0.00    +0.000 OA
ENDBRANCH  22  29
ENDBRANCH  20  25
ENDBRANCH   1  21
TORSDOF 5
ENDMDL
MODEL 6
REMARK VINA RESULT:      -7.5      6.783      8.524
REMARK  Name = 
REMARK  8 active torsions:
REMARK  status: ('A' for Active; 'I' for Inactive)
REMARK    1  A    between atoms: C_1  and  O_2
REMARK    2  A    between atoms: O_2  and  C_3
REMARK    3  A    between atoms: C_6  and  C_7
REMARK    4  A    between atoms: N_8  and  N_9
REMARK    5  A    between atoms: C_12  and  C_13
REMARK    6  A    between atoms: C_16  and  C_17
REMARK    7  A    between atoms: C_20  and  N_21
REMARK    8  A    between atoms: C_22  and  C_23
REMARK                            x       y       z     vdW  Elec       q    Type
REMARK                         _______ _______ _______ _____ _____    ______ ____
ROOT
ATOM      1  N   UNL     1       8.319   7.720  18.963  0.00  0.00    +0.000 N 
ATOM      2  C   UNL     1       7.417   7.019  18.225  0.00  0.00    +0.000 A 
ATOM      3  N   UNL     1       6.398   6.371  18.732  0.00  0.00    +0.000 NA
ATOM      4  C   UNL     1       5.636   5.780  17.721  0.00  0.00    +0.000 A 
ATOM      5  C   UNL     1       6.132   5.964  16.433  0.00  0.00    +0.000 A 
ATOM      6  S   UNL     1       7.522   6.948  16.516  0.00  0.00    +0.000 S 
ATOM      7  H   UNL     1       8.146   7.711  19.966  0.00  0.00    +0.000 HD
ENDROOT
BRANCH   4   8
ATOM      8  C   UNL     1       4.491   4.975  18.143  0.00  0.00    +0.000 A 
ATOM      9  C   UNL     1       4.732   3.712  18.717  0.00  0.00    +0.000 A 
ATOM     10  C   UNL     1       3.700   2.789  18.899  0.00  0.00    +0.000 A 
ATOM     11  C   UNL     1       2.398   3.114  18.511  0.00  0.00    +0.000 A 
ATOM     12  C   UNL     1       1.305   2.091  18.559  0.00  0.00    +0.000 C 
ATOM     13  C   UNL     1       2.136   4.403  18.028  0.00  0.00    +0.000 A 
ATOM     14  C   UNL     1       3.175   5.324  17.837  0.00  0.00    +0.000 A 
ENDBRANCH   4   8
BRANCH   5  15
ATOM     15  N   UNL     1       5.664   5.562  15.185  0.00  0.00    +0.000 N 
ATOM     16  C   UNL     1       5.723   4.259  14.700  0.00  0.00    +0.000 C 
ATOM     17  C   UNL     1       5.243   4.116  13.283  0.00  0.00    +0.000 C 
ATOM     18  O   UNL     1       6.068   3.250  15.312  0.00  0.00    +0.000 OA
ATOM     19  H   UNL     1       5.167   6.256  14.641  0.00  0.00    +0.000 HD
ENDBRANCH   5  15
BRANCH   1  21
ATOM     20  C   UNL     1       9.082   9.856  19.145  0.00  0.00    +0.000 C 
ATOM     21  N   UNL     1       8.906   8.812  18.412  0.00  0.00    +0.000 NA
BRANCH  20  25
ATOM     22  C   UNL     1      10.880  13.271  17.323  0.00  0.00    +0.000 A 
ATOM     23  C   UNL     1      11.679  12.266  17.866  0.00  0.00    +0.000 A 
ATOM     24  C   UNL     1      11.094  11.152  18.459  0.00  0.00    +0.000 A 
ATOM     25  C   UNL     1       9.697  11.045  18.525  0.00  0.00    +0.000 A 
ATOM     26  C   UNL     1       8.890  12.057  18.005  0.00  0.00    +0.000 A 
ATOM     27  C   UNL     1       9.487  13.172  17.406  0.00  0.00    +0.000 A 
BRANCH  22  29
ATOM     28  C   UNL     1      10.986  15.604  16.977  0.00  0.00    +0.000 C 
ATOM     29  O   UNL     1      11.570  14.322  16.785  0.00  0.00    +0.000 OA
ENDBRANCH  22  29
ENDBRANCH  20  25
ENDBRANCH   1  21
TORSDOF 5
ENDMDL
MODEL 7
REMARK VINA RESULT:      -7.5      2.791      9.933
REMARK  Name = 
REMARK  8 active torsions:
REMARK  status: ('A' for Active; 'I' for Inactive)
REMARK    1  A    between atoms: C_1  and  O_2
REMARK    2  A    between atoms: O_2  and  C_3
REMARK    3  A    between atoms: C_6  and  C_7
REMARK    4  A    between atoms: N_8  and  N_9
REMARK    5  A    between atoms: C_12  and  C_13
REMARK    6  A    between atoms: C_16  and  C_17
REMARK    7  A    between atoms: C_20  and  N_21
REMARK    8  A    between atoms: C_22  and  C_23
REMARK                            x       y       z     vdW  Elec       q    Type
REMARK                         _______ _______ _______ _____ _____    ______ ____
ROOT
ATOM      1  N   UNL     1       2.305   7.358  20.069  0.00  0.00    +0.000 N 
ATOM      2  C   UNL     1       1.410   8.343  19.784  0.00  0.00    +0.000 A 
ATOM      3  N   UNL     1       0.851   9.111  20.684  0.00  0.00    +0.000 NA
ATOM      4  C   UNL     1       0.008  10.047  20.080  0.00  0.00    +0.000 A 
ATOM      5  C   UNL     1      -0.089   9.938  18.696  0.00  0.00    +0.000 A 
ATOM      6  S   UNL     1       0.951   8.693  18.170  0.00  0.00    +0.000 S 
ATOM      7  H   UNL     1       2.520   7.254  21.058  0.00  0.00    +0.000 HD
ENDROOT
BRANCH   4   8
ATOM      8  C   UNL     1      -0.730  10.942  20.971  0.00  0.00    +0.000 A 
ATOM      9  C   UNL     1      -0.684  10.698  22.357  0.00  0.00    +0.000 A 
ATOM     10  C   UNL     1      -1.562  11.338  23.236  0.00  0.00    +0.000 A 
ATOM     11  C   UNL     1      -2.505  12.242  22.742  0.00  0.00    +0.000 A 
ATOM     12  C   UNL     1      -3.551  12.828  23.641  0.00  0.00    +0.000 C 
ATOM     13  C   UNL     1      -2.492  12.559  21.377  0.00  0.00    +0.000 A 
ATOM     14  C   UNL     1      -1.617  11.909  20.496  0.00  0.00    +0.000 A 
ENDBRANCH   4   8
BRANCH   5  15
ATOM     15  N   UNL     1      -0.789  10.677  17.746  0.00  0.00    +0.000 N 
ATOM     16  C   UNL     1      -2.070  10.372  17.295  0.00  0.00    +0.000 C 
ATOM     17  C   UNL     1      -2.555  11.271  16.192  0.00  0.00    +0.000 C 
ATOM     18  O   UNL     1      -2.828   9.507  17.728  0.00  0.00    +0.000 OA
ATOM     19  H   UNL     1      -0.364  11.542  17.440  0.00  0.00    +0.000 HD
ENDBRANCH   5  15
BRANCH   1  21
ATOM     20  C   UNL     1       3.710   5.857  19.096  0.00  0.00    +0.000 C 
ATOM     21  N   UNL     1       3.265   7.063  19.158  0.00  0.00    +0.000 NA
BRANCH  20  25
ATOM     22  C   UNL     1       6.789   5.031  16.258  0.00  0.00    +0.000 A 
ATOM     23  C   UNL     1       5.583   5.590  15.839  0.00  0.00    +0.000 A 
ATOM     24  C   UNL     1       4.580   5.860  16.763  0.00  0.00    +0.000 A 
ATOM     25  C   UNL     1       4.774   5.556  18.119  0.00  0.00    +0.000 A 
ATOM     26  C   UNL     1       5.968   4.976  18.544  0.00  0.00    +0.000 A 
ATOM     27  C   UNL     1       6.975   4.712  17.607  0.00  0.00    +0.000 A 
BRANCH  22  29
ATOM     28  C   UNL     1       7.147   4.736  13.943  0.00  0.00    +0.000 C 
ATOM     29  O   UNL     1       7.689   4.795  15.256  0.00  0.00    +0.000 OA
ENDBRANCH  22  29
ENDBRANCH  20  25
ENDBRANCH   1  21
TORSDOF 5
ENDMDL
MODEL 8
REMARK VINA RESULT:      -7.4      3.618     10.442
REMARK  Name = 
REMARK  8 active torsions:
REMARK  status: ('A' for Active; 'I' for Inactive)
REMARK    1  A    between atoms: C_1  and  O_2
REMARK    2  A    between atoms: O_2  and  C_3
REMARK    3  A    between atoms: C_6  and  C_7
REMARK    4  A    between atoms: N_8  and  N_9
REMARK    5  A    between atoms: C_12  and  C_13
REMARK    6  A    between atoms: C_16  and  C_17
REMARK    7  A    between atoms: C_20  and  N_21
REMARK    8  A    between atoms: C_22  and  C_23
REMARK                            x       y       z     vdW  Elec       q    Type
REMARK                         _______ _______ _______ _____ _____    ______ ____
ROOT
ATOM      1  N   UNL     1       5.869   6.630  16.033  0.00  0.00    +0.000 N 
ATOM      2  C   UNL     1       4.866   6.413  16.928  0.00  0.00    +0.000 A 
ATOM      3  N   UNL     1       4.067   7.347  17.376  0.00  0.00    +0.000 NA
ATOM      4  C   UNL     1       3.121   6.809  18.253  0.00  0.00    +0.000 A 
ATOM      5  C   UNL     1       3.255   5.444  18.489  0.00  0.00    +0.000 A 
ATOM      6  S   UNL     1       4.535   4.845  17.537  0.00  0.00    +0.000 S 
ATOM      7  H   UNL     1       5.959   7.594  15.724  0.00  0.00    +0.000 HD
ENDROOT
BRANCH   4   8
ATOM      8  C   UNL     1       2.191   7.749  18.877  0.00  0.00    +0.000 A 
ATOM      9  C   UNL     1       1.755   8.860  18.130  0.00  0.00    +0.000 A 
ATOM     10  C   UNL     1       1.087   9.926  18.737  0.00  0.00    +0.000 A 
ATOM     11  C   UNL     1       0.838   9.900  20.111  0.00  0.00    +0.000 A 
ATOM     12  C   UNL     1       0.256  11.092  20.808  0.00  0.00    +0.000 C 
ATOM     13  C   UNL     1       1.184   8.756  20.842  0.00  0.00    +0.000 A 
ATOM     14  C   UNL     1       1.864   7.692  20.232  0.00  0.00    +0.000 A 
ENDBRANCH   4   8
BRANCH   5  15
ATOM     15  N   UNL     1       2.516   4.553  19.263  0.00  0.00    +0.000 N 
ATOM     16  C   UNL     1       1.471   3.768  18.783  0.00  0.00    +0.000 C 
ATOM     17  C   UNL     1       0.773   2.971  19.849  0.00  0.00    +0.000 C 
ATOM     18  O   UNL     1       1.114   3.633  17.615  0.00  0.00    +0.000 OA
ATOM     19  H   UNL     1       2.829   4.408  20.214  0.00  0.00    +0.000 HD
ENDBRANCH   5  15
BRANCH   1  21
ATOM     20  C   UNL     1       5.447   5.412  14.158  0.00  0.00    +0.000 C 
ATOM     21  N   UNL     1       6.205   5.634  15.175  0.00  0.00    +0.000 NA
BRANCH  20  25
ATOM     22  C   UNL     1       6.469   2.238  11.494  0.00  0.00    +0.000 A 
ATOM     23  C   UNL     1       5.141   2.439  11.866  0.00  0.00    +0.000 A 
ATOM     24  C   UNL     1       4.806   3.474  12.732  0.00  0.00    +0.000 A 
ATOM     25  C   UNL     1       5.809   4.309  13.248  0.00  0.00    +0.000 A 
ATOM     26  C   UNL     1       7.143   4.101  12.900  0.00  0.00    +0.000 A 
ATOM     27  C   UNL     1       7.470   3.060  12.023  0.00  0.00    +0.000 A 
BRANCH  22  29
ATOM     28  C   UNL     1       6.182  -0.074  11.109  0.00  0.00    +0.000 C 
ATOM     29  O   UNL     1       6.674   1.180  10.653  0.00  0.00    +0.000 OA
ENDBRANCH  22  29
ENDBRANCH  20  25
ENDBRANCH   1  21
TORSDOF 5
ENDMDL
MODEL 9
REMARK VINA RESULT:      -7.3      0.888      1.313
REMARK  Name = 
REMARK  8 active torsions:
REMARK  status: ('A' for Active; 'I' for Inactive)
REMARK    1  A    between atoms: C_1  and  O_2
REMARK    2  A    between atoms: O_2  and  C_3
REMARK    3  A    between atoms: C_6  and  C_7
REMARK    4  A    between atoms: N_8  and  N_9
REMARK    5  A    between atoms: C_12  and  C_13
REMARK    6  A    between atoms: C_16  and  C_17
REMARK    7  A    between atoms: C_20  and  N_21
REMARK    8  A    between atoms: C_22  and  C_23
REMARK                            x       y       z     vdW  Elec       q    Type
REMARK                         _______ _______ _______ _____ _____    ______ ____
ROOT
ATOM      1  N   UNL     1       1.242   9.462  19.131  0.00  0.00    +0.000 N 
ATOM      2  C   UNL     1       1.726   8.215  19.383  0.00  0.00    +0.000 A 
ATOM      3  N   UNL     1       2.627   7.614  18.648  0.00  0.00    +0.000 NA
ATOM      4  C   UNL     1       2.944   6.361  19.181  0.00  0.00    +0.000 A 
ATOM      5  C   UNL     1       2.223   6.012  20.319  0.00  0.00    +0.000 A 
ATOM      6  S   UNL     1       1.203   7.311  20.743  0.00  0.00    +0.000 S 
ATOM      7  H   UNL     1       1.639   9.913  18.311  0.00  0.00    +0.000 HD
ENDROOT
BRANCH   4   8
ATOM      8  C   UNL     1       3.902   5.550  18.432  0.00  0.00    +0.000 A 
ATOM      9  C   UNL     1       5.277   5.748  18.663  0.00  0.00    +0.000 A 
ATOM     10  C   UNL     1       6.242   5.208  17.810  0.00  0.00    +0.000 A 
ATOM     11  C   UNL     1       5.848   4.452  16.704  0.00  0.00    +0.000 A 
ATOM     12  C   UNL     1       6.853   3.987  15.694  0.00  0.00    +0.000 C 
ATOM     13  C   UNL     1       4.487   4.172  16.523  0.00  0.00    +0.000 A 
ATOM     14  C   UNL     1       3.520   4.724  17.375  0.00  0.00    +0.000 A 
ENDBRANCH   4   8
BRANCH   5  15
ATOM     15  N   UNL     1       2.259   4.888  21.140  0.00  0.00    +0.000 N 
ATOM     16  C   UNL     1       1.604   3.690  20.869  0.00  0.00    +0.000 C 
ATOM     17  C   UNL     1       1.720   2.672  21.968  0.00  0.00    +0.000 C 
ATOM     18  O   UNL     1       1.008   3.382  19.838  0.00  0.00    +0.000 OA
ATOM     19  H   UNL     1       2.880   4.927  21.937  0.00  0.00    +0.000 HD
ENDBRANCH   5  15
BRANCH   1  21
ATOM     20  C   UNL     1       0.059  11.224  19.950  0.00  0.00    +0.000 C 
ATOM     21  N   UNL     1       0.851  10.234  20.176  0.00  0.00    +0.000 NA
BRANCH  20  25
ATOM     22  C   UNL     1      -1.069  13.646  23.278  0.00  0.00    +0.000 A 
ATOM     23  C   UNL     1      -1.590  12.361  23.140  0.00  0.00    +0.000 A 
ATOM     24  C   UNL     1      -1.222  11.570  22.057  0.00  0.00    +0.000 A 
ATOM     25  C   UNL     1      -0.337  12.072  21.091  0.00  0.00    +0.000 A 
ATOM     26  C   UNL     1       0.172  13.365  21.209  0.00  0.00    +0.000 A 
ATOM     27  C   UNL     1      -0.200  14.152  22.305  0.00  0.00    +0.000 A 
BRANCH  22  29
ATOM     28  C   UNL     1      -1.033  15.660  24.510  0.00  0.00    +0.000 C 
ATOM     29  O   UNL     1      -1.519  14.332  24.372  0.00  0.00    +0.000 OA
ENDBRANCH  22  29
ENDBRANCH  20  25
ENDBRANCH   1  21
TORSDOF 5
ENDMDL
