MODEL 1
REMARK VINA RESULT:      -6.6      0.000      0.000
REMARK  Name = 
REMARK  4 active torsions:
REMARK  status: ('A' for Active; 'I' for Inactive)
REMARK    1  A    between atoms: N_7  and  C_8
REMARK    2  A    between atoms: C_8  and  C_9
REMARK    3  A    between atoms: C_10  and  C_11
REMARK    4  A    between atoms: C_11  and  N_12
REMARK                            x       y       z     vdW  Elec       q    Type
REMARK                         _______ _______ _______ _____ _____    ______ ____
ROOT
ATOM      1  C   UNL     1       6.034   4.146  16.156  0.00  0.00    +0.000 C 
ENDROOT
BRANCH   1   8
ATOM      2  O   UNL     1       7.978   4.292  18.313  0.00  0.00    +0.000 OA
ATOM      3  C   UNL     1       7.475   5.285  17.826  0.00  0.00    +0.000 C 
ATOM      4  C   UNL     1       7.769   6.686  18.267  0.00  0.00    +0.000 C 
ATOM      5  C   UNL     1       6.907   7.559  17.374  0.00  0.00    +0.000 C 
ATOM      6  C   UNL     1       6.139   6.587  16.527  0.00  0.00    +0.000 C 
ATOM      7  O   UNL     1       5.284   6.912  15.721  0.00  0.00    +0.000 OA
ATOM      8  N   UNL     1       6.548   5.323  16.825  0.00  0.00    +0.000 N 
ENDBRANCH   1   8
BRANCH   1   9
ATOM      9  C   UNL     1       4.701   3.742  16.762  0.00  0.00    +0.000 C 
ATOM     10  C   UNL     1       3.557   3.395  17.283  0.00  0.00    +0.000 C 
BRANCH  10  11
ATOM     11  C   UNL     1       2.224   2.991  17.891  0.00  0.00    +0.000 C 
BRANCH  11  12
ATOM     12  N   UNL     1       2.171   2.456  19.250  0.00  0.00    +0.000 NA
ATOM     13  C   UNL     1       0.843   2.805  19.818  0.00  0.00    +0.000 C 
ATOM     14  C   UNL     1       1.003   4.215  20.358  0.00  0.00    +0.000 C 
ATOM     15  C   UNL     1       2.393   4.173  20.956  0.00  0.00    +0.000 C 
ATOM     16  C   UNL     1       3.135   3.098  20.161  0.00  0.00    +0.000 C 
ENDBRANCH  11  12
ENDBRANCH  10  11
ENDBRANCH   1   9
TORSDOF 4
ENDMDL
MODEL 2
REMARK VINA RESULT:      -6.5      0.655      2.229
REMARK  Name = 
REMARK  4 active torsions:
REMARK  status: ('A' for Active; 'I' for Inactive)
REMARK    1  A    between atoms: N_7  and  C_8
REMARK    2  A    between atoms: C_8  and  C_9
REMARK    3  A    between atoms: C_10  and  C_11
REMARK    4  A    between atoms: C_11  and  N_12
REMARK                            x       y       z     vdW  Elec       q    Type
REMARK                         _______ _______ _______ _____ _____    ______ ____
ROOT
ATOM      1  C   UNL     1       5.955   4.121  16.191  0.00  0.00    +0.000 C 
ENDROOT
BRANCH   1   8
ATOM      2  O   UNL     1       5.326   6.907  15.645  0.00  0.00    +0.000 OA
ATOM      3  C   UNL     1       6.132   6.578  16.493  0.00  0.00    +0.000 C 
ATOM      4  C   UNL     1       6.905   7.540  17.343  0.00  0.00    +0.000 C 
ATOM      5  C   UNL     1       7.769   6.661  18.228  0.00  0.00    +0.000 C 
ATOM      6  C   UNL     1       7.468   5.262  17.777  0.00  0.00    +0.000 C 
ATOM      7  O   UNL     1       8.026   4.269  18.213  0.00  0.00    +0.000 OA
ATOM      8  N   UNL     1       6.506   5.306  16.814  0.00  0.00    +0.000 N 
ENDBRANCH   1   8
BRANCH   1   9
ATOM      9  C   UNL     1       4.662   3.722  16.883  0.00  0.00    +0.000 C 
ATOM     10  C   UNL     1       3.553   3.380  17.477  0.00  0.00    +0.000 C 
BRANCH  10  11
ATOM     11  C   UNL     1       2.260   2.982  18.171  0.00  0.00    +0.000 C 
BRANCH  11  12
ATOM     12  N   UNL     1       1.684   3.847  19.199  0.00  0.00    +0.000 NA
ATOM     13  C   UNL     1       2.765   4.177  20.163  0.00  0.00    +0.000 C 
ATOM     14  C   UNL     1       2.796   3.011  21.135  0.00  0.00    +0.000 C 
ATOM     15  C   UNL     1       1.325   2.702  21.312  0.00  0.00    +0.000 C 
ATOM     16  C   UNL     1       0.662   3.171  20.016  0.00  0.00    +0.000 C 
ENDBRANCH  11  12
ENDBRANCH  10  11
ENDBRANCH   1   9
TORSDOF 4
ENDMDL
MODEL 3
REMARK VINA RESULT:      -6.5      0.824      1.166
REMARK  Name = 
REMARK  4 active torsions:
REMARK  status: ('A' for Active; 'I' for Inactive)
REMARK    1  A    between atoms: N_7  and  C_8
REMARK    2  A    between atoms: C_8  and  C_9
REMARK    3  A    between atoms: C_10  and  C_11
REMARK    4  A    between atoms: C_11  and  N_12
REMARK                            x       y       z     vdW  Elec       q    Type
REMARK                         _______ _______ _______ _____ _____    ______ ____
ROOT
ATOM      1  C   UNL     1       6.141   4.187  15.973  0.00  0.00    +0.000 C 
ENDROOT
BRANCH   1   8
ATOM      2  O   UNL     1       8.034   4.270  18.178  0.00  0.00    +0.000 OA
ATOM      3  C   UNL     1       7.504   5.272  17.740  0.00  0.00    +0.000 C 
ATOM      4  C   UNL     1       7.736   6.653  18.273  0.00  0.00    +0.000 C 
ATOM      5  C   UNL     1       6.859   7.547  17.416  0.00  0.00    +0.000 C 
ATOM      6  C   UNL     1       6.146   6.602  16.494  0.00  0.00    +0.000 C 
ATOM      7  O   UNL     1       5.295   6.945  15.691  0.00  0.00    +0.000 OA
ATOM      8  N   UNL     1       6.596   5.338  16.724  0.00  0.00    +0.000 N 
ENDBRANCH   1   8
BRANCH   1   9
ATOM      9  C   UNL     1       4.955   3.544  16.672  0.00  0.00    +0.000 C 
ATOM     10  C   UNL     1       3.937   2.993  17.272  0.00  0.00    +0.000 C 
BRANCH  10  11
ATOM     11  C   UNL     1       2.750   2.350  17.971  0.00  0.00    +0.000 C 
BRANCH  11  12
ATOM     12  N   UNL     1       1.463   3.041  18.014  0.00  0.00    +0.000 NA
ATOM     13  C   UNL     1       1.741   4.496  18.135  0.00  0.00    +0.000 C 
ATOM     14  C   UNL     1       1.941   4.737  19.621  0.00  0.00    +0.000 C 
ATOM     15  C   UNL     1       0.887   3.841  20.235  0.00  0.00    +0.000 C 
ATOM     16  C   UNL     1       0.675   2.721  19.216  0.00  0.00    +0.000 C 
ENDBRANCH  11  12
ENDBRANCH  10  11
ENDBRANCH   1   9
TORSDOF 4
ENDMDL
MODEL 4
REMARK VINA RESULT:      -6.5      2.211      6.099
REMARK  Name = 
REMARK  4 active torsions:
REMARK  status: ('A' for Active; 'I' for Inactive)
REMARK    1  A    between atoms: N_7  and  C_8
REMARK    2  A    between atoms: C_8  and  C_9
REMARK    3  A    between atoms: C_10  and  C_11
REMARK    4  A    between atoms: C_11  and  N_12
REMARK                            x       y       z     vdW  Elec       q    Type
REMARK                         _______ _______ _______ _____ _____    ______ ____
ROOT
ATOM      1  C   UNL     1       3.543   2.219  17.838  0.00  0.00    +0.000 C 
ENDROOT
BRANCH   1   8
ATOM      2  O   UNL     1       0.739   2.822  18.316  0.00  0.00    +0.000 OA
ATOM      3  C   UNL     1       1.544   2.722  19.221  0.00  0.00    +0.000 C 
ATOM      4  C   UNL     1       1.213   2.906  20.670  0.00  0.00    +0.000 C 
ATOM      5  C   UNL     1       2.530   2.690  21.394  0.00  0.00    +0.000 C 
ATOM      6  C   UNL     1       3.527   2.456  20.298  0.00  0.00    +0.000 C 
ATOM      7  O   UNL     1       4.723   2.307  20.484  0.00  0.00    +0.000 OA
ATOM      8  N   UNL     1       2.877   2.458  19.102  0.00  0.00    +0.000 N 
ENDBRANCH   1   8
BRANCH   1   9
ATOM      9  C   UNL     1       4.178   3.503  17.333  0.00  0.00    +0.000 C 
ATOM     10  C   UNL     1       4.723   4.606  16.899  0.00  0.00    +0.000 C 
BRANCH  10  11
ATOM     11  C   UNL     1       5.358   5.890  16.392  0.00  0.00    +0.000 C 
BRANCH  11  12
ATOM     12  N   UNL     1       6.813   6.009  16.323  0.00  0.00    +0.000 NA
ATOM     13  C   UNL     1       7.392   4.829  17.015  0.00  0.00    +0.000 C 
ATOM     14  C   UNL     1       7.412   5.204  18.487  0.00  0.00    +0.000 C 
ATOM     15  C   UNL     1       7.815   6.663  18.439  0.00  0.00    +0.000 C 
ATOM     16  C   UNL     1       7.335   7.163  17.076  0.00  0.00    +0.000 C 
ENDBRANCH  11  12
ENDBRANCH  10  11
ENDBRANCH   1   9
TORSDOF 4
ENDMDL
MODEL 5
REMARK VINA RESULT:      -6.5      0.657      2.044
REMARK  Name = 
REMARK  4 active torsions:
REMARK  status: ('A' for Active; 'I' for Inactive)
REMARK    1  A    between atoms: N_7  and  C_8
REMARK    2  A    between atoms: C_8  and  C_9
REMARK    3  A    between atoms: C_10  and  C_11
REMARK    4  A    between atoms: C_11  and  N_12
REMARK                            x       y       z     vdW  Elec       q    Type
REMARK                         _______ _______ _______ _____ _____    ______ ____
ROOT
ATOM      1  C   UNL     1       5.786   4.181  16.542  0.00  0.00    +0.000 C 
ENDROOT
BRANCH   1   8
ATOM      2  O   UNL     1       5.366   6.947  15.753  0.00  0.00    +0.000 OA
ATOM      3  C   UNL     1       6.165   6.633  16.612  0.00  0.00    +0.000 C 
ATOM      4  C   UNL     1       7.033   7.602  17.355  0.00  0.00    +0.000 C 
ATOM      5  C   UNL     1       7.848   6.739  18.301  0.00  0.00    +0.000 C 
ATOM      6  C   UNL     1       7.426   5.334  17.987  0.00  0.00    +0.000 C 
ATOM      7  O   UNL     1       7.915   4.343  18.503  0.00  0.00    +0.000 OA
ATOM      8  N   UNL     1       6.446   5.369  17.043  0.00  0.00    +0.000 N 
ENDBRANCH   1   8
BRANCH   1   9
ATOM      9  C   UNL     1       4.352   4.132  17.040  0.00  0.00    +0.000 C 
ATOM     10  C   UNL     1       3.121   4.090  17.468  0.00  0.00    +0.000 C 
BRANCH  10  11
ATOM     11  C   UNL     1       1.686   4.040  17.967  0.00  0.00    +0.000 C 
BRANCH  11  12
ATOM     12  N   UNL     1       1.284   3.025  18.939  0.00  0.00    +0.000 NA
ATOM     13  C   UNL     1       0.773   3.733  20.141  0.00  0.00    +0.000 C 
ATOM     14  C   UNL     1       2.008   4.058  20.963  0.00  0.00    +0.000 C 
ATOM     15  C   UNL     1       2.845   2.808  20.789  0.00  0.00    +0.000 C 
ATOM     16  C   UNL     1       2.416   2.226  19.442  0.00  0.00    +0.000 C 
ENDBRANCH  11  12
ENDBRANCH  10  11
ENDBRANCH   1   9
TORSDOF 4
ENDMDL
MODEL 6
REMARK VINA RESULT:      -6.5      0.357      1.913
REMARK  Name = 
REMARK  4 active torsions:
REMARK  status: ('A' for Active; 'I' for Inactive)
REMARK    1  A    between atoms: N_7  and  C_8
REMARK    2  A    between atoms: C_8  and  C_9
REMARK    3  A    between atoms: C_10  and  C_11
REMARK    4  A    between atoms: C_11  and  N_12
REMARK                            x       y       z     vdW  Elec       q    Type
REMARK                         _______ _______ _______ _____ _____    ______ ____
ROOT
ATOM      1  C   UNL     1       5.837   4.085  16.068  0.00  0.00    +0.000 C 
ENDROOT
BRANCH   1   8
ATOM      2  O   UNL     1       5.114   6.874  15.679  0.00  0.00    +0.000 OA
ATOM      3  C   UNL     1       5.958   6.530  16.481  0.00  0.00    +0.000 C 
ATOM      4  C   UNL     1       6.735   7.472  17.349  0.00  0.00    +0.000 C 
ATOM      5  C   UNL     1       7.654   6.578  18.160  0.00  0.00    +0.000 C 
ATOM      6  C   UNL     1       7.375   5.193  17.653  0.00  0.00    +0.000 C 
ATOM      7  O   UNL     1       7.975   4.198  18.022  0.00  0.00    +0.000 OA
ATOM      8  N   UNL     1       6.378   5.255  16.728  0.00  0.00    +0.000 N 
ENDBRANCH   1   8
BRANCH   1   9
ATOM      9  C   UNL     1       4.637   3.560  16.840  0.00  0.00    +0.000 C 
ATOM     10  C   UNL     1       3.609   3.110  17.502  0.00  0.00    +0.000 C 
BRANCH  10  11
ATOM     11  C   UNL     1       2.410   2.585  18.275  0.00  0.00    +0.000 C 
BRANCH  11  12
ATOM     12  N   UNL     1       2.457   2.506  19.734  0.00  0.00    +0.000 NA
ATOM     13  C   UNL     1       1.079   2.734  20.240  0.00  0.00    +0.000 C 
ATOM     14  C   UNL     1       0.928   4.244  20.307  0.00  0.00    +0.000 C 
ATOM     15  C   UNL     1       2.289   4.679  20.810  0.00  0.00    +0.000 C 
ATOM     16  C   UNL     1       3.252   3.585  20.345  0.00  0.00    +0.000 C 
ENDBRANCH  11  12
ENDBRANCH  10  11
ENDBRANCH   1   9
TORSDOF 4
ENDMDL
MODEL 7
REMARK VINA RESULT:      -6.4      0.686      1.230
REMARK  Name = 
REMARK  4 active torsions:
REMARK  status: ('A' for Active; 'I' for Inactive)
REMARK    1  A    between atoms: N_7  and  C_8
REMARK    2  A    between atoms: C_8  and  C_9
REMARK    3  A    between atoms: C_10  and  C_11
REMARK    4  A    between atoms: C_11  and  N_12
REMARK                            x       y       z     vdW  Elec       q    Type
REMARK                         _______ _______ _______ _____ _____    ______ ____
ROOT
ATOM      1  C   UNL     1       5.950   4.183  16.265  0.00  0.00    +0.000 C 
ENDROOT
BRANCH   1   8
ATOM      2  O   UNL     1       7.964   4.342  18.356  0.00  0.00    +0.000 OA
ATOM      3  C   UNL     1       7.484   5.333  17.842  0.00  0.00    +0.000 C 
ATOM      4  C   UNL     1       7.843   6.738  18.215  0.00  0.00    +0.000 C 
ATOM      5  C   UNL     1       6.987   7.606  17.312  0.00  0.00    +0.000 C 
ATOM      6  C   UNL     1       6.157   6.631  16.529  0.00  0.00    +0.000 C 
ATOM      7  O   UNL     1       5.290   6.955  15.736  0.00  0.00    +0.000 OA
ATOM      8  N   UNL     1       6.527   5.365  16.868  0.00  0.00    +0.000 N 
ENDBRANCH   1   8
BRANCH   1   9
ATOM      9  C   UNL     1       4.617   3.861  16.920  0.00  0.00    +0.000 C 
ATOM     10  C   UNL     1       3.473   3.585  17.482  0.00  0.00    +0.000 C 
BRANCH  10  11
ATOM     11  C   UNL     1       2.140   3.263  18.137  0.00  0.00    +0.000 C 
BRANCH  11  12
ATOM     12  N   UNL     1       1.681   4.043  19.285  0.00  0.00    +0.000 NA
ATOM     13  C   UNL     1       2.829   4.182  20.219  0.00  0.00    +0.000 C 
ATOM     14  C   UNL     1       2.816   2.912  21.052  0.00  0.00    +0.000 C 
ATOM     15  C   UNL     1       1.335   2.691  21.275  0.00  0.00    +0.000 C 
ATOM     16  C   UNL     1       0.650   3.351  20.078  0.00  0.00    +0.000 C 
ENDBRANCH  11  12
ENDBRANCH  10  11
ENDBRANCH   1   9
TORSDOF 4
ENDMDL
MODEL 8
REMARK VINA RESULT:      -6.4      2.324      5.969
REMARK  Name = 
REMARK  4 active torsions:
REMARK  status: ('A' for Active; 'I' for Inactive)
REMARK    1  A    between atoms: N_7  and  C_8
REMARK    2  A    between atoms: C_8  and  C_9
REMARK    3  A    between atoms: C_10  and  C_11
REMARK    4  A    between atoms: C_11  and  N_12
REMARK                            x       y       z     vdW  Elec       q    Type
REMARK                         _______ _______ _______ _____ _____    ______ ____
ROOT
ATOM      1  C   UNL     1       3.482   2.035  18.217  0.00  0.00    +0.000 C 
ENDROOT
BRANCH   1   8
ATOM      2  O   UNL     1       4.412   2.222  20.965  0.00  0.00    +0.000 OA
ATOM      3  C   UNL     1       3.259   2.448  20.655  0.00  0.00    +0.000 C 
ATOM      4  C   UNL     1       2.181   2.830  21.623  0.00  0.00    +0.000 C 
ATOM      5  C   UNL     1       0.939   2.995  20.767  0.00  0.00    +0.000 C 
ATOM      6  C   UNL     1       1.386   2.638  19.380  0.00  0.00    +0.000 C 
ATOM      7  O   UNL     1       0.643   2.589  18.415  0.00  0.00    +0.000 OA
ATOM      8  N   UNL     1       2.722   2.374  19.402  0.00  0.00    +0.000 N 
ENDBRANCH   1   8
BRANCH   1   9
ATOM      9  C   UNL     1       4.193   3.267  17.684  0.00  0.00    +0.000 C 
ATOM     10  C   UNL     1       4.803   4.325  17.227  0.00  0.00    +0.000 C 
BRANCH  10  11
ATOM     11  C   UNL     1       5.514   5.558  16.693  0.00  0.00    +0.000 C 
BRANCH  11  12
ATOM     12  N   UNL     1       6.975   5.604  16.661  0.00  0.00    +0.000 NA
ATOM     13  C   UNL     1       7.474   4.718  17.744  0.00  0.00    +0.000 C 
ATOM     14  C   UNL     1       7.455   5.577  18.997  0.00  0.00    +0.000 C 
ATOM     15  C   UNL     1       7.924   6.918  18.472  0.00  0.00    +0.000 C 
ATOM     16  C   UNL     1       7.518   6.931  16.997  0.00  0.00    +0.000 C 
ENDBRANCH  11  12
ENDBRANCH  10  11
ENDBRANCH   1   9
TORSDOF 4
ENDMDL
MODEL 9
REMARK VINA RESULT:      -6.2      1.623      2.200
REMARK  Name = 
REMARK  4 active torsions:
REMARK  status: ('A' for Active; 'I' for Inactive)
REMARK    1  A    between atoms: N_7  and  C_8
REMARK    2  A    between atoms: C_8  and  C_9
REMARK    3  A    between atoms: C_10  and  C_11
REMARK    4  A    between atoms: C_11  and  N_12
REMARK                            x       y       z     vdW  Elec       q    Type
REMARK                         _______ _______ _______ _____ _____    ______ ____
ROOT
ATOM      1  C   UNL     1       6.164   5.577  18.586  0.00  0.00    +0.000 C 
ENDROOT
BRANCH   1   8
ATOM      2  O   UNL     1       8.173   4.123  17.068  0.00  0.00    +0.000 OA
ATOM      3  C   UNL     1       7.221   4.659  16.536  0.00  0.00    +0.000 C 
ATOM      4  C   UNL     1       6.965   4.657  15.060  0.00  0.00    +0.000 C 
ATOM      5  C   UNL     1       5.680   5.448  14.893  0.00  0.00    +0.000 C 
ATOM      6  C   UNL     1       5.329   5.893  16.282  0.00  0.00    +0.000 C 
ATOM      7  O   UNL     1       4.384   6.616  16.549  0.00  0.00    +0.000 OA
ATOM      8  N   UNL     1       6.236   5.374  17.155  0.00  0.00    +0.000 N 
ENDBRANCH   1   8
BRANCH   1   9
ATOM      9  C   UNL     1       5.286   4.511  19.220  0.00  0.00    +0.000 C 
ATOM     10  C   UNL     1       4.533   3.596  19.765  0.00  0.00    +0.000 C 
BRANCH  10  11
ATOM     11  C   UNL     1       3.654   2.531  20.399  0.00  0.00    +0.000 C 
BRANCH  11  12
ATOM     12  N   UNL     1       2.574   2.917  21.304  0.00  0.00    +0.000 NA
ATOM     13  C   UNL     1       1.316   2.327  20.777  0.00  0.00    +0.000 C 
ATOM     14  C   UNL     1       0.822   3.317  19.736  0.00  0.00    +0.000 C 
ATOM     15  C   UNL     1       1.136   4.648  20.385  0.00  0.00    +0.000 C 
ATOM     16  C   UNL     1       2.319   4.368  21.314  0.00  0.00    +0.000 C 
ENDBRANCH  11  12
ENDBRANCH  10  11
ENDBRANCH   1   9
TORSDOF 4
ENDMDL
