MODEL 1
REMARK VINA RESULT:      -7.5      0.000      0.000
REMARK  Name = 
REMARK  7 active torsions:
REMARK  status: ('A' for Active; 'I' for Inactive)
REMARK    1  A    between atoms: C_2  and  C_3
REMARK    2  A    between atoms: N_5  and  C_6
REMARK    3  A    between atoms: C_6  and  C_7
REMARK    4  A    between atoms: C_10  and  C_11
REMARK    5  A    between atoms: C_11  and  C_12
REMARK    6  A    between atoms: C_12  and  C_14
REMARK    7  A    between atoms: C_14  and  C_16
REMARK                            x       y       z     vdW  Elec       q    Type
REMARK                         _______ _______ _______ _____ _____    ______ ____
ROOT
ATOM      1  C   UNL     1       1.600   9.596  18.422  0.00  0.00    +0.000 C 
ATOM      2  C   UNL     1       2.118  10.783  18.049  0.00  0.00    +0.000 C 
ENDROOT
BRANCH   1   3
ATOM      3  C   UNL     1       0.688   9.498  19.634  0.00  0.00    +0.000 C 
ATOM      4  O   UNL     1       0.959   8.729  20.550  0.00  0.00    +0.000 OA
BRANCH   3   5
ATOM      5  C   UNL     1      -0.522  10.376  19.719  0.00  0.00    +0.000 A 
ATOM      6  C   UNL     1      -0.689  11.154  20.870  0.00  0.00    +0.000 A 
ATOM      7  C   UNL     1      -1.661  12.126  20.863  0.00  0.00    +0.000 A 
ATOM      8  N   UNL     1      -2.492  12.330  19.828  0.00  0.00    +0.000 NA
ATOM      9  C   UNL     1      -2.408  11.513  18.765  0.00  0.00    +0.000 A 
ATOM     10  C   UNL     1      -3.307  11.716  17.727  0.00  0.00    +0.000 A 
ATOM     11  C   UNL     1      -3.327  10.907  16.592  0.00  0.00    +0.000 A 
ATOM     12  C   UNL     1      -2.420   9.866  16.481  0.00  0.00    +0.000 A 
ATOM     13  C   UNL     1      -1.482   9.661  17.493  0.00  0.00    +0.000 A 
ATOM     14  C   UNL     1      -1.445  10.485  18.650  0.00  0.00    +0.000 A 
ENDBRANCH   3   5
ENDBRANCH   1   3
BRANCH   1  15
ATOM     15  C   UNL     1       1.839   8.267  17.702  0.00  0.00    +0.000 C 
BRANCH  15  21
ATOM     16  C   UNL     1       2.760   6.087  18.797  0.00  0.00    +0.000 C 
ATOM     17  C   UNL     1       4.099   5.423  19.230  0.00  0.00    +0.000 C 
ATOM     18  N   UNL     1       5.057   5.274  18.110  0.00  0.00    +0.000 NA
ATOM     19  C   UNL     1       5.350   6.570  17.495  0.00  0.00    +0.000 C 
ATOM     20  C   UNL     1       4.072   7.221  16.973  0.00  0.00    +0.000 C 
ATOM     21  C   UNL     1       3.085   7.455  18.130  0.00  0.00    +0.000 C 
BRANCH  16  23
ATOM     22  C   UNL     1       1.474   3.951  18.328  0.00  0.00    +0.000 C 
ATOM     23  C   UNL     1       1.974   5.125  17.923  0.00  0.00    +0.000 C 
ENDBRANCH  16  23
BRANCH  18  24
ATOM     24  C   UNL     1       6.271   4.578  18.560  0.00  0.00    +0.000 C 
ATOM     25  C   UNL     1       7.488   4.846  17.677  0.00  0.00    +0.000 C 
ENDBRANCH  18  24
ENDBRANCH  15  21
ENDBRANCH   1  15
TORSDOF 6
ENDMDL
MODEL 2
REMARK VINA RESULT:      -7.3      2.154      3.699
REMARK  Name = 
REMARK  7 active torsions:
REMARK  status: ('A' for Active; 'I' for Inactive)
REMARK    1  A    between atoms: C_2  and  C_3
REMARK    2  A    between atoms: N_5  and  C_6
REMARK    3  A    between atoms: C_6  and  C_7
REMARK    4  A    between atoms: C_10  and  C_11
REMARK    5  A    between atoms: C_11  and  C_12
REMARK    6  A    between atoms: C_12  and  C_14
REMARK    7  A    between atoms: C_14  and  C_16
REMARK                            x       y       z     vdW  Elec       q    Type
REMARK                         _______ _______ _______ _____ _____    ______ ____
ROOT
ATOM      1  C   UNL     1       0.934   9.639  18.368  0.00  0.00    +0.000 C 
ATOM      2  C   UNL     1      -0.229   9.564  17.690  0.00  0.00    +0.000 C 
ENDROOT
BRANCH   1   3
ATOM      3  C   UNL     1       1.121  10.673  19.467  0.00  0.00    +0.000 C 
ATOM      4  O   UNL     1       1.774  11.689  19.253  0.00  0.00    +0.000 OA
BRANCH   3   5
ATOM      5  C   UNL     1       0.472  10.458  20.798  0.00  0.00    +0.000 A 
ATOM      6  C   UNL     1       1.052   9.530  21.669  0.00  0.00    +0.000 A 
ATOM      7  C   UNL     1       0.607   9.492  22.970  0.00  0.00    +0.000 A 
ATOM      8  N   UNL     1      -0.393  10.261  23.430  0.00  0.00    +0.000 NA
ATOM      9  C   UNL     1      -1.027  11.074  22.569  0.00  0.00    +0.000 A 
ATOM     10  C   UNL     1      -2.085  11.827  23.059  0.00  0.00    +0.000 A 
ATOM     11  C   UNL     1      -2.830  12.680  22.246  0.00  0.00    +0.000 A 
ATOM     12  C   UNL     1      -2.510  12.792  20.902  0.00  0.00    +0.000 A 
ATOM     13  C   UNL     1      -1.428  12.074  20.391  0.00  0.00    +0.000 A 
ATOM     14  C   UNL     1      -0.655  11.210  21.212  0.00  0.00    +0.000 A 
ENDBRANCH   3   5
ENDBRANCH   1   3
BRANCH   1  15
ATOM     15  C   UNL     1       2.144   8.732  18.140  0.00  0.00    +0.000 C 
BRANCH  15  21
ATOM     16  C   UNL     1       2.822   6.259  17.670  0.00  0.00    +0.000 C 
ATOM     17  C   UNL     1       2.511   4.808  18.140  0.00  0.00    +0.000 C 
ATOM     18  N   UNL     1       2.754   4.607  19.587  0.00  0.00    +0.000 NA
ATOM     19  C   UNL     1       1.962   5.543  20.388  0.00  0.00    +0.000 C 
ATOM     20  C   UNL     1       2.300   6.986  20.022  0.00  0.00    +0.000 C 
ATOM     21  C   UNL     1       1.987   7.244  18.537  0.00  0.00    +0.000 C 
BRANCH  16  23
ATOM     22  C   UNL     1       5.095   6.691  16.630  0.00  0.00    +0.000 C 
ATOM     23  C   UNL     1       4.322   6.494  17.705  0.00  0.00    +0.000 C 
ENDBRANCH  16  23
BRANCH  18  24
ATOM     24  C   UNL     1       2.515   3.206  19.960  0.00  0.00    +0.000 C 
ATOM     25  C   UNL     1       2.171   3.021  21.437  0.00  0.00    +0.000 C 
ENDBRANCH  18  24
ENDBRANCH  15  21
ENDBRANCH   1  15
TORSDOF 6
ENDMDL
MODEL 3
REMARK VINA RESULT:      -7.3      2.596      4.704
REMARK  Name = 
REMARK  7 active torsions:
REMARK  status: ('A' for Active; 'I' for Inactive)
REMARK    1  A    between atoms: C_2  and  C_3
REMARK    2  A    between atoms: N_5  and  C_6
REMARK    3  A    between atoms: C_6  and  C_7
REMARK    4  A    between atoms: C_10  and  C_11
REMARK    5  A    between atoms: C_11  and  C_12
REMARK    6  A    between atoms: C_12  and  C_14
REMARK    7  A    between atoms: C_14  and  C_16
REMARK                            x       y       z     vdW  Elec       q    Type
REMARK                         _______ _______ _______ _____ _____    ______ ____
ROOT
ATOM      1  C   UNL     1       2.660   5.434  18.675  0.00  0.00    +0.000 C 
ATOM      2  C   UNL     1       1.794   4.674  17.976  0.00  0.00    +0.000 C 
ENDROOT
BRANCH   1   3
ATOM      3  C   UNL     1       2.163   6.359  19.775  0.00  0.00    +0.000 C 
ATOM      4  O   UNL     1       1.999   5.932  20.913  0.00  0.00    +0.000 OA
BRANCH   3   5
ATOM      5  C   UNL     1       1.912   7.802  19.467  0.00  0.00    +0.000 A 
ATOM      6  C   UNL     1       2.266   8.272  18.197  0.00  0.00    +0.000 A 
ATOM      7  C   UNL     1       1.835   9.523  17.824  0.00  0.00    +0.000 A 
ATOM      8  N   UNL     1       1.140  10.336  18.635  0.00  0.00    +0.000 NA
ATOM      9  C   UNL     1       0.893   9.933  19.892  0.00  0.00    +0.000 A 
ATOM     10  C   UNL     1       0.211  10.809  20.725  0.00  0.00    +0.000 A 
ATOM     11  C   UNL     1      -0.070  10.503  22.056  0.00  0.00    +0.000 A 
ATOM     12  C   UNL     1       0.336   9.284  22.575  0.00  0.00    +0.000 A 
ATOM     13  C   UNL     1       0.992   8.370  21.751  0.00  0.00    +0.000 A 
ATOM     14  C   UNL     1       1.275   8.666  20.390  0.00  0.00    +0.000 A 
ENDBRANCH   3   5
ENDBRANCH   1   3
BRANCH   1  15
ATOM     15  C   UNL     1       4.177   5.452  18.473  0.00  0.00    +0.000 C 
BRANCH  15  21
ATOM     16  C   UNL     1       5.671   6.324  16.522  0.00  0.00    +0.000 C 
ATOM     17  C   UNL     1       6.046   6.000  15.047  0.00  0.00    +0.000 C 
ATOM     18  N   UNL     1       6.610   4.641  14.881  0.00  0.00    +0.000 NA
ATOM     19  C   UNL     1       5.676   3.622  15.365  0.00  0.00    +0.000 C 
ATOM     20  C   UNL     1       5.348   3.848  16.838  0.00  0.00    +0.000 C 
ATOM     21  C   UNL     1       4.691   5.227  17.031  0.00  0.00    +0.000 C 
BRANCH  16  23
ATOM     22  C   UNL     1       7.554   7.638  17.601  0.00  0.00    +0.000 C 
ATOM     23  C   UNL     1       6.937   6.478  17.347  0.00  0.00    +0.000 C 
ENDBRANCH  16  23
BRANCH  18  24
ATOM     24  C   UNL     1       7.012   4.417  13.485  0.00  0.00    +0.000 C 
ATOM     25  C   UNL     1       6.063   3.497  12.720  0.00  0.00    +0.000 C 
ENDBRANCH  18  24
ENDBRANCH  15  21
ENDBRANCH   1  15
TORSDOF 6
ENDMDL
MODEL 4
REMARK VINA RESULT:      -7.3      1.209      1.410
REMARK  Name = 
REMARK  7 active torsions:
REMARK  status: ('A' for Active; 'I' for Inactive)
REMARK    1  A    between atoms: C_2  and  C_3
REMARK    2  A    between atoms: N_5  and  C_6
REMARK    3  A    between atoms: C_6  and  C_7
REMARK    4  A    between atoms: C_10  and  C_11
REMARK    5  A    between atoms: C_11  and  C_12
REMARK    6  A    between atoms: C_12  and  C_14
REMARK    7  A    between atoms: C_14  and  C_16
REMARK                            x       y       z     vdW  Elec       q    Type
REMARK                         _______ _______ _______ _____ _____    ______ ____
ROOT
ATOM      1  C   UNL     1       1.623   8.542  19.051  0.00  0.00    +0.000 C 
ATOM      2  C   UNL     1       1.427   8.235  20.349  0.00  0.00    +0.000 C 
ENDROOT
BRANCH   1   3
ATOM      3  C   UNL     1       1.336   9.944  18.538  0.00  0.00    +0.000 C 
ATOM      4  O   UNL     1       2.045  10.440  17.668  0.00  0.00    +0.000 OA
BRANCH   3   5
ATOM      5  C   UNL     1       0.160  10.699  19.074  0.00  0.00    +0.000 A 
ATOM      6  C   UNL     1       0.359  11.517  20.191  0.00  0.00    +0.000 A 
ATOM      7  C   UNL     1      -0.646  12.385  20.549  0.00  0.00    +0.000 A 
ATOM      8  N   UNL     1      -1.828  12.446  19.915  0.00  0.00    +0.000 NA
ATOM      9  C   UNL     1      -2.065  11.585  18.912  0.00  0.00    +0.000 A 
ATOM     10  C   UNL     1      -3.310  11.638  18.301  0.00  0.00    +0.000 A 
ATOM     11  C   UNL     1      -3.671  10.770  17.271  0.00  0.00    +0.000 A 
ATOM     12  C   UNL     1      -2.763   9.821  16.830  0.00  0.00    +0.000 A 
ATOM     13  C   UNL     1      -1.492   9.769  17.402  0.00  0.00    +0.000 A 
ATOM     14  C   UNL     1      -1.109  10.654  18.445  0.00  0.00    +0.000 A 
ENDBRANCH   3   5
ENDBRANCH   1   3
BRANCH   1  15
ATOM     15  C   UNL     1       2.144   7.574  17.988  0.00  0.00    +0.000 C 
BRANCH  15  21
ATOM     16  C   UNL     1       3.627   5.574  18.762  0.00  0.00    +0.000 C 
ATOM     17  C   UNL     1       5.119   5.183  18.971  0.00  0.00    +0.000 C 
ATOM     18  N   UNL     1       5.927   5.314  17.737  0.00  0.00    +0.000 NA
ATOM     19  C   UNL     1       5.866   6.680  17.212  0.00  0.00    +0.000 C 
ATOM     20  C   UNL     1       4.424   7.076  16.907  0.00  0.00    +0.000 C 
ATOM     21  C   UNL     1       3.575   7.020  18.189  0.00  0.00    +0.000 C 
BRANCH  16  23
ATOM     22  C   UNL     1       3.544   3.454  17.371  0.00  0.00    +0.000 C 
ATOM     23  C   UNL     1       2.943   4.524  17.904  0.00  0.00    +0.000 C 
ENDBRANCH  16  23
BRANCH  18  24
ATOM     24  C   UNL     1       7.306   4.864  17.974  0.00  0.00    +0.000 C 
ATOM     25  C   UNL     1       8.001   5.610  19.112  0.00  0.00    +0.000 C 
ENDBRANCH  18  24
ENDBRANCH  15  21
ENDBRANCH   1  15
TORSDOF 6
ENDMDL
MODEL 5
REMARK VINA RESULT:      -7.1      1.656      2.753
REMARK  Name = 
REMARK  7 active torsions:
REMARK  status: ('A' for Active; 'I' for Inactive)
REMARK    1  A    between atoms: C_2  and  C_3
REMARK    2  A    between atoms: N_5  and  C_6
REMARK    3  A    between atoms: C_6  and  C_7
REMARK    4  A    between atoms: C_10  and  C_11
REMARK    5  A    between atoms: C_11  and  C_12
REMARK    6  A    between atoms: C_12  and  C_14
REMARK    7  A    between atoms: C_14  and  C_16
REMARK                            x       y       z     vdW  Elec       q    Type
REMARK                         _______ _______ _______ _____ _____    ______ ____
ROOT
ATOM      1  C   UNL     1       1.448   9.558  17.990  0.00  0.00    +0.000 C 
ATOM      2  C   UNL     1       2.498  10.402  18.039  0.00  0.00    +0.000 C 
ENDROOT
BRANCH   1   3
ATOM      3  C   UNL     1       0.031  10.078  18.170  0.00  0.00    +0.000 C 
ATOM      4  O   UNL     1      -0.875   9.664  17.453  0.00  0.00    +0.000 OA
BRANCH   3   5
ATOM      5  C   UNL     1      -0.258  11.070  19.253  0.00  0.00    +0.000 A 
ATOM      6  C   UNL     1      -0.463  12.404  18.883  0.00  0.00    +0.000 A 
ATOM      7  C   UNL     1      -0.952  13.273  19.830  0.00  0.00    +0.000 A 
ATOM      8  N   UNL     1      -1.189  12.920  21.103  0.00  0.00    +0.000 NA
ATOM      9  C   UNL     1      -0.889  11.669  21.490  0.00  0.00    +0.000 A 
ATOM     10  C   UNL     1      -1.103  11.341  22.821  0.00  0.00    +0.000 A 
ATOM     11  C   UNL     1      -0.797  10.081  23.335  0.00  0.00    +0.000 A 
ATOM     12  C   UNL     1      -0.267   9.114  22.497  0.00  0.00    +0.000 A 
ATOM     13  C   UNL     1      -0.075   9.406  21.145  0.00  0.00    +0.000 A 
ATOM     14  C   UNL     1      -0.392  10.682  20.609  0.00  0.00    +0.000 A 
ENDBRANCH   3   5
ENDBRANCH   1   3
BRANCH   1  15
ATOM     15  C   UNL     1       1.542   8.051  17.746  0.00  0.00    +0.000 C 
BRANCH  15  21
ATOM     16  C   UNL     1       2.723   5.980  18.802  0.00  0.00    +0.000 C 
ATOM     17  C   UNL     1       4.140   5.451  19.167  0.00  0.00    +0.000 C 
ATOM     18  N   UNL     1       5.049   5.383  18.000  0.00  0.00    +0.000 NA
ATOM     19  C   UNL     1       5.184   6.694  17.362  0.00  0.00    +0.000 C 
ATOM     20  C   UNL     1       3.825   7.215  16.906  0.00  0.00    +0.000 C 
ATOM     21  C   UNL     1       2.881   7.366  18.112  0.00  0.00    +0.000 C 
BRANCH  16  23
ATOM     22  C   UNL     1       1.750   3.679  18.362  0.00  0.00    +0.000 C 
ATOM     23  C   UNL     1       1.989   4.938  17.976  0.00  0.00    +0.000 C 
ENDBRANCH  16  23
BRANCH  18  24
ATOM     24  C   UNL     1       6.345   4.810  18.388  0.00  0.00    +0.000 C 
ATOM     25  C   UNL     1       7.139   5.697  19.346  0.00  0.00    +0.000 C 
ENDBRANCH  18  24
ENDBRANCH  15  21
ENDBRANCH   1  15
TORSDOF 6
ENDMDL
MODEL 6
REMARK VINA RESULT:      -7.1      1.356      2.663
REMARK  Name = 
REMARK  7 active torsions:
REMARK  status: ('A' for Active; 'I' for Inactive)
REMARK    1  A    between atoms: C_2  and  C_3
REMARK    2  A    between atoms: N_5  and  C_6
REMARK    3  A    between atoms: C_6  and  C_7
REMARK    4  A    between atoms: C_10  and  C_11
REMARK    5  A    between atoms: C_11  and  C_12
REMARK    6  A    between atoms: C_12  and  C_14
REMARK    7  A    between atoms: C_14  and  C_16
REMARK                            x       y       z     vdW  Elec       q    Type
REMARK                         _______ _______ _______ _____ _____    ______ ____
ROOT
ATOM      1  C   UNL     1       1.633   8.450  19.008  0.00  0.00    +0.000 C 
ATOM      2  C   UNL     1       1.478   8.358  20.344  0.00  0.00    +0.000 C 
ENDROOT
BRANCH   1   3
ATOM      3  C   UNL     1       1.369   9.763  18.289  0.00  0.00    +0.000 C 
ATOM      4  O   UNL     1       2.235  10.263  17.579  0.00  0.00    +0.000 OA
BRANCH   3   5
ATOM      5  C   UNL     1       0.031  10.421  18.423  0.00  0.00    +0.000 A 
ATOM      6  C   UNL     1      -0.999   9.989  17.581  0.00  0.00    +0.000 A 
ATOM      7  C   UNL     1      -2.279  10.417  17.847  0.00  0.00    +0.000 A 
ATOM      8  N   UNL     1      -2.580  11.269  18.839  0.00  0.00    +0.000 NA
ATOM      9  C   UNL     1      -1.579  11.772  19.581  0.00  0.00    +0.000 A 
ATOM     10  C   UNL     1      -1.912  12.685  20.572  0.00  0.00    +0.000 A 
ATOM     11  C   UNL     1      -0.949  13.291  21.379  0.00  0.00    +0.000 A 
ATOM     12  C   UNL     1       0.388  12.975  21.198  0.00  0.00    +0.000 A 
ATOM     13  C   UNL     1       0.747  12.034  20.232  0.00  0.00    +0.000 A 
ATOM     14  C   UNL     1      -0.226  11.403  19.411  0.00  0.00    +0.000 A 
ENDBRANCH   3   5
ENDBRANCH   1   3
BRANCH   1  15
ATOM     15  C   UNL     1       2.083   7.308  18.094  0.00  0.00    +0.000 C 
BRANCH  15  21
ATOM     16  C   UNL     1       3.641   5.306  18.698  0.00  0.00    +0.000 C 
ATOM     17  C   UNL     1       5.144   4.963  18.903  0.00  0.00    +0.000 C 
ATOM     18  N   UNL     1       5.972   5.256  17.710  0.00  0.00    +0.000 NA
ATOM     19  C   UNL     1       5.858   6.665  17.326  0.00  0.00    +0.000 C 
ATOM     20  C   UNL     1       4.406   7.026  17.027  0.00  0.00    +0.000 C 
ATOM     21  C   UNL     1       3.534   6.800  18.275  0.00  0.00    +0.000 C 
BRANCH  16  23
ATOM     22  C   UNL     1       1.822   3.749  17.858  0.00  0.00    +0.000 C 
ATOM     23  C   UNL     1       3.024   4.322  17.719  0.00  0.00    +0.000 C 
ENDBRANCH  16  23
BRANCH  18  24
ATOM     24  C   UNL     1       7.365   4.846  17.936  0.00  0.00    +0.000 C 
ATOM     25  C   UNL     1       8.046   5.605  19.073  0.00  0.00    +0.000 C 
ENDBRANCH  18  24
ENDBRANCH  15  21
ENDBRANCH   1  15
TORSDOF 6
ENDMDL
MODEL 7
REMARK VINA RESULT:      -7.1      1.536      2.659
REMARK  Name = 
REMARK  7 active torsions:
REMARK  status: ('A' for Active; 'I' for Inactive)
REMARK    1  A    between atoms: C_2  and  C_3
REMARK    2  A    between atoms: N_5  and  C_6
REMARK    3  A    between atoms: C_6  and  C_7
REMARK    4  A    between atoms: C_10  and  C_11
REMARK    5  A    between atoms: C_11  and  C_12
REMARK    6  A    between atoms: C_12  and  C_14
REMARK    7  A    between atoms: C_14  and  C_16
REMARK                            x       y       z     vdW  Elec       q    Type
REMARK                         _______ _______ _______ _____ _____    ______ ____
ROOT
ATOM      1  C   UNL     1       0.838   8.942  20.342  0.00  0.00    +0.000 C 
ATOM      2  C   UNL     1       0.050   8.601  21.381  0.00  0.00    +0.000 C 
ENDROOT
BRANCH   1   3
ATOM      3  C   UNL     1       0.578  10.221  19.562  0.00  0.00    +0.000 C 
ATOM      4  O   UNL     1       1.466  10.719  18.878  0.00  0.00    +0.000 OA
BRANCH   3   5
ATOM      5  C   UNL     1      -0.782  10.845  19.604  0.00  0.00    +0.000 A 
ATOM      6  C   UNL     1      -1.106  11.636  20.712  0.00  0.00    +0.000 A 
ATOM      7  C   UNL     1      -2.252  12.395  20.656  0.00  0.00    +0.000 A 
ATOM      8  N   UNL     1      -3.101  12.372  19.617  0.00  0.00    +0.000 NA
ATOM      9  C   UNL     1      -2.851  11.531  18.600  0.00  0.00    +0.000 A 
ATOM     10  C   UNL     1      -3.767  11.494  17.558  0.00  0.00    +0.000 A 
ATOM     11  C   UNL     1      -3.620  10.636  16.469  0.00  0.00    +0.000 A 
ATOM     12  C   UNL     1      -2.524   9.790  16.411  0.00  0.00    +0.000 A 
ATOM     13  C   UNL     1      -1.569   9.832  17.427  0.00  0.00    +0.000 A 
ATOM     14  C   UNL     1      -1.703  10.709  18.537  0.00  0.00    +0.000 A 
ENDBRANCH   3   5
ENDBRANCH   1   3
BRANCH   1  15
ATOM     15  C   UNL     1       2.042   8.136  19.850  0.00  0.00    +0.000 C 
BRANCH  15  21
ATOM     16  C   UNL     1       2.386   6.219  18.115  0.00  0.00    +0.000 C 
ATOM     17  C   UNL     1       1.995   4.736  17.858  0.00  0.00    +0.000 C 
ATOM     18  N   UNL     1       2.414   3.830  18.952  0.00  0.00    +0.000 NA
ATOM     19  C   UNL     1       1.843   4.254  20.232  0.00  0.00    +0.000 C 
ATOM     20  C   UNL     1       2.275   5.678  20.571  0.00  0.00    +0.000 C 
ATOM     21  C   UNL     1       1.787   6.653  19.485  0.00  0.00    +0.000 C 
BRANCH  16  23
ATOM     22  C   UNL     1       4.621   6.047  16.928  0.00  0.00    +0.000 C 
ATOM     23  C   UNL     1       3.892   6.374  18.002  0.00  0.00    +0.000 C 
ENDBRANCH  16  23
BRANCH  18  24
ATOM     24  C   UNL     1       2.084   2.436  18.623  0.00  0.00    +0.000 C 
ATOM     25  C   UNL     1       3.309   1.579  18.314  0.00  0.00    +0.000 C 
ENDBRANCH  18  24
ENDBRANCH  15  21
ENDBRANCH   1  15
TORSDOF 6
ENDMDL
MODEL 8
REMARK VINA RESULT:      -7.1      1.197      1.638
REMARK  Name = 
REMARK  7 active torsions:
REMARK  status: ('A' for Active; 'I' for Inactive)
REMARK    1  A    between atoms: C_2  and  C_3
REMARK    2  A    between atoms: N_5  and  C_6
REMARK    3  A    between atoms: C_6  and  C_7
REMARK    4  A    between atoms: C_10  and  C_11
REMARK    5  A    between atoms: C_11  and  C_12
REMARK    6  A    between atoms: C_12  and  C_14
REMARK    7  A    between atoms: C_14  and  C_16
REMARK                            x       y       z     vdW  Elec       q    Type
REMARK                         _______ _______ _______ _____ _____    ______ ____
ROOT
ATOM      1  C   UNL     1       0.930   9.154  20.810  0.00  0.00    +0.000 C 
ATOM      2  C   UNL     1       1.143   9.333  22.129  0.00  0.00    +0.000 C 
ENDROOT
BRANCH   1   3
ATOM      3  C   UNL     1       0.651  10.344  19.905  0.00  0.00    +0.000 C 
ATOM      4  O   UNL     1       1.538  10.795  19.188  0.00  0.00    +0.000 OA
BRANCH   3   5
ATOM      5  C   UNL     1      -0.724  10.933  19.866  0.00  0.00    +0.000 A 
ATOM      6  C   UNL     1      -1.132  11.718  20.950  0.00  0.00    +0.000 A 
ATOM      7  C   UNL     1      -2.291  12.448  20.826  0.00  0.00    +0.000 A 
ATOM      8  N   UNL     1      -3.078  12.401  19.739  0.00  0.00    +0.000 NA
ATOM      9  C   UNL     1      -2.748  11.564  18.741  0.00  0.00    +0.000 A 
ATOM     10  C   UNL     1      -3.601  11.502  17.648  0.00  0.00    +0.000 A 
ATOM     11  C   UNL     1      -3.370  10.646  16.573  0.00  0.00    +0.000 A 
ATOM     12  C   UNL     1      -2.252   9.828  16.581  0.00  0.00    +0.000 A 
ATOM     13  C   UNL     1      -1.358   9.896  17.651  0.00  0.00    +0.000 A 
ATOM     14  C   UNL     1      -1.578  10.772  18.748  0.00  0.00    +0.000 A 
ENDBRANCH   3   5
ENDBRANCH   1   3
BRANCH   1  15
ATOM     15  C   UNL     1       0.955   7.804  20.091  0.00  0.00    +0.000 C 
BRANCH  15  21
ATOM     16  C   UNL     1       2.699   5.870  19.966  0.00  0.00    +0.000 C 
ATOM     17  C   UNL     1       4.120   5.556  19.415  0.00  0.00    +0.000 C 
ATOM     18  N   UNL     1       4.230   5.758  17.952  0.00  0.00    +0.000 NA
ATOM     19  C   UNL     1       3.874   7.130  17.584  0.00  0.00    +0.000 C 
ATOM     20  C   UNL     1       2.450   7.455  18.027  0.00  0.00    +0.000 C 
ATOM     21  C   UNL     1       2.326   7.324  19.555  0.00  0.00    +0.000 C 
BRANCH  16  23
ATOM     22  C   UNL     1       1.008   4.007  20.295  0.00  0.00    +0.000 C 
ATOM     23  C   UNL     1       1.725   4.805  19.494  0.00  0.00    +0.000 C 
ENDBRANCH  16  23
BRANCH  18  24
ATOM     24  C   UNL     1       5.568   5.378  17.478  0.00  0.00    +0.000 C 
ATOM     25  C   UNL     1       6.445   6.574  17.112  0.00  0.00    +0.000 C 
ENDBRANCH  18  24
ENDBRANCH  15  21
ENDBRANCH   1  15
TORSDOF 6
ENDMDL
MODEL 9
REMARK VINA RESULT:      -7.1      1.723      8.145
REMARK  Name = 
REMARK  7 active torsions:
REMARK  status: ('A' for Active; 'I' for Inactive)
REMARK    1  A    between atoms: C_2  and  C_3
REMARK    2  A    between atoms: N_5  and  C_6
REMARK    3  A    between atoms: C_6  and  C_7
REMARK    4  A    between atoms: C_10  and  C_11
REMARK    5  A    between atoms: C_11  and  C_12
REMARK    6  A    between atoms: C_12  and  C_14
REMARK    7  A    between atoms: C_14  and  C_16
REMARK                            x       y       z     vdW  Elec       q    Type
REMARK                         _______ _______ _______ _____ _____    ______ ____
ROOT
ATOM      1  C   UNL     1       2.433   7.871  18.533  0.00  0.00    +0.000 C 
ATOM      2  C   UNL     1       2.201   7.438  19.788  0.00  0.00    +0.000 C 
ENDROOT
BRANCH   1   3
ATOM      3  C   UNL     1       3.397   7.122  17.625  0.00  0.00    +0.000 C 
ATOM      4  O   UNL     1       3.680   7.573  16.520  0.00  0.00    +0.000 OA
BRANCH   3   5
ATOM      5  C   UNL     1       4.025   5.851  18.106  0.00  0.00    +0.000 A 
ATOM      6  C   UNL     1       5.382   5.879  18.445  0.00  0.00    +0.000 A 
ATOM      7  C   UNL     1       5.911   4.791  19.100  0.00  0.00    +0.000 A 
ATOM      8  N   UNL     1       5.204   3.685  19.380  0.00  0.00    +0.000 NA
ATOM      9  C   UNL     1       3.931   3.610  18.958  0.00  0.00    +0.000 A 
ATOM     10  C   UNL     1       3.236   2.438  19.222  0.00  0.00    +0.000 A 
ATOM     11  C   UNL     1       1.921   2.244  18.801  0.00  0.00    +0.000 A 
ATOM     12  C   UNL     1       1.273   3.249  18.101  0.00  0.00    +0.000 A 
ATOM     13  C   UNL     1       1.937   4.451  17.853  0.00  0.00    +0.000 A 
ATOM     14  C   UNL     1       3.274   4.664  18.285  0.00  0.00    +0.000 A 
ENDBRANCH   3   5
ENDBRANCH   1   3
BRANCH   1  15
ATOM     15  C   UNL     1       1.782   9.096  17.889  0.00  0.00    +0.000 C 
BRANCH  15  21
ATOM     16  C   UNL     1       1.093  11.068  19.450  0.00  0.00    +0.000 C 
ATOM     17  C   UNL     1      -0.126  11.606  20.254  0.00  0.00    +0.000 C 
ATOM     18  N   UNL     1      -1.313  11.855  19.404  0.00  0.00    +0.000 NA
ATOM     19  C   UNL     1      -1.715  10.638  18.694  0.00  0.00    +0.000 C 
ATOM     20  C   UNL     1      -0.576  10.123  17.820  0.00  0.00    +0.000 C 
ATOM     21  C   UNL     1       0.649   9.785  18.689  0.00  0.00    +0.000 C 
BRANCH  16  23
ATOM     22  C   UNL     1       2.301  13.254  19.007  0.00  0.00    +0.000 C 
ATOM     23  C   UNL     1       1.647  12.172  18.567  0.00  0.00    +0.000 C 
ENDBRANCH  16  23
BRANCH  18  24
ATOM     24  C   UNL     1      -2.407  12.428  20.201  0.00  0.00    +0.000 C 
ATOM     25  C   UNL     1      -2.034  13.741  20.887  0.00  0.00    +0.000 C 
ENDBRANCH  18  24
ENDBRANCH  15  21
ENDBRANCH   1  15
TORSDOF 6
ENDMDL
