MODEL 1
REMARK VINA RESULT:      -6.1      0.000      0.000
REMARK  Name = 
REMARK  25 active torsions:
REMARK  status: ('A' for Active; 'I' for Inactive)
REMARK    1  A    between atoms: C_1  and  C_2
REMARK    2  A    between atoms: C_2  and  C_3
REMARK    3  A    between atoms: C_3  and  C_4
REMARK    4  A    between atoms: C_4  and  C_5
REMARK    5  A    between atoms: C_5  and  C_6
REMARK    6  A    between atoms: C_6  and  C_7
REMARK    7  A    between atoms: C_7  and  C_8
REMARK    8  A    between atoms: C_8  and  C_9
REMARK    9  A    between atoms: C_9  and  C_10
REMARK   10  A    between atoms: C_10  and  C_11
REMARK   11  A    between atoms: C_11  and  C_12
REMARK   12  A    between atoms: C_12  and  C_13
REMARK   13  A    between atoms: C_13  and  C_14
REMARK   14  A    between atoms: C_14  and  C_15
REMARK   15  A    between atoms: C_15  and  C_16
REMARK   16  A    between atoms: C_16  and  N_17
REMARK   17  A    between atoms: N_17  and  C_18
REMARK   18  A    between atoms: N_17  and  C_24
REMARK   19  A    between atoms: C_18  and  C_19
REMARK   20  A    between atoms: C_19  and  O_21
REMARK   21  A    between atoms: O_21  and  C_22
REMARK   22  A    between atoms: C_22  and  C_23
REMARK   23  A    between atoms: C_27  and  C_28
REMARK   24  A    between atoms: C_28  and  O_30
REMARK   25  A    between atoms: O_30  and  C_31
REMARK                            x       y       z     vdW  Elec       q    Type
REMARK                         _______ _______ _______ _____ _____    ______ ____
ROOT
ATOM      1  N   UNL     1       2.594   6.235  19.834  0.00  0.00    +0.000 N 
ENDROOT
BRANCH   1   2
ATOM      2  C   UNL     1       1.985   7.507  19.858  0.00  0.00    +0.000 A 
ATOM      3  C   UNL     1       1.935   8.370  18.724  0.00  0.00    +0.000 A 
ATOM      4  C   UNL     1       1.255   9.599  18.736  0.00  0.00    +0.000 A 
ATOM      5  C   UNL     1       0.607  10.018  19.886  0.00  0.00    +0.000 A 
ATOM      6  C   UNL     1       0.662   9.209  21.005  0.00  0.00    +0.000 A 
ATOM      7  C   UNL     1       1.315   7.974  20.988  0.00  0.00    +0.000 A 
BRANCH   5   8
ATOM      8  C   UNL     1      -0.093  11.311  19.883  0.00  0.00    +0.000 C 
ATOM      9  O   UNL     1      -0.723  11.758  18.928  0.00  0.00    +0.000 OA
BRANCH   8  10
ATOM     10  O   UNL     1       0.062  11.935  21.083  0.00  0.00    +0.000 OA
ATOM     11  C   UNL     1       0.580  13.263  20.997  0.00  0.00    +0.000 C 
ENDBRANCH   8  10
ENDBRANCH   5   8
ENDBRANCH   1   2
BRANCH   1  12
ATOM     12  C   UNL     1       1.996   5.170  20.725  0.00  0.00    +0.000 C 
BRANCH  12  13
ATOM     13  C   UNL     1       1.566   3.815  20.142  0.00  0.00    +0.000 C 
ATOM     14  O   UNL     1       0.433   3.389  20.066  0.00  0.00    +0.000 OA
BRANCH  13  15
ATOM     15  O   UNL     1       2.665   3.094  19.719  0.00  0.00    +0.000 OA
BRANCH  15  16
ATOM     16  C   UNL     1       2.481   2.295  18.520  0.00  0.00    +0.000 C 
ATOM     17  C   UNL     1       3.802   1.798  17.948  0.00  0.00    +0.000 C 
ENDBRANCH  15  16
ENDBRANCH  13  15
ENDBRANCH  12  13
ENDBRANCH   1  12
BRANCH   1  18
ATOM     18  C   UNL     1       3.927   6.138  19.203  0.00  0.00    +0.000 C 
BRANCH  18  19
ATOM     19  C   UNL     1       3.768   5.778  17.701  0.00  0.00    +0.000 C 
BRANCH  19  20
ATOM     20  C   UNL     1       4.345   6.739  16.656  0.00  0.00    +0.000 C 
BRANCH  20  21
ATOM     21  C   UNL     1       5.126   6.017  15.570  0.00  0.00    +0.000 C 
BRANCH  21  22
ATOM     22  C   UNL     1       5.097   4.505  15.761  0.00  0.00    +0.000 C 
BRANCH  22  23
ATOM     23  C   UNL     1       6.489   3.901  15.920  0.00  0.00    +0.000 C 
BRANCH  23  24
ATOM     24  C   UNL     1       7.409   4.962  16.491  0.00  0.00    +0.000 C 
BRANCH  24  25
ATOM     25  C   UNL     1       7.494   4.882  18.004  0.00  0.00    +0.000 C 
BRANCH  25  26
ATOM     26  C   UNL     1       7.643   6.291  18.556  0.00  0.00    +0.000 C 
BRANCH  26  27
ATOM     27  C   UNL     1       7.943   7.277  17.441  0.00  0.00    +0.000 C 
BRANCH  27  28
ATOM     28  C   UNL     1       7.571   8.688  17.876  0.00  0.00    +0.000 C 
BRANCH  28  29
ATOM     29  C   UNL     1       8.782   9.384  18.481  0.00  0.00    +0.000 C 
BRANCH  29  30
ATOM     30  C   UNL     1       8.818  10.851  18.077  0.00  0.00    +0.000 C 
BRANCH  30  31
ATOM     31  C   UNL     1      10.206  11.436  18.314  0.00  0.00    +0.000 C 
BRANCH  31  33
ATOM     32  C   UNL     1      11.166  13.746  18.128  0.00  0.00    +0.000 C 
ATOM     33  C   UNL     1      10.118  12.877  18.802  0.00  0.00    +0.000 C 
ENDBRANCH  31  33
ENDBRANCH  30  31
ENDBRANCH  29  30
ENDBRANCH  28  29
ENDBRANCH  27  28
ENDBRANCH  26  27
ENDBRANCH  25  26
ENDBRANCH  24  25
ENDBRANCH  23  24
ENDBRANCH  22  23
ENDBRANCH  21  22
ENDBRANCH  20  21
ENDBRANCH  19  20
ENDBRANCH  18  19
ENDBRANCH   1  18
TORSDOF 22
ENDMDL
MODEL 2
REMARK VINA RESULT:      -5.9      3.921      6.819
REMARK  Name = 
REMARK  25 active torsions:
REMARK  status: ('A' for Active; 'I' for Inactive)
REMARK    1  A    between atoms: C_1  and  C_2
REMARK    2  A    between atoms: C_2  and  C_3
REMARK    3  A    between atoms: C_3  and  C_4
REMARK    4  A    between atoms: C_4  and  C_5
REMARK    5  A    between atoms: C_5  and  C_6
REMARK    6  A    between atoms: C_6  and  C_7
REMARK    7  A    between atoms: C_7  and  C_8
REMARK    8  A    between atoms: C_8  and  C_9
REMARK    9  A    between atoms: C_9  and  C_10
REMARK   10  A    between atoms: C_10  and  C_11
REMARK   11  A    between atoms: C_11  and  C_12
REMARK   12  A    between atoms: C_12  and  C_13
REMARK   13  A    between atoms: C_13  and  C_14
REMARK   14  A    between atoms: C_14  and  C_15
REMARK   15  A    between atoms: C_15  and  C_16
REMARK   16  A    between atoms: C_16  and  N_17
REMARK   17  A    between atoms: N_17  and  C_18
REMARK   18  A    between atoms: N_17  and  C_24
REMARK   19  A    between atoms: C_18  and  C_19
REMARK   20  A    between atoms: C_19  and  O_21
REMARK   21  A    between atoms: O_21  and  C_22
REMARK   22  A    between atoms: C_22  and  C_23
REMARK   23  A    between atoms: C_27  and  C_28
REMARK   24  A    between atoms: C_28  and  O_30
REMARK   25  A    between atoms: O_30  and  C_31
REMARK                            x       y       z     vdW  Elec       q    Type
REMARK                         _______ _______ _______ _____ _____    ______ ____
ROOT
ATOM      1  N   UNL     1       6.136   5.747  17.186  0.00  0.00    +0.000 N 
ENDROOT
BRANCH   1   2
ATOM      2  C   UNL     1       5.055   5.051  17.767  0.00  0.00    +0.000 A 
ATOM      3  C   UNL     1       3.700   5.244  17.370  0.00  0.00    +0.000 A 
ATOM      4  C   UNL     1       2.640   4.487  17.897  0.00  0.00    +0.000 A 
ATOM      5  C   UNL     1       2.894   3.514  18.849  0.00  0.00    +0.000 A 
ATOM      6  C   UNL     1       4.198   3.325  19.266  0.00  0.00    +0.000 A 
ATOM      7  C   UNL     1       5.257   4.057  18.724  0.00  0.00    +0.000 A 
BRANCH   5   8
ATOM      8  C   UNL     1       1.772   2.737  19.395  0.00  0.00    +0.000 C 
ATOM      9  O   UNL     1       0.706   2.551  18.814  0.00  0.00    +0.000 OA
BRANCH   8  10
ATOM     10  O   UNL     1       2.086   2.259  20.632  0.00  0.00    +0.000 OA
ATOM     11  C   UNL     1       1.368   2.872  21.703  0.00  0.00    +0.000 C 
ENDBRANCH   8  10
ENDBRANCH   5   8
ENDBRANCH   1   2
BRANCH   1  12
ATOM     12  C   UNL     1       6.287   5.651  15.685  0.00  0.00    +0.000 C 
BRANCH  12  13
ATOM     13  C   UNL     1       6.252   4.285  14.983  0.00  0.00    +0.000 C 
ATOM     14  O   UNL     1       5.977   3.219  15.492  0.00  0.00    +0.000 OA
BRANCH  13  15
ATOM     15  O   UNL     1       6.612   4.408  13.655  0.00  0.00    +0.000 OA
BRANCH  15  16
ATOM     16  C   UNL     1       5.879   3.576  12.717  0.00  0.00    +0.000 C 
ATOM     17  C   UNL     1       6.794   2.916  11.693  0.00  0.00    +0.000 C 
ENDBRANCH  15  16
ENDBRANCH  13  15
ENDBRANCH  12  13
ENDBRANCH   1  12
BRANCH   1  18
ATOM     18  C   UNL     1       7.192   6.233  18.098  0.00  0.00    +0.000 C 
BRANCH  18  19
ATOM     19  C   UNL     1       7.664   7.641  17.647  0.00  0.00    +0.000 C 
BRANCH  19  20
ATOM     20  C   UNL     1       8.587   8.434  18.580  0.00  0.00    +0.000 C 
BRANCH  20  21
ATOM     21  C   UNL     1       8.691   9.899  18.187  0.00  0.00    +0.000 C 
BRANCH  21  22
ATOM     22  C   UNL     1       9.074  10.777  19.373  0.00  0.00    +0.000 C 
BRANCH  22  23
ATOM     23  C   UNL     1      10.569  11.075  19.430  0.00  0.00    +0.000 C 
BRANCH  23  24
ATOM     24  C   UNL     1      11.046  11.406  18.030  0.00  0.00    +0.000 C 
BRANCH  24  25
ATOM     25  C   UNL     1      11.756  12.746  17.977  0.00  0.00    +0.000 C 
BRANCH  25  26
ATOM     26  C   UNL     1      10.957  13.682  17.084  0.00  0.00    +0.000 C 
BRANCH  26  27
ATOM     27  C   UNL     1       9.627  14.034  17.726  0.00  0.00    +0.000 C 
BRANCH  27  28
ATOM     28  C   UNL     1       9.510  15.542  17.895  0.00  0.00    +0.000 C 
BRANCH  28  29
ATOM     29  C   UNL     1       8.106  15.909  18.353  0.00  0.00    +0.000 C 
BRANCH  29  30
ATOM     30  C   UNL     1       7.539  14.833  19.269  0.00  0.00    +0.000 C 
BRANCH  30  31
ATOM     31  C   UNL     1       7.927  15.107  20.718  0.00  0.00    +0.000 C 
BRANCH  31  33
ATOM     32  C   UNL     1      10.120  14.114  21.425  0.00  0.00    +0.000 C 
ATOM     33  C   UNL     1       8.618  13.898  21.337  0.00  0.00    +0.000 C 
ENDBRANCH  31  33
ENDBRANCH  30  31
ENDBRANCH  29  30
ENDBRANCH  28  29
ENDBRANCH  27  28
ENDBRANCH  26  27
ENDBRANCH  25  26
ENDBRANCH  24  25
ENDBRANCH  23  24
ENDBRANCH  22  23
ENDBRANCH  21  22
ENDBRANCH  20  21
ENDBRANCH  19  20
ENDBRANCH  18  19
ENDBRANCH   1  18
TORSDOF 22
ENDMDL
MODEL 3
REMARK VINA RESULT:      -5.9      3.696      6.802
REMARK  Name = 
REMARK  25 active torsions:
REMARK  status: ('A' for Active; 'I' for Inactive)
REMARK    1  A    between atoms: C_1  and  C_2
REMARK    2  A    between atoms: C_2  and  C_3
REMARK    3  A    between atoms: C_3  and  C_4
REMARK    4  A    between atoms: C_4  and  C_5
REMARK    5  A    between atoms: C_5  and  C_6
REMARK    6  A    between atoms: C_6  and  C_7
REMARK    7  A    between atoms: C_7  and  C_8
REMARK    8  A    between atoms: C_8  and  C_9
REMARK    9  A    between atoms: C_9  and  C_10
REMARK   10  A    between atoms: C_10  and  C_11
REMARK   11  A    between atoms: C_11  and  C_12
REMARK   12  A    between atoms: C_12  and  C_13
REMARK   13  A    between atoms: C_13  and  C_14
REMARK   14  A    between atoms: C_14  and  C_15
REMARK   15  A    between atoms: C_15  and  C_16
REMARK   16  A    between atoms: C_16  and  N_17
REMARK   17  A    between atoms: N_17  and  C_18
REMARK   18  A    between atoms: N_17  and  C_24
REMARK   19  A    between atoms: C_18  and  C_19
REMARK   20  A    between atoms: C_19  and  O_21
REMARK   21  A    between atoms: O_21  and  C_22
REMARK   22  A    between atoms: C_22  and  C_23
REMARK   23  A    between atoms: C_27  and  C_28
REMARK   24  A    between atoms: C_28  and  O_30
REMARK   25  A    between atoms: O_30  and  C_31
REMARK                            x       y       z     vdW  Elec       q    Type
REMARK                         _______ _______ _______ _____ _____    ______ ____
ROOT
ATOM      1  N   UNL     1       6.259   4.579  16.666  0.00  0.00    +0.000 N 
ENDROOT
BRANCH   1   2
ATOM      2  C   UNL     1       5.082   4.199  17.345  0.00  0.00    +0.000 A 
ATOM      3  C   UNL     1       3.793   4.205  16.736  0.00  0.00    +0.000 A 
ATOM      4  C   UNL     1       2.641   3.747  17.395  0.00  0.00    +0.000 A 
ATOM      5  C   UNL     1       2.730   3.274  18.693  0.00  0.00    +0.000 A 
ATOM      6  C   UNL     1       3.966   3.280  19.313  0.00  0.00    +0.000 A 
ATOM      7  C   UNL     1       5.118   3.710  18.651  0.00  0.00    +0.000 A 
BRANCH   5   8
ATOM      8  C   UNL     1       1.513   2.805  19.371  0.00  0.00    +0.000 C 
ATOM      9  O   UNL     1       0.680   2.057  18.865  0.00  0.00    +0.000 OA
BRANCH   8  10
ATOM     10  O   UNL     1       1.444   3.321  20.629  0.00  0.00    +0.000 OA
ATOM     11  C   UNL     1       1.183   4.724  20.680  0.00  0.00    +0.000 C 
ENDBRANCH   8  10
ENDBRANCH   5   8
ENDBRANCH   1   2
BRANCH   1  12
ATOM     12  C   UNL     1       6.564   3.866  15.369  0.00  0.00    +0.000 C 
BRANCH  12  13
ATOM     13  C   UNL     1       7.105   4.644  14.159  0.00  0.00    +0.000 C 
ATOM     14  O   UNL     1       7.852   5.599  14.191  0.00  0.00    +0.000 OA
BRANCH  13  15
ATOM     15  O   UNL     1       6.599   4.129  12.982  0.00  0.00    +0.000 OA
BRANCH  15  16
ATOM     16  C   UNL     1       5.240   3.622  13.040  0.00  0.00    +0.000 C 
ATOM     17  C   UNL     1       4.642   3.411  11.654  0.00  0.00    +0.000 C 
ENDBRANCH  15  16
ENDBRANCH  13  15
ENDBRANCH  12  13
ENDBRANCH   1  12
BRANCH   1  18
ATOM     18  C   UNL     1       7.238   5.391  17.419  0.00  0.00    +0.000 C 
BRANCH  18  19
ATOM     19  C   UNL     1       6.677   6.823  17.628  0.00  0.00    +0.000 C 
BRANCH  19  20
ATOM     20  C   UNL     1       7.581   8.015  17.293  0.00  0.00    +0.000 C 
BRANCH  20  21
ATOM     21  C   UNL     1       8.452   8.432  18.468  0.00  0.00    +0.000 C 
BRANCH  21  22
ATOM     22  C   UNL     1       8.876   9.893  18.368  0.00  0.00    +0.000 C 
BRANCH  22  23
ATOM     23  C   UNL     1       9.360  10.461  19.698  0.00  0.00    +0.000 C 
BRANCH  23  24
ATOM     24  C   UNL     1       9.625  11.943  19.518  0.00  0.00    +0.000 C 
BRANCH  24  25
ATOM     25  C   UNL     1       9.204  12.428  18.143  0.00  0.00    +0.000 C 
BRANCH  25  26
ATOM     26  C   UNL     1      10.355  13.214  17.534  0.00  0.00    +0.000 C 
BRANCH  26  27
ATOM     27  C   UNL     1      10.148  14.706  17.727  0.00  0.00    +0.000 C 
BRANCH  27  28
ATOM     28  C   UNL     1       8.682  14.998  18.012  0.00  0.00    +0.000 C 
BRANCH  28  29
ATOM     29  C   UNL     1       8.516  16.440  18.473  0.00  0.00    +0.000 C 
BRANCH  29  30
ATOM     30  C   UNL     1       7.953  16.493  19.887  0.00  0.00    +0.000 C 
BRANCH  30  31
ATOM     31  C   UNL     1       8.123  15.146  20.579  0.00  0.00    +0.000 C 
BRANCH  31  33
ATOM     32  C   UNL     1      10.528  15.079  21.291  0.00  0.00    +0.000 C 
ATOM     33  C   UNL     1       9.091  15.251  21.752  0.00  0.00    +0.000 C 
ENDBRANCH  31  33
ENDBRANCH  30  31
ENDBRANCH  29  30
ENDBRANCH  28  29
ENDBRANCH  27  28
ENDBRANCH  26  27
ENDBRANCH  25  26
ENDBRANCH  24  25
ENDBRANCH  23  24
ENDBRANCH  22  23
ENDBRANCH  21  22
ENDBRANCH  20  21
ENDBRANCH  19  20
ENDBRANCH  18  19
ENDBRANCH   1  18
TORSDOF 22
ENDMDL
MODEL 4
REMARK VINA RESULT:      -5.8      3.480      6.865
REMARK  Name = 
REMARK  25 active torsions:
REMARK  status: ('A' for Active; 'I' for Inactive)
REMARK    1  A    between atoms: C_1  and  C_2
REMARK    2  A    between atoms: C_2  and  C_3
REMARK    3  A    between atoms: C_3  and  C_4
REMARK    4  A    between atoms: C_4  and  C_5
REMARK    5  A    between atoms: C_5  and  C_6
REMARK    6  A    between atoms: C_6  and  C_7
REMARK    7  A    between atoms: C_7  and  C_8
REMARK    8  A    between atoms: C_8  and  C_9
REMARK    9  A    between atoms: C_9  and  C_10
REMARK   10  A    between atoms: C_10  and  C_11
REMARK   11  A    between atoms: C_11  and  C_12
REMARK   12  A    between atoms: C_12  and  C_13
REMARK   13  A    between atoms: C_13  and  C_14
REMARK   14  A    between atoms: C_14  and  C_15
REMARK   15  A    between atoms: C_15  and  C_16
REMARK   16  A    between atoms: C_16  and  N_17
REMARK   17  A    between atoms: N_17  and  C_18
REMARK   18  A    between atoms: N_17  and  C_24
REMARK   19  A    between atoms: C_18  and  C_19
REMARK   20  A    between atoms: C_19  and  O_21
REMARK   21  A    between atoms: O_21  and  C_22
REMARK   22  A    between atoms: C_22  and  C_23
REMARK   23  A    between atoms: C_27  and  C_28
REMARK   24  A    between atoms: C_28  and  O_30
REMARK   25  A    between atoms: O_30  and  C_31
REMARK                            x       y       z     vdW  Elec       q    Type
REMARK                         _______ _______ _______ _____ _____    ______ ____
ROOT
ATOM      1  N   UNL     1       5.175   6.209  16.511  0.00  0.00    +0.000 N 
ENDROOT
BRANCH   1   2
ATOM      2  C   UNL     1       4.448   5.423  17.430  0.00  0.00    +0.000 A 
ATOM      3  C   UNL     1       4.788   4.074  17.742  0.00  0.00    +0.000 A 
ATOM      4  C   UNL     1       4.108   3.328  18.719  0.00  0.00    +0.000 A 
ATOM      5  C   UNL     1       3.055   3.898  19.414  0.00  0.00    +0.000 A 
ATOM      6  C   UNL     1       2.693   5.197  19.111  0.00  0.00    +0.000 A 
ATOM      7  C   UNL     1       3.384   5.950  18.160  0.00  0.00    +0.000 A 
BRANCH   5   8
ATOM      8  C   UNL     1       2.350   3.100  20.427  0.00  0.00    +0.000 C 
ATOM      9  O   UNL     1       2.888   2.580  21.401  0.00  0.00    +0.000 OA
BRANCH   8  10
ATOM     10  O   UNL     1       1.024   3.019  20.127  0.00  0.00    +0.000 OA
ATOM     11  C   UNL     1       0.725   2.229  18.976  0.00  0.00    +0.000 C 
ENDBRANCH   8  10
ENDBRANCH   5   8
ENDBRANCH   1   2
BRANCH   1  12
ATOM     12  C   UNL     1       5.361   5.644  15.121  0.00  0.00    +0.000 C 
BRANCH  12  13
ATOM     13  C   UNL     1       6.660   4.917  14.742  0.00  0.00    +0.000 C 
ATOM     14  O   UNL     1       7.785   5.367  14.808  0.00  0.00    +0.000 OA
BRANCH  13  15
ATOM     15  O   UNL     1       6.390   3.647  14.271  0.00  0.00    +0.000 OA
BRANCH  15  16
ATOM     16  C   UNL     1       5.740   3.574  12.974  0.00  0.00    +0.000 C 
ATOM     17  C   UNL     1       6.725   3.281  11.849  0.00  0.00    +0.000 C 
ENDBRANCH  15  16
ENDBRANCH  13  15
ENDBRANCH  12  13
ENDBRANCH   1  12
BRANCH   1  18
ATOM     18  C   UNL     1       5.951   7.340  17.059  0.00  0.00    +0.000 C 
BRANCH  18  19
ATOM     19  C   UNL     1       7.221   6.804  17.772  0.00  0.00    +0.000 C 
BRANCH  19  20
ATOM     20  C   UNL     1       8.241   7.817  18.303  0.00  0.00    +0.000 C 
BRANCH  20  21
ATOM     21  C   UNL     1       7.910   9.245  17.896  0.00  0.00    +0.000 C 
BRANCH  21  22
ATOM     22  C   UNL     1       9.093  10.182  18.105  0.00  0.00    +0.000 C 
BRANCH  22  23
ATOM     23  C   UNL     1       9.364  10.475  19.578  0.00  0.00    +0.000 C 
BRANCH  23  24
ATOM     24  C   UNL     1      10.699  11.183  19.687  0.00  0.00    +0.000 C 
BRANCH  24  25
ATOM     25  C   UNL     1      10.608  12.432  20.544  0.00  0.00    +0.000 C 
BRANCH  25  26
ATOM     26  C   UNL     1      11.582  13.465  20.000  0.00  0.00    +0.000 C 
BRANCH  26  27
ATOM     27  C   UNL     1      11.041  14.870  20.197  0.00  0.00    +0.000 C 
BRANCH  27  28
ATOM     28  C   UNL     1      11.166  15.665  18.905  0.00  0.00    +0.000 C 
BRANCH  28  29
ATOM     29  C   UNL     1       9.843  15.650  18.152  0.00  0.00    +0.000 C 
BRANCH  29  30
ATOM     30  C   UNL     1       8.670  15.628  19.123  0.00  0.00    +0.000 C 
BRANCH  30  31
ATOM     31  C   UNL     1       7.691  14.520  18.751  0.00  0.00    +0.000 C 
BRANCH  31  33
ATOM     32  C   UNL     1       5.383  14.849  17.826  0.00  0.00    +0.000 C 
ATOM     33  C   UNL     1       6.257  14.929  19.066  0.00  0.00    +0.000 C 
ENDBRANCH  31  33
ENDBRANCH  30  31
ENDBRANCH  29  30
ENDBRANCH  28  29
ENDBRANCH  27  28
ENDBRANCH  26  27
ENDBRANCH  25  26
ENDBRANCH  24  25
ENDBRANCH  23  24
ENDBRANCH  22  23
ENDBRANCH  21  22
ENDBRANCH  20  21
ENDBRANCH  19  20
ENDBRANCH  18  19
ENDBRANCH   1  18
TORSDOF 22
ENDMDL
MODEL 5
REMARK VINA RESULT:      -5.7      3.425      7.534
REMARK  Name = 
REMARK  25 active torsions:
REMARK  status: ('A' for Active; 'I' for Inactive)
REMARK    1  A    between atoms: C_1  and  C_2
REMARK    2  A    between atoms: C_2  and  C_3
REMARK    3  A    between atoms: C_3  and  C_4
REMARK    4  A    between atoms: C_4  and  C_5
REMARK    5  A    between atoms: C_5  and  C_6
REMARK    6  A    between atoms: C_6  and  C_7
REMARK    7  A    between atoms: C_7  and  C_8
REMARK    8  A    between atoms: C_8  and  C_9
REMARK    9  A    between atoms: C_9  and  C_10
REMARK   10  A    between atoms: C_10  and  C_11
REMARK   11  A    between atoms: C_11  and  C_12
REMARK   12  A    between atoms: C_12  and  C_13
REMARK   13  A    between atoms: C_13  and  C_14
REMARK   14  A    between atoms: C_14  and  C_15
REMARK   15  A    between atoms: C_15  and  C_16
REMARK   16  A    between atoms: C_16  and  N_17
REMARK   17  A    between atoms: N_17  and  C_18
REMARK   18  A    between atoms: N_17  and  C_24
REMARK   19  A    between atoms: C_18  and  C_19
REMARK   20  A    between atoms: C_19  and  O_21
REMARK   21  A    between atoms: O_21  and  C_22
REMARK   22  A    between atoms: C_22  and  C_23
REMARK   23  A    between atoms: C_27  and  C_28
REMARK   24  A    between atoms: C_28  and  O_30
REMARK   25  A    between atoms: O_30  and  C_31
REMARK                            x       y       z     vdW  Elec       q    Type
REMARK                         _______ _______ _______ _____ _____    ______ ____
ROOT
ATOM      1  N   UNL     1       6.354   5.376  17.523  0.00  0.00    +0.000 N 
ENDROOT
BRANCH   1   2
ATOM      2  C   UNL     1       7.026   6.598  17.732  0.00  0.00    +0.000 A 
ATOM      3  C   UNL     1       6.662   7.810  17.076  0.00  0.00    +0.000 A 
ATOM      4  C   UNL     1       7.285   9.039  17.352  0.00  0.00    +0.000 A 
ATOM      5  C   UNL     1       8.303   9.101  18.288  0.00  0.00    +0.000 A 
ATOM      6  C   UNL     1       8.689   7.934  18.920  0.00  0.00    +0.000 A 
ATOM      7  C   UNL     1       8.054   6.716  18.667  0.00  0.00    +0.000 A 
BRANCH   5   8
ATOM      8  C   UNL     1       8.949  10.393  18.559  0.00  0.00    +0.000 C 
ATOM      9  O   UNL     1       8.802  11.402  17.874  0.00  0.00    +0.000 OA
BRANCH   8  10
ATOM     10  O   UNL     1       9.731  10.307  19.671  0.00  0.00    +0.000 OA
ATOM     11  C   UNL     1       9.327  11.155  20.746  0.00  0.00    +0.000 C 
ENDBRANCH   8  10
ENDBRANCH   5   8
ENDBRANCH   1   2
BRANCH   1  12
ATOM     12  C   UNL     1       6.989   4.399  16.560  0.00  0.00    +0.000 C 
BRANCH  12  13
ATOM     13  C   UNL     1       7.094   4.735  15.064  0.00  0.00    +0.000 C 
ATOM     14  O   UNL     1       7.800   5.584  14.563  0.00  0.00    +0.000 OA
BRANCH  13  15
ATOM     15  O   UNL     1       6.235   3.946  14.324  0.00  0.00    +0.000 OA
BRANCH  15  16
ATOM     16  C   UNL     1       6.489   3.896  12.895  0.00  0.00    +0.000 C 
ATOM     17  C   UNL     1       5.509   2.984  12.166  0.00  0.00    +0.000 C 
ENDBRANCH  15  16
ENDBRANCH  13  15
ENDBRANCH  12  13
ENDBRANCH   1  12
BRANCH   1  18
ATOM     18  C   UNL     1       4.958   5.286  17.999  0.00  0.00    +0.000 C 
BRANCH  18  19
ATOM     19  C   UNL     1       4.615   3.809  18.333  0.00  0.00    +0.000 C 
BRANCH  19  20
ATOM     20  C   UNL     1       4.072   2.916  17.212  0.00  0.00    +0.000 C 
BRANCH  20  21
ATOM     21  C   UNL     1       2.590   2.618  17.371  0.00  0.00    +0.000 C 
BRANCH  21  22
ATOM     22  C   UNL     1       2.212   2.388  18.830  0.00  0.00    +0.000 C 
BRANCH  22  23
ATOM     23  C   UNL     1       0.797   2.858  19.157  0.00  0.00    +0.000 C 
BRANCH  23  24
ATOM     24  C   UNL     1       0.801   3.458  20.548  0.00  0.00    +0.000 C 
BRANCH  24  25
ATOM     25  C   UNL     1       2.211   3.667  21.069  0.00  0.00    +0.000 C 
BRANCH  25  26
ATOM     26  C   UNL     1       2.579   5.133  20.898  0.00  0.00    +0.000 C 
BRANCH  26  27
ATOM     27  C   UNL     1       1.331   5.986  20.752  0.00  0.00    +0.000 C 
BRANCH  27  28
ATOM     28  C   UNL     1       1.701   7.368  20.231  0.00  0.00    +0.000 C 
BRANCH  28  29
ATOM     29  C   UNL     1       1.432   8.419  21.299  0.00  0.00    +0.000 C 
BRANCH  29  30
ATOM     30  C   UNL     1      -0.044   8.444  21.672  0.00  0.00    +0.000 C 
BRANCH  30  31
ATOM     31  C   UNL     1      -0.407   9.773  22.323  0.00  0.00    +0.000 C 
BRANCH  31  33
ATOM     32  C   UNL     1      -0.782  11.534  20.575  0.00  0.00    +0.000 C 
ATOM     33  C   UNL     1       0.210  10.942  21.562  0.00  0.00    +0.000 C 
ENDBRANCH  31  33
ENDBRANCH  30  31
ENDBRANCH  29  30
ENDBRANCH  28  29
ENDBRANCH  27  28
ENDBRANCH  26  27
ENDBRANCH  25  26
ENDBRANCH  24  25
ENDBRANCH  23  24
ENDBRANCH  22  23
ENDBRANCH  21  22
ENDBRANCH  20  21
ENDBRANCH  19  20
ENDBRANCH  18  19
ENDBRANCH   1  18
TORSDOF 22
ENDMDL
MODEL 6
REMARK VINA RESULT:      -5.7      3.479      6.930
REMARK  Name = 
REMARK  25 active torsions:
REMARK  status: ('A' for Active; 'I' for Inactive)
REMARK    1  A    between atoms: C_1  and  C_2
REMARK    2  A    between atoms: C_2  and  C_3
REMARK    3  A    between atoms: C_3  and  C_4
REMARK    4  A    between atoms: C_4  and  C_5
REMARK    5  A    between atoms: C_5  and  C_6
REMARK    6  A    between atoms: C_6  and  C_7
REMARK    7  A    between atoms: C_7  and  C_8
REMARK    8  A    between atoms: C_8  and  C_9
REMARK    9  A    between atoms: C_9  and  C_10
REMARK   10  A    between atoms: C_10  and  C_11
REMARK   11  A    between atoms: C_11  and  C_12
REMARK   12  A    between atoms: C_12  and  C_13
REMARK   13  A    between atoms: C_13  and  C_14
REMARK   14  A    between atoms: C_14  and  C_15
REMARK   15  A    between atoms: C_15  and  C_16
REMARK   16  A    between atoms: C_16  and  N_17
REMARK   17  A    between atoms: N_17  and  C_18
REMARK   18  A    between atoms: N_17  and  C_24
REMARK   19  A    between atoms: C_18  and  C_19
REMARK   20  A    between atoms: C_19  and  O_21
REMARK   21  A    between atoms: O_21  and  C_22
REMARK   22  A    between atoms: C_22  and  C_23
REMARK   23  A    between atoms: C_27  and  C_28
REMARK   24  A    between atoms: C_28  and  O_30
REMARK   25  A    between atoms: O_30  and  C_31
REMARK                            x       y       z     vdW  Elec       q    Type
REMARK                         _______ _______ _______ _____ _____    ______ ____
ROOT
ATOM      1  N   UNL     1       6.011   6.041  17.318  0.00  0.00    +0.000 N 
ENDROOT
BRANCH   1   2
ATOM      2  C   UNL     1       5.007   5.522  18.162  0.00  0.00    +0.000 A 
ATOM      3  C   UNL     1       3.698   6.081  18.252  0.00  0.00    +0.000 A 
ATOM      4  C   UNL     1       2.681   5.507  19.034  0.00  0.00    +0.000 A 
ATOM      5  C   UNL     1       2.936   4.359  19.763  0.00  0.00    +0.000 A 
ATOM      6  C   UNL     1       4.204   3.813  19.710  0.00  0.00    +0.000 A 
ATOM      7  C   UNL     1       5.210   4.365  18.913  0.00  0.00    +0.000 A 
BRANCH   5   8
ATOM      8  C   UNL     1       1.862   3.777  20.582  0.00  0.00    +0.000 C 
ATOM      9  O   UNL     1       1.960   3.524  21.779  0.00  0.00    +0.000 OA
BRANCH   8  10
ATOM     10  O   UNL     1       0.754   3.559  19.821  0.00  0.00    +0.000 OA
ATOM     11  C   UNL     1       0.815   2.387  19.008  0.00  0.00    +0.000 C 
ENDBRANCH   8  10
ENDBRANCH   5   8
ENDBRANCH   1   2
BRANCH   1  12
ATOM     12  C   UNL     1       5.798   5.897  15.829  0.00  0.00    +0.000 C 
BRANCH  12  13
ATOM     13  C   UNL     1       6.747   5.031  14.985  0.00  0.00    +0.000 C 
ATOM     14  O   UNL     1       7.868   5.325  14.629  0.00  0.00    +0.000 OA
BRANCH  13  15
ATOM     15  O   UNL     1       6.142   3.839  14.639  0.00  0.00    +0.000 OA
BRANCH  15  16
ATOM     16  C   UNL     1       5.399   3.840  13.390  0.00  0.00    +0.000 C 
ATOM     17  C   UNL     1       6.242   3.360  12.216  0.00  0.00    +0.000 C 
ENDBRANCH  15  16
ENDBRANCH  13  15
ENDBRANCH  12  13
ENDBRANCH   1  12
BRANCH   1  18
ATOM     18  C   UNL     1       7.306   6.382  17.944  0.00  0.00    +0.000 C 
BRANCH  18  19
ATOM     19  C   UNL     1       7.924   7.612  17.225  0.00  0.00    +0.000 C 
BRANCH  19  20
ATOM     20  C   UNL     1       7.696   9.000  17.833  0.00  0.00    +0.000 C 
BRANCH  20  21
ATOM     21  C   UNL     1       8.848   9.442  18.722  0.00  0.00    +0.000 C 
BRANCH  21  22
ATOM     22  C   UNL     1       9.233  10.895  18.469  0.00  0.00    +0.000 C 
BRANCH  22  23
ATOM     23  C   UNL     1      10.598  11.255  19.050  0.00  0.00    +0.000 C 
BRANCH  23  24
ATOM     24  C   UNL     1      11.496  11.707  17.915  0.00  0.00    +0.000 C 
BRANCH  24  25
ATOM     25  C   UNL     1      11.907  13.160  18.065  0.00  0.00    +0.000 C 
BRANCH  25  26
ATOM     26  C   UNL     1      11.045  14.004  17.139  0.00  0.00    +0.000 C 
BRANCH  26  27
ATOM     27  C   UNL     1       9.947  14.705  17.918  0.00  0.00    +0.000 C 
BRANCH  27  28
ATOM     28  C   UNL     1      10.415  14.996  19.337  0.00  0.00    +0.000 C 
BRANCH  28  29
ATOM     29  C   UNL     1      10.893  16.437  19.444  0.00  0.00    +0.000 C 
BRANCH  29  30
ATOM     30  C   UNL     1      10.399  17.074  20.736  0.00  0.00    +0.000 C 
BRANCH  30  31
ATOM     31  C   UNL     1      11.106  16.461  21.938  0.00  0.00    +0.000 C 
BRANCH  31  33
ATOM     32  C   UNL     1       8.750  16.543  22.795  0.00  0.00    +0.000 C 
ATOM     33  C   UNL     1      10.103  15.863  22.918  0.00  0.00    +0.000 C 
ENDBRANCH  31  33
ENDBRANCH  30  31
ENDBRANCH  29  30
ENDBRANCH  28  29
ENDBRANCH  27  28
ENDBRANCH  26  27
ENDBRANCH  25  26
ENDBRANCH  24  25
ENDBRANCH  23  24
ENDBRANCH  22  23
ENDBRANCH  21  22
ENDBRANCH  20  21
ENDBRANCH  19  20
ENDBRANCH  18  19
ENDBRANCH   1  18
TORSDOF 22
ENDMDL
MODEL 7
REMARK VINA RESULT:      -5.7      3.934      8.393
REMARK  Name = 
REMARK  25 active torsions:
REMARK  status: ('A' for Active; 'I' for Inactive)
REMARK    1  A    between atoms: C_1  and  C_2
REMARK    2  A    between atoms: C_2  and  C_3
REMARK    3  A    between atoms: C_3  and  C_4
REMARK    4  A    between atoms: C_4  and  C_5
REMARK    5  A    between atoms: C_5  and  C_6
REMARK    6  A    between atoms: C_6  and  C_7
REMARK    7  A    between atoms: C_7  and  C_8
REMARK    8  A    between atoms: C_8  and  C_9
REMARK    9  A    between atoms: C_9  and  C_10
REMARK   10  A    between atoms: C_10  and  C_11
REMARK   11  A    between atoms: C_11  and  C_12
REMARK   12  A    between atoms: C_12  and  C_13
REMARK   13  A    between atoms: C_13  and  C_14
REMARK   14  A    between atoms: C_14  and  C_15
REMARK   15  A    between atoms: C_15  and  C_16
REMARK   16  A    between atoms: C_16  and  N_17
REMARK   17  A    between atoms: N_17  and  C_18
REMARK   18  A    between atoms: N_17  and  C_24
REMARK   19  A    between atoms: C_18  and  C_19
REMARK   20  A    between atoms: C_19  and  O_21
REMARK   21  A    between atoms: O_21  and  C_22
REMARK   22  A    between atoms: C_22  and  C_23
REMARK   23  A    between atoms: C_27  and  C_28
REMARK   24  A    between atoms: C_28  and  O_30
REMARK   25  A    between atoms: O_30  and  C_31
REMARK                            x       y       z     vdW  Elec       q    Type
REMARK                         _______ _______ _______ _____ _____    ______ ____
ROOT
ATOM      1  N   UNL     1       3.479   5.308  18.488  0.00  0.00    +0.000 N 
ENDROOT
BRANCH   1   2
ATOM      2  C   UNL     1       4.360   5.147  17.397  0.00  0.00    +0.000 A 
ATOM      3  C   UNL     1       4.687   3.876  16.840  0.00  0.00    +0.000 A 
ATOM      4  C   UNL     1       5.500   3.734  15.702  0.00  0.00    +0.000 A 
ATOM      5  C   UNL     1       6.025   4.856  15.085  0.00  0.00    +0.000 A 
ATOM      6  C   UNL     1       5.740   6.097  15.622  0.00  0.00    +0.000 A 
ATOM      7  C   UNL     1       4.911   6.244  16.736  0.00  0.00    +0.000 A 
BRANCH   5   8
ATOM      8  C   UNL     1       6.879   4.688  13.901  0.00  0.00    +0.000 C 
ATOM      9  O   UNL     1       6.686   3.858  13.016  0.00  0.00    +0.000 OA
BRANCH   8  10
ATOM     10  O   UNL     1       7.910   5.578  13.931  0.00  0.00    +0.000 OA
ATOM     11  C   UNL     1       8.468   5.881  12.652  0.00  0.00    +0.000 C 
ENDBRANCH   8  10
ENDBRANCH   5   8
ENDBRANCH   1   2
BRANCH   1  12
ATOM     12  C   UNL     1       3.744   4.464  19.714  0.00  0.00    +0.000 C 
BRANCH  12  13
ATOM     13  C   UNL     1       2.588   4.040  20.633  0.00  0.00    +0.000 C 
ATOM     14  O   UNL     1       2.320   4.511  21.719  0.00  0.00    +0.000 OA
BRANCH  13  15
ATOM     15  O   UNL     1       1.873   3.000  20.073  0.00  0.00    +0.000 OA
BRANCH  15  16
ATOM     16  C   UNL     1       2.644   2.040  19.302  0.00  0.00    +0.000 C 
ATOM     17  C   UNL     1       2.140   1.912  17.870  0.00  0.00    +0.000 C 
ENDBRANCH  15  16
ENDBRANCH  13  15
ENDBRANCH  12  13
ENDBRANCH   1  12
BRANCH   1  18
ATOM     18  C   UNL     1       2.215   6.028  18.232  0.00  0.00    +0.000 C 
BRANCH  18  19
ATOM     19  C   UNL     1       2.333   7.488  18.748  0.00  0.00    +0.000 C 
BRANCH  19  20
ATOM     20  C   UNL     1       2.558   8.606  17.725  0.00  0.00    +0.000 C 
BRANCH  20  21
ATOM     21  C   UNL     1       1.865   9.902  18.117  0.00  0.00    +0.000 C 
BRANCH  21  22
ATOM     22  C   UNL     1       0.448   9.655  18.622  0.00  0.00    +0.000 C 
BRANCH  22  23
ATOM     23  C   UNL     1      -0.620  10.202  17.679  0.00  0.00    +0.000 C 
BRANCH  23  24
ATOM     24  C   UNL     1      -1.884  10.447  18.479  0.00  0.00    +0.000 C 
BRANCH  24  25
ATOM     25  C   UNL     1      -2.101  11.923  18.753  0.00  0.00    +0.000 C 
BRANCH  25  26
ATOM     26  C   UNL     1      -1.041  12.716  18.005  0.00  0.00    +0.000 C 
BRANCH  26  27
ATOM     27  C   UNL     1      -0.364  13.712  18.928  0.00  0.00    +0.000 C 
BRANCH  27  28
ATOM     28  C   UNL     1       1.118  13.387  19.053  0.00  0.00    +0.000 C 
BRANCH  28  29
ATOM     29  C   UNL     1       1.407  12.774  20.416  0.00  0.00    +0.000 C 
BRANCH  29  30
ATOM     30  C   UNL     1       0.197  12.904  21.332  0.00  0.00    +0.000 C 
BRANCH  30  31
ATOM     31  C   UNL     1      -0.275  11.529  21.791  0.00  0.00    +0.000 C 
BRANCH  31  33
ATOM     32  C   UNL     1      -2.561  12.147  22.618  0.00  0.00    +0.000 C 
ATOM     33  C   UNL     1      -1.184  11.641  23.010  0.00  0.00    +0.000 C 
ENDBRANCH  31  33
ENDBRANCH  30  31
ENDBRANCH  29  30
ENDBRANCH  28  29
ENDBRANCH  27  28
ENDBRANCH  26  27
ENDBRANCH  25  26
ENDBRANCH  24  25
ENDBRANCH  23  24
ENDBRANCH  22  23
ENDBRANCH  21  22
ENDBRANCH  20  21
ENDBRANCH  19  20
ENDBRANCH  18  19
ENDBRANCH   1  18
TORSDOF 22
ENDMDL
MODEL 8
REMARK VINA RESULT:      -5.6      4.057      6.621
REMARK  Name = 
REMARK  25 active torsions:
REMARK  status: ('A' for Active; 'I' for Inactive)
REMARK    1  A    between atoms: C_1  and  C_2
REMARK    2  A    between atoms: C_2  and  C_3
REMARK    3  A    between atoms: C_3  and  C_4
REMARK    4  A    between atoms: C_4  and  C_5
REMARK    5  A    between atoms: C_5  and  C_6
REMARK    6  A    between atoms: C_6  and  C_7
REMARK    7  A    between atoms: C_7  and  C_8
REMARK    8  A    between atoms: C_8  and  C_9
REMARK    9  A    between atoms: C_9  and  C_10
REMARK   10  A    between atoms: C_10  and  C_11
REMARK   11  A    between atoms: C_11  and  C_12
REMARK   12  A    between atoms: C_12  and  C_13
REMARK   13  A    between atoms: C_13  and  C_14
REMARK   14  A    between atoms: C_14  and  C_15
REMARK   15  A    between atoms: C_15  and  C_16
REMARK   16  A    between atoms: C_16  and  N_17
REMARK   17  A    between atoms: N_17  and  C_18
REMARK   18  A    between atoms: N_17  and  C_24
REMARK   19  A    between atoms: C_18  and  C_19
REMARK   20  A    between atoms: C_19  and  O_21
REMARK   21  A    between atoms: O_21  and  C_22
REMARK   22  A    between atoms: C_22  and  C_23
REMARK   23  A    between atoms: C_27  and  C_28
REMARK   24  A    between atoms: C_28  and  O_30
REMARK   25  A    between atoms: O_30  and  C_31
REMARK                            x       y       z     vdW  Elec       q    Type
REMARK                         _______ _______ _______ _____ _____    ______ ____
ROOT
ATOM      1  N   UNL     1       0.105  10.224  20.418  0.00  0.00    +0.000 N 
ENDROOT
BRANCH   1   2
ATOM      2  C   UNL     1      -0.963  10.570  19.563  0.00  0.00    +0.000 A 
ATOM      3  C   UNL     1      -1.397   9.745  18.484  0.00  0.00    +0.000 A 
ATOM      4  C   UNL     1      -2.513  10.061  17.691  0.00  0.00    +0.000 A 
ATOM      5  C   UNL     1      -3.231  11.218  17.938  0.00  0.00    +0.000 A 
ATOM      6  C   UNL     1      -2.814  12.045  18.964  0.00  0.00    +0.000 A 
ATOM      7  C   UNL     1      -1.722  11.721  19.772  0.00  0.00    +0.000 A 
BRANCH   5   8
ATOM      8  C   UNL     1      -4.391  11.536  17.093  0.00  0.00    +0.000 C 
ATOM      9  O   UNL     1      -4.453  11.316  15.886  0.00  0.00    +0.000 OA
BRANCH   8  10
ATOM     10  O   UNL     1      -5.376  12.109  17.838  0.00  0.00    +0.000 OA
ATOM     11  C   UNL     1      -6.484  11.251  18.115  0.00  0.00    +0.000 C 
ENDBRANCH   8  10
ENDBRANCH   5   8
ENDBRANCH   1   2
BRANCH   1  12
ATOM     12  C   UNL     1       1.503  10.348  19.856  0.00  0.00    +0.000 C 
BRANCH  12  13
ATOM     13  C   UNL     1       1.750  11.098  18.538  0.00  0.00    +0.000 C 
ATOM     14  O   UNL     1       1.596  12.285  18.344  0.00  0.00    +0.000 OA
BRANCH  13  15
ATOM     15  O   UNL     1       2.157  10.225  17.548  0.00  0.00    +0.000 OA
BRANCH  15  16
ATOM     16  C   UNL     1       1.926   8.815  17.807  0.00  0.00    +0.000 C 
ATOM     17  C   UNL     1       3.170   7.971  17.563  0.00  0.00    +0.000 C 
ENDBRANCH  15  16
ENDBRANCH  13  15
ENDBRANCH  12  13
ENDBRANCH   1  12
BRANCH   1  18
ATOM     18  C   UNL     1      -0.234   9.480  21.649  0.00  0.00    +0.000 C 
BRANCH  18  19
ATOM     19  C   UNL     1       0.020   7.964  21.428  0.00  0.00    +0.000 C 
BRANCH  19  20
ATOM     20  C   UNL     1       1.460   7.493  21.192  0.00  0.00    +0.000 C 
BRANCH  20  21
ATOM     21  C   UNL     1       1.524   6.166  20.452  0.00  0.00    +0.000 C 
BRANCH  21  22
ATOM     22  C   UNL     1       2.409   5.158  21.174  0.00  0.00    +0.000 C 
BRANCH  22  23
ATOM     23  C   UNL     1       1.844   3.740  21.137  0.00  0.00    +0.000 C 
BRANCH  23  24
ATOM     24  C   UNL     1       0.677   3.716  20.170  0.00  0.00    +0.000 C 
BRANCH  24  25
ATOM     25  C   UNL     1       0.931   2.782  19.001  0.00  0.00    +0.000 C 
BRANCH  25  26
ATOM     26  C   UNL     1       1.554   3.583  17.868  0.00  0.00    +0.000 C 
BRANCH  26  27
ATOM     27  C   UNL     1       2.710   2.822  17.245  0.00  0.00    +0.000 C 
BRANCH  27  28
ATOM     28  C   UNL     1       3.944   2.927  18.131  0.00  0.00    +0.000 C 
BRANCH  28  29
ATOM     29  C   UNL     1       4.417   4.372  18.201  0.00  0.00    +0.000 C 
BRANCH  29  30
ATOM     30  C   UNL     1       5.563   4.611  17.226  0.00  0.00    +0.000 C 
BRANCH  30  31
ATOM     31  C   UNL     1       5.037   5.179  15.913  0.00  0.00    +0.000 C 
BRANCH  31  33
ATOM     32  C   UNL     1       7.068   4.788  14.494  0.00  0.00    +0.000 C 
ATOM     33  C   UNL     1       5.611   4.423  14.720  0.00  0.00    +0.000 C 
ENDBRANCH  31  33
ENDBRANCH  30  31
ENDBRANCH  29  30
ENDBRANCH  28  29
ENDBRANCH  27  28
ENDBRANCH  26  27
ENDBRANCH  25  26
ENDBRANCH  24  25
ENDBRANCH  23  24
ENDBRANCH  22  23
ENDBRANCH  21  22
ENDBRANCH  20  21
ENDBRANCH  19  20
ENDBRANCH  18  19
ENDBRANCH   1  18
TORSDOF 22
ENDMDL
MODEL 9
REMARK VINA RESULT:      -5.6      3.754      8.875
REMARK  Name = 
REMARK  25 active torsions:
REMARK  status: ('A' for Active; 'I' for Inactive)
REMARK    1  A    between atoms: C_1  and  C_2
REMARK    2  A    between atoms: C_2  and  C_3
REMARK    3  A    between atoms: C_3  and  C_4
REMARK    4  A    between atoms: C_4  and  C_5
REMARK    5  A    between atoms: C_5  and  C_6
REMARK    6  A    between atoms: C_6  and  C_7
REMARK    7  A    between atoms: C_7  and  C_8
REMARK    8  A    between atoms: C_8  and  C_9
REMARK    9  A    between atoms: C_9  and  C_10
REMARK   10  A    between atoms: C_10  and  C_11
REMARK   11  A    between atoms: C_11  and  C_12
REMARK   12  A    between atoms: C_12  and  C_13
REMARK   13  A    between atoms: C_13  and  C_14
REMARK   14  A    between atoms: C_14  and  C_15
REMARK   15  A    between atoms: C_15  and  C_16
REMARK   16  A    between atoms: C_16  and  N_17
REMARK   17  A    between atoms: N_17  and  C_18
REMARK   18  A    between atoms: N_17  and  C_24
REMARK   19  A    between atoms: C_18  and  C_19
REMARK   20  A    between atoms: C_19  and  O_21
REMARK   21  A    between atoms: O_21  and  C_22
REMARK   22  A    between atoms: C_22  and  C_23
REMARK   23  A    between atoms: C_27  and  C_28
REMARK   24  A    between atoms: C_28  and  O_30
REMARK   25  A    between atoms: O_30  and  C_31
REMARK                            x       y       z     vdW  Elec       q    Type
REMARK                         _______ _______ _______ _____ _____    ______ ____
ROOT
ATOM      1  N   UNL     1       1.975   5.459  20.428  0.00  0.00    +0.000 N 
ENDROOT
BRANCH   1   2
ATOM      2  C   UNL     1       2.975   5.690  19.460  0.00  0.00    +0.000 A 
ATOM      3  C   UNL     1       2.723   6.351  18.222  0.00  0.00    +0.000 A 
ATOM      4  C   UNL     1       3.742   6.648  17.301  0.00  0.00    +0.000 A 
ATOM      5  C   UNL     1       5.049   6.287  17.578  0.00  0.00    +0.000 A 
ATOM      6  C   UNL     1       5.313   5.624  18.762  0.00  0.00    +0.000 A 
ATOM      7  C   UNL     1       4.307   5.351  19.691  0.00  0.00    +0.000 A 
BRANCH   5   8
ATOM      8  C   UNL     1       6.101   6.600  16.600  0.00  0.00    +0.000 C 
ATOM      9  O   UNL     1       7.175   7.126  16.878  0.00  0.00    +0.000 OA
BRANCH   8  10
ATOM     10  O   UNL     1       5.711   6.224  15.350  0.00  0.00    +0.000 OA
ATOM     11  C   UNL     1       6.106   4.903  14.978  0.00  0.00    +0.000 C 
ENDBRANCH   8  10
ENDBRANCH   5   8
ENDBRANCH   1   2
BRANCH   1  12
ATOM     12  C   UNL     1       1.750   4.026  20.855  0.00  0.00    +0.000 C 
BRANCH  12  13
ATOM     13  C   UNL     1       1.264   2.977  19.843  0.00  0.00    +0.000 C 
ATOM     14  O   UNL     1       0.110   2.715  19.574  0.00  0.00    +0.000 OA
BRANCH  13  15
ATOM     15  O   UNL     1       2.333   2.319  19.269  0.00  0.00    +0.000 OA
BRANCH  15  16
ATOM     16  C   UNL     1       2.424   2.393  17.821  0.00  0.00    +0.000 C 
ATOM     17  C   UNL     1       3.840   2.692  17.346  0.00  0.00    +0.000 C 
ENDBRANCH  15  16
ENDBRANCH  13  15
ENDBRANCH  12  13
ENDBRANCH   1  12
BRANCH   1  18
ATOM     18  C   UNL     1       1.033   6.564  20.700  0.00  0.00    +0.000 C 
BRANCH  18  19
ATOM     19  C   UNL     1       1.823   7.885  20.901  0.00  0.00    +0.000 C 
BRANCH  19  20
ATOM     20  C   UNL     1       1.330   8.875  21.962  0.00  0.00    +0.000 C 
BRANCH  20  21
ATOM     21  C   UNL     1      -0.187   8.914  22.061  0.00  0.00    +0.000 C 
BRANCH  21  22
ATOM     22  C   UNL     1      -0.740  10.298  21.743  0.00  0.00    +0.000 C 
BRANCH  22  23
ATOM     23  C   UNL     1       0.356  11.345  21.559  0.00  0.00    +0.000 C 
BRANCH  23  24
ATOM     24  C   UNL     1      -0.125  12.367  20.548  0.00  0.00    +0.000 C 
BRANCH  24  25
ATOM     25  C   UNL     1      -1.440  11.958  19.913  0.00  0.00    +0.000 C 
BRANCH  25  26
ATOM     26  C   UNL     1      -1.229  11.811  18.414  0.00  0.00    +0.000 C 
BRANCH  26  27
ATOM     27  C   UNL     1      -1.034  10.354  18.038  0.00  0.00    +0.000 C 
BRANCH  27  28
ATOM     28  C   UNL     1      -2.007   9.963  16.934  0.00  0.00    +0.000 C 
BRANCH  28  29
ATOM     29  C   UNL     1      -3.392   9.724  17.518  0.00  0.00    +0.000 C 
BRANCH  29  30
ATOM     30  C   UNL     1      -4.379  10.766  17.009  0.00  0.00    +0.000 C 
BRANCH  30  31
ATOM     31  C   UNL     1      -5.444  11.051  18.062  0.00  0.00    +0.000 C 
BRANCH  31  33
ATOM     32  C   UNL     1      -6.788  13.025  17.293  0.00  0.00    +0.000 C 
ATOM     33  C   UNL     1      -5.677  12.550  18.214  0.00  0.00    +0.000 C 
ENDBRANCH  31  33
ENDBRANCH  30  31
ENDBRANCH  29  30
ENDBRANCH  28  29
ENDBRANCH  27  28
ENDBRANCH  26  27
ENDBRANCH  25  26
ENDBRANCH  24  25
ENDBRANCH  23  24
ENDBRANCH  22  23
ENDBRANCH  21  22
ENDBRANCH  20  21
ENDBRANCH  19  20
ENDBRANCH  18  19
ENDBRANCH   1  18
TORSDOF 22
ENDMDL
