MODEL 1
REMARK VINA RESULT:      -6.1      0.000      0.000
REMARK  Name = 
REMARK  4 active torsions:
REMARK  status: ('A' for Active; 'I' for Inactive)
REMARK    1  A    between atoms: C_1  and  C_2
REMARK    2  A    between atoms: C_2  and  O_3
REMARK    3  A    between atoms: O_3  and  C_4
REMARK    4  A    between atoms: C_4  and  C_6
REMARK                            x       y       z     vdW  Elec       q    Type
REMARK                         _______ _______ _______ _____ _____    ______ ____
ROOT
ATOM      1  C   UNL     1       5.781   5.132  17.366  0.00  0.00    +0.000 A 
ATOM      2  C   UNL     1       4.618   4.402  17.517  0.00  0.00    +0.000 A 
ATOM      3  N   UNL     1       4.407   3.065  17.528  0.00  0.00    +0.000 NA
ATOM      4 SE   UNL     1       2.692   2.506  17.777  0.00  0.00    +0.000 Se
ATOM      5  S   UNL     1       2.074   4.559  17.901  0.00  0.00    +0.000 S 
ATOM      6  C   UNL     1       3.548   5.302  17.694  0.00  0.00    +0.000 A 
ATOM      7  C   UNL     1       4.030   6.584  17.649  0.00  0.00    +0.000 A 
ATOM      8 CL   UNL     1       3.087   8.053  17.818  0.00  0.00    +0.000 Cl
ATOM      9  C   UNL     1       5.411   6.488  17.449  0.00  0.00    +0.000 A 
ATOM     10 CL   UNL     1       6.490   7.868  17.321  0.00  0.00    +0.000 Cl
ENDROOT
BRANCH   1  11
ATOM     11  C   UNL     1       7.139   4.579  17.171  0.00  0.00    +0.000 C 
ATOM     12  O   UNL     1       7.842   4.349  18.145  0.00  0.00    +0.000 OA
BRANCH  11  13
ATOM     13  O   UNL     1       7.617   4.385  15.913  0.00  0.00    +0.000 OA
BRANCH  13  15
ATOM     14  C   UNL     1       6.193   3.857  14.045  0.00  0.00    +0.000 C 
ATOM     15  C   UNL     1       7.048   4.900  14.762  0.00  0.00    +0.000 C 
ENDBRANCH  13  15
ENDBRANCH  11  13
ENDBRANCH   1  11
TORSDOF 3
ENDMDL
MODEL 2
REMARK VINA RESULT:      -5.8      3.078      4.183
REMARK  Name = 
REMARK  4 active torsions:
REMARK  status: ('A' for Active; 'I' for Inactive)
REMARK    1  A    between atoms: C_1  and  C_2
REMARK    2  A    between atoms: C_2  and  O_3
REMARK    3  A    between atoms: O_3  and  C_4
REMARK    4  A    between atoms: C_4  and  C_6
REMARK                            x       y       z     vdW  Elec       q    Type
REMARK                         _______ _______ _______ _____ _____    ______ ____
ROOT
ATOM      1  C   UNL     1       4.034   4.303  18.697  0.00  0.00    +0.000 A 
ATOM      2  C   UNL     1       4.765   4.646  17.576  0.00  0.00    +0.000 A 
ATOM      3  N   UNL     1       5.673   3.940  16.861  0.00  0.00    +0.000 NA
ATOM      4 SE   UNL     1       6.403   4.770  15.414  0.00  0.00    +0.000 Se
ATOM      5  S   UNL     1       5.213   6.504  15.847  0.00  0.00    +0.000 S 
ATOM      6  C   UNL     1       4.414   5.957  17.200  0.00  0.00    +0.000 A 
ATOM      7  C   UNL     1       3.477   6.438  18.077  0.00  0.00    +0.000 A 
ATOM      8 CL   UNL     1       2.730   8.024  18.030  0.00  0.00    +0.000 Cl
ATOM      9  C   UNL     1       3.235   5.420  19.005  0.00  0.00    +0.000 A 
ATOM     10 CL   UNL     1       2.103   5.550  20.342  0.00  0.00    +0.000 Cl
ENDROOT
BRANCH   1  11
ATOM     11  C   UNL     1       4.086   3.008  19.409  0.00  0.00    +0.000 C 
ATOM     12  O   UNL     1       5.104   2.690  20.008  0.00  0.00    +0.000 OA
BRANCH  11  13
ATOM     13  O   UNL     1       3.029   2.156  19.345  0.00  0.00    +0.000 OA
BRANCH  13  15
ATOM     14  C   UNL     1       0.708   2.492  18.797  0.00  0.00    +0.000 C 
ATOM     15  C   UNL     1       2.107   2.115  18.314  0.00  0.00    +0.000 C 
ENDBRANCH  13  15
ENDBRANCH  11  13
ENDBRANCH   1  11
TORSDOF 3
ENDMDL
MODEL 3
REMARK VINA RESULT:      -5.7      1.440      1.457
REMARK  Name = 
REMARK  4 active torsions:
REMARK  status: ('A' for Active; 'I' for Inactive)
REMARK    1  A    between atoms: C_1  and  C_2
REMARK    2  A    between atoms: C_2  and  O_3
REMARK    3  A    between atoms: O_3  and  C_4
REMARK    4  A    between atoms: C_4  and  C_6
REMARK                            x       y       z     vdW  Elec       q    Type
REMARK                         _______ _______ _______ _____ _____    ______ ____
ROOT
ATOM      1  C   UNL     1       5.537   4.945  18.070  0.00  0.00    +0.000 A 
ATOM      2  C   UNL     1       4.717   4.255  18.942  0.00  0.00    +0.000 A 
ATOM      3  N   UNL     1       4.894   3.071  19.576  0.00  0.00    +0.000 NA
ATOM      4 SE   UNL     1       3.551   2.519  20.674  0.00  0.00    +0.000 Se
ATOM      5  S   UNL     1       2.459   4.302  20.184  0.00  0.00    +0.000 S 
ATOM      6  C   UNL     1       3.543   5.009  19.139  0.00  0.00    +0.000 A 
ATOM      7  C   UNL     1       3.620   6.158  18.396  0.00  0.00    +0.000 A 
ATOM      8 CL   UNL     1       2.404   7.418  18.306  0.00  0.00    +0.000 Cl
ATOM      9  C   UNL     1       4.851   6.126  17.733  0.00  0.00    +0.000 A 
ATOM     10 CL   UNL     1       5.422   7.385  16.648  0.00  0.00    +0.000 Cl
ENDROOT
BRANCH   1  11
ATOM     11  C   UNL     1       6.874   4.514  17.606  0.00  0.00    +0.000 C 
ATOM     12  O   UNL     1       7.803   4.471  18.400  0.00  0.00    +0.000 OA
BRANCH  11  13
ATOM     13  O   UNL     1       7.075   4.227  16.292  0.00  0.00    +0.000 OA
BRANCH  13  15
ATOM     14  C   UNL     1       6.318   4.203  14.007  0.00  0.00    +0.000 C 
ATOM     15  C   UNL     1       6.115   3.713  15.439  0.00  0.00    +0.000 C 
ENDBRANCH  13  15
ENDBRANCH  11  13
ENDBRANCH   1  11
TORSDOF 3
ENDMDL
MODEL 4
REMARK VINA RESULT:      -5.6      2.986      3.784
REMARK  Name = 
REMARK  4 active torsions:
REMARK  status: ('A' for Active; 'I' for Inactive)
REMARK    1  A    between atoms: C_1  and  C_2
REMARK    2  A    between atoms: C_2  and  O_3
REMARK    3  A    between atoms: O_3  and  C_4
REMARK    4  A    between atoms: C_4  and  C_6
REMARK                            x       y       z     vdW  Elec       q    Type
REMARK                         _______ _______ _______ _____ _____    ______ ____
ROOT
ATOM      1  C   UNL     1       4.777   5.490  16.892  0.00  0.00    +0.000 A 
ATOM      2  C   UNL     1       3.860   5.780  17.884  0.00  0.00    +0.000 A 
ATOM      3  N   UNL     1       3.458   6.966  18.400  0.00  0.00    +0.000 NA
ATOM      4 SE   UNL     1       2.190   6.905  19.705  0.00  0.00    +0.000 Se
ATOM      5  S   UNL     1       2.170   4.764  19.544  0.00  0.00    +0.000 S 
ATOM      6  C   UNL     1       3.308   4.569  18.347  0.00  0.00    +0.000 A 
ATOM      7  C   UNL     1       3.876   3.527  17.660  0.00  0.00    +0.000 A 
ATOM      8 CL   UNL     1       3.519   1.824  17.878  0.00  0.00    +0.000 Cl
ATOM      9  C   UNL     1       4.783   4.089  16.757  0.00  0.00    +0.000 A 
ATOM     10 CL   UNL     1       5.770   3.159  15.640  0.00  0.00    +0.000 Cl
ENDROOT
BRANCH   1  11
ATOM     11  C   UNL     1       5.574   6.474  16.127  0.00  0.00    +0.000 C 
ATOM     12  O   UNL     1       5.045   7.104  15.222  0.00  0.00    +0.000 OA
BRANCH  11  13
ATOM     13  O   UNL     1       6.898   6.628  16.395  0.00  0.00    +0.000 OA
BRANCH  13  15
ATOM     14  C   UNL     1       7.841   8.426  17.688  0.00  0.00    +0.000 C 
ATOM     15  C   UNL     1       7.422   6.959  17.632  0.00  0.00    +0.000 C 
ENDBRANCH  13  15
ENDBRANCH  11  13
ENDBRANCH   1  11
TORSDOF 3
ENDMDL
MODEL 5
REMARK VINA RESULT:      -5.6      3.957      5.197
REMARK  Name = 
REMARK  4 active torsions:
REMARK  status: ('A' for Active; 'I' for Inactive)
REMARK    1  A    between atoms: C_1  and  C_2
REMARK    2  A    between atoms: C_2  and  O_3
REMARK    3  A    between atoms: O_3  and  C_4
REMARK    4  A    between atoms: C_4  and  C_6
REMARK                            x       y       z     vdW  Elec       q    Type
REMARK                         _______ _______ _______ _____ _____    ______ ____
ROOT
ATOM      1  C   UNL     1       4.551   3.782  18.791  0.00  0.00    +0.000 A 
ATOM      2  C   UNL     1       5.681   4.574  18.721  0.00  0.00    +0.000 A 
ATOM      3  N   UNL     1       6.500   5.036  19.695  0.00  0.00    +0.000 NA
ATOM      4 SE   UNL     1       7.915   6.051  19.164  0.00  0.00    +0.000 Se
ATOM      5  S   UNL     1       7.278   5.819  17.127  0.00  0.00    +0.000 S 
ATOM      6  C   UNL     1       5.930   4.874  17.367  0.00  0.00    +0.000 A 
ATOM      7  C   UNL     1       4.966   4.284  16.593  0.00  0.00    +0.000 A 
ATOM      8 CL   UNL     1       4.843   4.367  14.846  0.00  0.00    +0.000 Cl
ATOM      9  C   UNL     1       4.110   3.605  17.466  0.00  0.00    +0.000 A 
ATOM     10 CL   UNL     1       2.705   2.683  16.955  0.00  0.00    +0.000 Cl
ENDROOT
BRANCH   1  11
ATOM     11  C   UNL     1       3.948   3.230  20.024  0.00  0.00    +0.000 C 
ATOM     12  O   UNL     1       4.334   2.151  20.452  0.00  0.00    +0.000 OA
BRANCH  11  13
ATOM     13  O   UNL     1       2.933   3.893  20.637  0.00  0.00    +0.000 OA
BRANCH  13  15
ATOM     14  C   UNL     1       0.752   3.110  19.983  0.00  0.00    +0.000 C 
ATOM     15  C   UNL     1       1.771   3.304  21.104  0.00  0.00    +0.000 C 
ENDBRANCH  13  15
ENDBRANCH  11  13
ENDBRANCH   1  11
TORSDOF 3
ENDMDL
MODEL 6
REMARK VINA RESULT:      -5.5      3.412      4.775
REMARK  Name = 
REMARK  4 active torsions:
REMARK  status: ('A' for Active; 'I' for Inactive)
REMARK    1  A    between atoms: C_1  and  C_2
REMARK    2  A    between atoms: C_2  and  O_3
REMARK    3  A    between atoms: O_3  and  C_4
REMARK    4  A    between atoms: C_4  and  C_6
REMARK                            x       y       z     vdW  Elec       q    Type
REMARK                         _______ _______ _______ _____ _____    ______ ____
ROOT
ATOM      1  C   UNL     1       3.041   5.902  18.051  0.00  0.00    +0.000 A 
ATOM      2  C   UNL     1       2.522   4.637  18.254  0.00  0.00    +0.000 A 
ATOM      3  N   UNL     1       1.422   4.230  18.931  0.00  0.00    +0.000 NA
ATOM      4 SE   UNL     1       1.079   2.442  18.937  0.00  0.00    +0.000 Se
ATOM      5  S   UNL     1       2.833   2.131  17.739  0.00  0.00    +0.000 S 
ATOM      6  C   UNL     1       3.346   3.707  17.591  0.00  0.00    +0.000 A 
ATOM      7  C   UNL     1       4.376   4.375  16.982  0.00  0.00    +0.000 A 
ATOM      8 CL   UNL     1       5.664   3.655  16.035  0.00  0.00    +0.000 Cl
ATOM      9  C   UNL     1       4.193   5.733  17.260  0.00  0.00    +0.000 A 
ATOM     10 CL   UNL     1       5.260   7.010  16.696  0.00  0.00    +0.000 Cl
ENDROOT
BRANCH   1  11
ATOM     11  C   UNL     1       2.475   7.169  18.561  0.00  0.00    +0.000 C 
ATOM     12  O   UNL     1       2.394   7.350  19.768  0.00  0.00    +0.000 OA
BRANCH  11  13
ATOM     13  O   UNL     1       1.994   8.096  17.690  0.00  0.00    +0.000 OA
BRANCH  13  15
ATOM     14  C   UNL     1       0.530   9.915  18.275  0.00  0.00    +0.000 C 
ATOM     15  C   UNL     1       1.946   9.457  17.931  0.00  0.00    +0.000 C 
ENDBRANCH  13  15
ENDBRANCH  11  13
ENDBRANCH   1  11
TORSDOF 3
ENDMDL
MODEL 7
REMARK VINA RESULT:      -5.5      1.696      2.377
REMARK  Name = 
REMARK  4 active torsions:
REMARK  status: ('A' for Active; 'I' for Inactive)
REMARK    1  A    between atoms: C_1  and  C_2
REMARK    2  A    between atoms: C_2  and  O_3
REMARK    3  A    between atoms: O_3  and  C_4
REMARK    4  A    between atoms: C_4  and  C_6
REMARK                            x       y       z     vdW  Elec       q    Type
REMARK                         _______ _______ _______ _____ _____    ______ ____
ROOT
ATOM      1  C   UNL     1       5.225   4.873  17.493  0.00  0.00    +0.000 A 
ATOM      2  C   UNL     1       4.556   4.240  18.523  0.00  0.00    +0.000 A 
ATOM      3  N   UNL     1       4.853   3.111  19.210  0.00  0.00    +0.000 NA
ATOM      4 SE   UNL     1       3.695   2.625  20.528  0.00  0.00    +0.000 Se
ATOM      5  S   UNL     1       2.498   4.347  20.070  0.00  0.00    +0.000 S 
ATOM      6  C   UNL     1       3.403   4.988  18.831  0.00  0.00    +0.000 A 
ATOM      7  C   UNL     1       3.342   6.077  18.001  0.00  0.00    +0.000 A 
ATOM      8 CL   UNL     1       2.093   7.308  17.994  0.00  0.00    +0.000 Cl
ATOM      9  C   UNL     1       4.467   6.014  17.173  0.00  0.00    +0.000 A 
ATOM     10 CL   UNL     1       4.844   7.194  15.927  0.00  0.00    +0.000 Cl
ENDROOT
BRANCH   1  11
ATOM     11  C   UNL     1       6.493   4.429  16.875  0.00  0.00    +0.000 C 
ATOM     12  O   UNL     1       6.463   3.762  15.850  0.00  0.00    +0.000 OA
BRANCH  11  13
ATOM     13  O   UNL     1       7.678   4.714  17.479  0.00  0.00    +0.000 OA
BRANCH  13  15
ATOM     14  C   UNL     1       7.914   6.985  18.239  0.00  0.00    +0.000 C 
ATOM     15  C   UNL     1       7.822   5.505  18.604  0.00  0.00    +0.000 C 
ENDBRANCH  13  15
ENDBRANCH  11  13
ENDBRANCH   1  11
TORSDOF 3
ENDMDL
MODEL 8
REMARK VINA RESULT:      -5.4      2.364      3.047
REMARK  Name = 
REMARK  4 active torsions:
REMARK  status: ('A' for Active; 'I' for Inactive)
REMARK    1  A    between atoms: C_1  and  C_2
REMARK    2  A    between atoms: C_2  and  O_3
REMARK    3  A    between atoms: O_3  and  C_4
REMARK    4  A    between atoms: C_4  and  C_6
REMARK                            x       y       z     vdW  Elec       q    Type
REMARK                         _______ _______ _______ _____ _____    ______ ____
ROOT
ATOM      1  C   UNL     1       4.143   5.828  17.866  0.00  0.00    +0.000 A 
ATOM      2  C   UNL     1       4.036   4.709  18.669  0.00  0.00    +0.000 A 
ATOM      3  N   UNL     1       4.669   3.514  18.611  0.00  0.00    +0.000 NA
ATOM      4 SE   UNL     1       4.246   2.297  19.898  0.00  0.00    +0.000 Se
ATOM      5  S   UNL     1       2.877   3.717  20.746  0.00  0.00    +0.000 S 
ATOM      6  C   UNL     1       3.100   4.980  19.687  0.00  0.00    +0.000 A 
ATOM      7  C   UNL     1       2.617   6.252  19.524  0.00  0.00    +0.000 A 
ATOM      8 CL   UNL     1       1.429   7.049  20.537  0.00  0.00    +0.000 Cl
ATOM      9  C   UNL     1       3.259   6.784  18.401  0.00  0.00    +0.000 A 
ATOM     10 CL   UNL     1       2.978   8.402  17.776  0.00  0.00    +0.000 Cl
ENDROOT
BRANCH   1  11
ATOM     11  C   UNL     1       5.026   5.975  16.689  0.00  0.00    +0.000 C 
ATOM     12  O   UNL     1       4.909   5.204  15.747  0.00  0.00    +0.000 OA
BRANCH  11  13
ATOM     13  O   UNL     1       5.999   6.925  16.687  0.00  0.00    +0.000 OA
BRANCH  13  15
ATOM     14  C   UNL     1       7.785   8.237  17.627  0.00  0.00    +0.000 C 
ATOM     15  C   UNL     1       7.177   6.854  17.409  0.00  0.00    +0.000 C 
ENDBRANCH  13  15
ENDBRANCH  11  13
ENDBRANCH   1  11
TORSDOF 3
ENDMDL
MODEL 9
REMARK VINA RESULT:      -5.4      3.380      4.043
REMARK  Name = 
REMARK  4 active torsions:
REMARK  status: ('A' for Active; 'I' for Inactive)
REMARK    1  A    between atoms: C_1  and  C_2
REMARK    2  A    between atoms: C_2  and  O_3
REMARK    3  A    between atoms: O_3  and  C_4
REMARK    4  A    between atoms: C_4  and  C_6
REMARK                            x       y       z     vdW  Elec       q    Type
REMARK                         _______ _______ _______ _____ _____    ______ ____
ROOT
ATOM      1  C   UNL     1       6.541   5.147  17.586  0.00  0.00    +0.000 A 
ATOM      2  C   UNL     1       6.616   4.962  16.219  0.00  0.00    +0.000 A 
ATOM      3  N   UNL     1       7.602   5.255  15.338  0.00  0.00    +0.000 NA
ATOM      4 SE   UNL     1       7.301   4.821  13.596  0.00  0.00    +0.000 Se
ATOM      5  S   UNL     1       5.376   4.050  14.152  0.00  0.00    +0.000 S 
ATOM      6  C   UNL     1       5.423   4.348  15.788  0.00  0.00    +0.000 A 
ATOM      7  C   UNL     1       4.603   4.155  16.869  0.00  0.00    +0.000 A 
ATOM      8 CL   UNL     1       3.008   3.427  16.844  0.00  0.00    +0.000 Cl
ATOM      9  C   UNL     1       5.288   4.644  17.985  0.00  0.00    +0.000 A 
ATOM     10 CL   UNL     1       4.652   4.624  19.623  0.00  0.00    +0.000 Cl
ENDROOT
BRANCH   1  11
ATOM     11  C   UNL     1       7.587   5.746  18.443  0.00  0.00    +0.000 C 
ATOM     12  O   UNL     1       8.366   5.017  19.042  0.00  0.00    +0.000 OA
BRANCH  11  13
ATOM     13  O   UNL     1       7.640   7.095  18.606  0.00  0.00    +0.000 OA
BRANCH  13  15
ATOM     14  C   UNL     1       8.420   9.325  18.145  0.00  0.00    +0.000 C 
ATOM     15  C   UNL     1       7.884   8.006  17.594  0.00  0.00    +0.000 C 
ENDBRANCH  13  15
ENDBRANCH  11  13
ENDBRANCH   1  11
TORSDOF 3
ENDMDL
