MODEL 1
REMARK VINA RESULT:      -7.5      0.000      0.000
REMARK  Name = 
REMARK  4 active torsions:
REMARK  status: ('A' for Active; 'I' for Inactive)
REMARK    1  A    between atoms: C_2  and  N_3
REMARK    2  A    between atoms: C_2  and  N_9
REMARK    3  A    between atoms: N_3  and  C_4
REMARK    4  A    between atoms: C_12  and  C_13
REMARK                            x       y       z     vdW  Elec       q    Type
REMARK                         _______ _______ _______ _____ _____    ______ ____
ROOT
ATOM      1  N   UNL     1       4.820   5.552  17.888  0.00  0.00    +0.000 N 
ATOM      2  C   UNL     1       6.149   5.295  18.428  0.00  0.00    +0.000 C 
ATOM      3  C   UNL     1       6.935   4.744  17.264  0.00  0.00    +0.000 C 
ATOM      4  C   UNL     1       5.970   5.000  16.139  0.00  0.00    +0.000 C 
ATOM      5  N   UNL     1       4.787   5.420  16.502  0.00  0.00    +0.000 NA
ENDROOT
BRANCH   4   6
ATOM      6  C   UNL     1       6.406   4.762  14.735  0.00  0.00    +0.000 A 
ATOM      7  C   UNL     1       7.510   5.443  14.217  0.00  0.00    +0.000 A 
ATOM      8  C   UNL     1       7.930   5.221  12.903  0.00  0.00    +0.000 A 
ATOM      9  C   UNL     1       7.245   4.311  12.092  0.00  0.00    +0.000 A 
ATOM     10  C   UNL     1       6.148   3.626  12.605  0.00  0.00    +0.000 A 
ATOM     11 BR   UNL     1       5.212   2.395  11.517  0.00  0.00    +0.000 Br
ATOM     12  C   UNL     1       5.727   3.845  13.918  0.00  0.00    +0.000 A 
ENDBRANCH   4   6
BRANCH   1  14
ATOM     13  S   UNL     1       2.872   7.435  18.070  0.00  0.00    +0.000 S 
ATOM     14  C   UNL     1       3.771   6.121  18.619  0.00  0.00    +0.000 C 
BRANCH  14  15
ATOM     15  N   UNL     1       3.536   5.482  19.822  0.00  0.00    +0.000 N 
ATOM     16  H   UNL     1       4.106   5.856  20.573  0.00  0.00    +0.000 HD
BRANCH  15  17
ATOM     17  C   UNL     1       2.902   4.177  19.978  0.00  0.00    +0.000 C 
ATOM     18  C   UNL     1       2.226   4.021  21.341  0.00  0.00    +0.000 C 
ATOM     19  C   UNL     1       1.260   2.864  21.149  0.00  0.00    +0.000 C 
ATOM     20  C   UNL     1       0.838   2.921  19.684  0.00  0.00    +0.000 C 
ATOM     21  C   UNL     1       1.746   3.947  19.004  0.00  0.00    +0.000 C 
ENDBRANCH  15  17
ENDBRANCH  14  15
ENDBRANCH   1  14
TORSDOF 4
ENDMDL
MODEL 2
REMARK VINA RESULT:      -7.4      5.440      8.365
REMARK  Name = 
REMARK  4 active torsions:
REMARK  status: ('A' for Active; 'I' for Inactive)
REMARK    1  A    between atoms: C_2  and  N_3
REMARK    2  A    between atoms: C_2  and  N_9
REMARK    3  A    between atoms: N_3  and  C_4
REMARK    4  A    between atoms: C_12  and  C_13
REMARK                            x       y       z     vdW  Elec       q    Type
REMARK                         _______ _______ _______ _____ _____    ______ ____
ROOT
ATOM      1  N   UNL     1       2.493   7.429  18.863  0.00  0.00    +0.000 N 
ATOM      2  C   UNL     1       2.288   8.473  17.867  0.00  0.00    +0.000 C 
ATOM      3  C   UNL     1       1.264   9.394  18.484  0.00  0.00    +0.000 C 
ATOM      4  C   UNL     1       1.214   8.846  19.884  0.00  0.00    +0.000 C 
ATOM      5  N   UNL     1       1.877   7.737  20.074  0.00  0.00    +0.000 NA
ENDROOT
BRANCH   4   6
ATOM      6  C   UNL     1       0.437   9.574  20.925  0.00  0.00    +0.000 A 
ATOM      7  C   UNL     1       0.418   9.109  22.242  0.00  0.00    +0.000 A 
ATOM      8  C   UNL     1      -0.304   9.790  23.226  0.00  0.00    +0.000 A 
ATOM      9  C   UNL     1      -1.019  10.946  22.898  0.00  0.00    +0.000 A 
ATOM     10  C   UNL     1      -0.999  11.416  21.588  0.00  0.00    +0.000 A 
ATOM     11 BR   UNL     1      -1.963  12.977  21.133  0.00  0.00    +0.000 Br
ATOM     12  C   UNL     1      -0.277  10.739  20.603  0.00  0.00    +0.000 A 
ENDBRANCH   4   6
BRANCH   1  14
ATOM     13  S   UNL     1       4.311   6.122  17.327  0.00  0.00    +0.000 S 
ATOM     14  C   UNL     1       3.410   6.380  18.725  0.00  0.00    +0.000 C 
BRANCH  14  15
ATOM     15  N   UNL     1       3.512   5.595  19.858  0.00  0.00    +0.000 N 
ATOM     16  H   UNL     1       4.280   5.882  20.457  0.00  0.00    +0.000 HD
BRANCH  15  17
ATOM     17  C   UNL     1       2.920   4.272  20.027  0.00  0.00    +0.000 C 
ATOM     18  C   UNL     1       2.179   4.135  21.357  0.00  0.00    +0.000 C 
ATOM     19  C   UNL     1       1.268   2.935  21.157  0.00  0.00    +0.000 C 
ATOM     20  C   UNL     1       0.923   2.926  19.671  0.00  0.00    +0.000 C 
ATOM     21  C   UNL     1       1.828   3.965  19.003  0.00  0.00    +0.000 C 
ENDBRANCH  15  17
ENDBRANCH  14  15
ENDBRANCH   1  14
TORSDOF 4
ENDMDL
MODEL 3
REMARK VINA RESULT:      -7.3      4.125      7.238
REMARK  Name = 
REMARK  4 active torsions:
REMARK  status: ('A' for Active; 'I' for Inactive)
REMARK    1  A    between atoms: C_2  and  N_3
REMARK    2  A    between atoms: C_2  and  N_9
REMARK    3  A    between atoms: N_3  and  C_4
REMARK    4  A    between atoms: C_12  and  C_13
REMARK                            x       y       z     vdW  Elec       q    Type
REMARK                         _______ _______ _______ _____ _____    ______ ____
ROOT
ATOM      1  N   UNL     1       3.535   4.366  19.620  0.00  0.00    +0.000 N 
ATOM      2  C   UNL     1       2.473   4.114  20.586  0.00  0.00    +0.000 C 
ATOM      3  C   UNL     1       1.827   5.460  20.803  0.00  0.00    +0.000 C 
ATOM      4  C   UNL     1       2.489   6.258  19.713  0.00  0.00    +0.000 C 
ATOM      5  N   UNL     1       3.457   5.648  19.083  0.00  0.00    +0.000 NA
ENDROOT
BRANCH   4   6
ATOM      6  C   UNL     1       2.018   7.643  19.435  0.00  0.00    +0.000 A 
ATOM      7  C   UNL     1       2.230   8.219  18.180  0.00  0.00    +0.000 A 
ATOM      8  C   UNL     1       1.787   9.516  17.910  0.00  0.00    +0.000 A 
ATOM      9  C   UNL     1       1.125  10.252  18.898  0.00  0.00    +0.000 A 
ATOM     10  C   UNL     1       0.907   9.681  20.148  0.00  0.00    +0.000 A 
ATOM     11 BR   UNL     1       0.015  10.667  21.492  0.00  0.00    +0.000 Br
ATOM     12  C   UNL     1       1.348   8.384  20.421  0.00  0.00    +0.000 A 
ENDBRANCH   4   6
BRANCH   1  14
ATOM     13  S   UNL     1       3.918   1.753  18.984  0.00  0.00    +0.000 S 
ATOM     14  C   UNL     1       4.367   3.373  19.090  0.00  0.00    +0.000 C 
BRANCH  14  15
ATOM     15  N   UNL     1       5.582   3.860  18.646  0.00  0.00    +0.000 N 
ATOM     16  H   UNL     1       6.263   3.935  19.394  0.00  0.00    +0.000 HD
BRANCH  15  17
ATOM     17  C   UNL     1       5.797   4.587  17.398  0.00  0.00    +0.000 C 
ATOM     18  C   UNL     1       7.231   4.446  16.887  0.00  0.00    +0.000 C 
ATOM     19  C   UNL     1       7.146   4.834  15.420  0.00  0.00    +0.000 C 
ATOM     20  C   UNL     1       5.747   4.426  14.969  0.00  0.00    +0.000 C 
ATOM     21  C   UNL     1       4.973   4.040  16.232  0.00  0.00    +0.000 C 
ENDBRANCH  15  17
ENDBRANCH  14  15
ENDBRANCH   1  14
TORSDOF 4
ENDMDL
MODEL 4
REMARK VINA RESULT:      -7.3      4.547      7.397
REMARK  Name = 
REMARK  4 active torsions:
REMARK  status: ('A' for Active; 'I' for Inactive)
REMARK    1  A    between atoms: C_2  and  N_3
REMARK    2  A    between atoms: C_2  and  N_9
REMARK    3  A    between atoms: N_3  and  C_4
REMARK    4  A    between atoms: C_12  and  C_13
REMARK                            x       y       z     vdW  Elec       q    Type
REMARK                         _______ _______ _______ _____ _____    ______ ____
ROOT
ATOM      1  N   UNL     1       3.699   4.425  19.011  0.00  0.00    +0.000 N 
ATOM      2  C   UNL     1       2.910   4.319  17.790  0.00  0.00    +0.000 C 
ATOM      3  C   UNL     1       1.943   5.475  17.860  0.00  0.00    +0.000 C 
ATOM      4  C   UNL     1       2.503   6.228  19.035  0.00  0.00    +0.000 C 
ATOM      5  N   UNL     1       3.459   5.620  19.685  0.00  0.00    +0.000 NA
ENDROOT
BRANCH   4   6
ATOM      6  C   UNL     1       1.949   7.568  19.374  0.00  0.00    +0.000 A 
ATOM      7  C   UNL     1       1.923   8.581  18.412  0.00  0.00    +0.000 A 
ATOM      8  C   UNL     1       1.399   9.840  18.720  0.00  0.00    +0.000 A 
ATOM      9  C   UNL     1       0.895  10.097  19.999  0.00  0.00    +0.000 A 
ATOM     10  C   UNL     1       0.914   9.089  20.958  0.00  0.00    +0.000 A 
ATOM     11 BR   UNL     1       0.238   9.426  22.691  0.00  0.00    +0.000 Br
ATOM     12  C   UNL     1       1.436   7.830  20.654  0.00  0.00    +0.000 A 
ENDBRANCH   4   6
BRANCH   1  14
ATOM     13  S   UNL     1       4.558   2.120  20.163  0.00  0.00    +0.000 S 
ATOM     14  C   UNL     1       4.762   3.573  19.336  0.00  0.00    +0.000 C 
BRANCH  14  15
ATOM     15  N   UNL     1       5.986   4.037  18.894  0.00  0.00    +0.000 N 
ATOM     16  H   UNL     1       6.707   3.324  18.938  0.00  0.00    +0.000 HD
BRANCH  15  17
ATOM     17  C   UNL     1       6.367   5.442  18.777  0.00  0.00    +0.000 C 
ATOM     18  C   UNL     1       7.807   5.690  19.227  0.00  0.00    +0.000 C 
ATOM     19  C   UNL     1       8.165   7.032  18.611  0.00  0.00    +0.000 C 
ATOM     20  C   UNL     1       7.361   7.117  17.318  0.00  0.00    +0.000 C 
ATOM     21  C   UNL     1       6.377   5.945  17.333  0.00  0.00    +0.000 C 
ENDBRANCH  15  17
ENDBRANCH  14  15
ENDBRANCH   1  14
TORSDOF 4
ENDMDL
MODEL 5
REMARK VINA RESULT:      -7.1      4.163      7.270
REMARK  Name = 
REMARK  4 active torsions:
REMARK  status: ('A' for Active; 'I' for Inactive)
REMARK    1  A    between atoms: C_2  and  N_3
REMARK    2  A    between atoms: C_2  and  N_9
REMARK    3  A    between atoms: N_3  and  C_4
REMARK    4  A    between atoms: C_12  and  C_13
REMARK                            x       y       z     vdW  Elec       q    Type
REMARK                         _______ _______ _______ _____ _____    ______ ____
ROOT
ATOM      1  N   UNL     1       3.492   4.511  19.464  0.00  0.00    +0.000 N 
ATOM      2  C   UNL     1       2.500   4.264  20.503  0.00  0.00    +0.000 C 
ATOM      3  C   UNL     1       1.877   5.613  20.763  0.00  0.00    +0.000 C 
ATOM      4  C   UNL     1       2.463   6.407  19.628  0.00  0.00    +0.000 C 
ATOM      5  N   UNL     1       3.382   5.793  18.932  0.00  0.00    +0.000 NA
ENDROOT
BRANCH   4   6
ATOM      6  C   UNL     1       1.980   7.794  19.383  0.00  0.00    +0.000 A 
ATOM      7  C   UNL     1       2.175   8.396  18.137  0.00  0.00    +0.000 A 
ATOM      8  C   UNL     1       1.719   9.696  17.897  0.00  0.00    +0.000 A 
ATOM      9  C   UNL     1       1.062  10.407  18.906  0.00  0.00    +0.000 A 
ATOM     10  C   UNL     1       0.861   9.809  20.147  0.00  0.00    +0.000 A 
ATOM     11 BR   UNL     1      -0.023  10.763  21.519  0.00  0.00    +0.000 Br
ATOM     12  C   UNL     1       1.314   8.511  20.389  0.00  0.00    +0.000 A 
ENDBRANCH   4   6
BRANCH   1  14
ATOM     13  S   UNL     1       3.637   2.221  18.010  0.00  0.00    +0.000 S 
ATOM     14  C   UNL     1       4.280   3.513  18.877  0.00  0.00    +0.000 C 
BRANCH  14  15
ATOM     15  N   UNL     1       5.635   3.710  19.065  0.00  0.00    +0.000 N 
ATOM     16  H   UNL     1       5.907   3.613  20.038  0.00  0.00    +0.000 HD
BRANCH  15  17
ATOM     17  C   UNL     1       6.531   4.382  18.129  0.00  0.00    +0.000 C 
ATOM     18  C   UNL     1       5.858   4.662  16.784  0.00  0.00    +0.000 C 
ATOM     19  C   UNL     1       6.725   5.736  16.149  0.00  0.00    +0.000 C 
ATOM     20  C   UNL     1       7.294   6.544  17.311  0.00  0.00    +0.000 C 
ATOM     21  C   UNL     1       6.948   5.778  18.590  0.00  0.00    +0.000 C 
ENDBRANCH  15  17
ENDBRANCH  14  15
ENDBRANCH   1  14
TORSDOF 4
ENDMDL
MODEL 6
REMARK VINA RESULT:      -7.1      5.717      8.710
REMARK  Name = 
REMARK  4 active torsions:
REMARK  status: ('A' for Active; 'I' for Inactive)
REMARK    1  A    between atoms: C_2  and  N_3
REMARK    2  A    between atoms: C_2  and  N_9
REMARK    3  A    between atoms: N_3  and  C_4
REMARK    4  A    between atoms: C_12  and  C_13
REMARK                            x       y       z     vdW  Elec       q    Type
REMARK                         _______ _______ _______ _____ _____    ______ ____
ROOT
ATOM      1  N   UNL     1       2.222   7.791  18.983  0.00  0.00    +0.000 N 
ATOM      2  C   UNL     1       2.015   8.787  17.939  0.00  0.00    +0.000 C 
ATOM      3  C   UNL     1       1.020   9.756  18.529  0.00  0.00    +0.000 C 
ATOM      4  C   UNL     1       0.989   9.280  19.955  0.00  0.00    +0.000 C 
ATOM      5  N   UNL     1       1.637   8.169  20.188  0.00  0.00    +0.000 NA
ENDROOT
BRANCH   4   6
ATOM      6  C   UNL     1       0.246  10.073  20.973  0.00  0.00    +0.000 A 
ATOM      7  C   UNL     1      -0.132   9.486  22.183  0.00  0.00    +0.000 A 
ATOM      8  C   UNL     1      -0.824  10.226  23.146  0.00  0.00    +0.000 A 
ATOM      9  C   UNL     1      -1.148  11.565  22.903  0.00  0.00    +0.000 A 
ATOM     10  C   UNL     1      -0.770  12.155  21.701  0.00  0.00    +0.000 A 
ATOM     11 BR   UNL     1      -1.204  13.963  21.362  0.00  0.00    +0.000 Br
ATOM     12  C   UNL     1      -0.076  11.419  20.738  0.00  0.00    +0.000 A 
ENDBRANCH   4   6
BRANCH   1  14
ATOM     13  S   UNL     1       4.180   6.526  17.589  0.00  0.00    +0.000 S 
ATOM     14  C   UNL     1       3.117   6.719  18.881  0.00  0.00    +0.000 C 
BRANCH  14  15
ATOM     15  N   UNL     1       3.052   5.851  19.954  0.00  0.00    +0.000 N 
ATOM     16  H   UNL     1       3.966   5.666  20.355  0.00  0.00    +0.000 HD
BRANCH  15  17
ATOM     17  C   UNL     1       1.937   4.958  20.254  0.00  0.00    +0.000 C 
ATOM     18  C   UNL     1       1.628   4.010  19.095  0.00  0.00    +0.000 C 
ATOM     19  C   UNL     1       0.814   2.895  19.730  0.00  0.00    +0.000 C 
ATOM     20  C   UNL     1       1.317   2.788  21.166  0.00  0.00    +0.000 C 
ATOM     21  C   UNL     1       2.229   3.994  21.404  0.00  0.00    +0.000 C 
ENDBRANCH  15  17
ENDBRANCH  14  15
ENDBRANCH   1  14
TORSDOF 4
ENDMDL
MODEL 7
REMARK VINA RESULT:      -7.0      0.928      1.108
REMARK  Name = 
REMARK  4 active torsions:
REMARK  status: ('A' for Active; 'I' for Inactive)
REMARK    1  A    between atoms: C_2  and  N_3
REMARK    2  A    between atoms: C_2  and  N_9
REMARK    3  A    between atoms: N_3  and  C_4
REMARK    4  A    between atoms: C_12  and  C_13
REMARK                            x       y       z     vdW  Elec       q    Type
REMARK                         _______ _______ _______ _____ _____    ______ ____
ROOT
ATOM      1  N   UNL     1       4.432   5.290  17.529  0.00  0.00    +0.000 N 
ATOM      2  C   UNL     1       5.632   6.004  17.947  0.00  0.00    +0.000 C 
ATOM      3  C   UNL     1       6.642   5.722  16.862  0.00  0.00    +0.000 C 
ATOM      4  C   UNL     1       5.761   5.061  15.836  0.00  0.00    +0.000 C 
ATOM      5  N   UNL     1       4.544   4.799  16.230  0.00  0.00    +0.000 NA
ENDROOT
BRANCH   4   6
ATOM      6  C   UNL     1       6.316   4.755  14.488  0.00  0.00    +0.000 A 
ATOM      7  C   UNL     1       7.429   5.450  14.011  0.00  0.00    +0.000 A 
ATOM      8  C   UNL     1       7.959   5.164  12.750  0.00  0.00    +0.000 A 
ATOM      9  C   UNL     1       7.375   4.176  11.951  0.00  0.00    +0.000 A 
ATOM     10  C   UNL     1       6.269   3.476  12.424  0.00  0.00    +0.000 A 
ATOM     11 BR   UNL     1       5.471   2.140  11.352  0.00  0.00    +0.000 Br
ATOM     12  C   UNL     1       5.738   3.759  13.684  0.00  0.00    +0.000 A 
ENDBRANCH   4   6
BRANCH   1  14
ATOM     13  S   UNL     1       2.688   6.655  19.100  0.00  0.00    +0.000 S 
ATOM     14  C   UNL     1       3.218   5.318  18.225  0.00  0.00    +0.000 C 
BRANCH  14  15
ATOM     15  N   UNL     1       2.494   4.146  18.104  0.00  0.00    +0.000 N 
ATOM     16  H   UNL     1       1.904   4.142  17.279  0.00  0.00    +0.000 HD
BRANCH  15  17
ATOM     17  C   UNL     1       2.236   3.196  19.181  0.00  0.00    +0.000 C 
ATOM     18  C   UNL     1       3.344   3.202  20.235  0.00  0.00    +0.000 C 
ATOM     19  C   UNL     1       2.707   2.551  21.451  0.00  0.00    +0.000 C 
ATOM     20  C   UNL     1       1.225   2.905  21.376  0.00  0.00    +0.000 C 
ATOM     21  C   UNL     1       0.993   3.538  20.002  0.00  0.00    +0.000 C 
ENDBRANCH  15  17
ENDBRANCH  14  15
ENDBRANCH   1  14
TORSDOF 4
ENDMDL
MODEL 8
REMARK VINA RESULT:      -6.9      3.848      7.533
REMARK  Name = 
REMARK  4 active torsions:
REMARK  status: ('A' for Active; 'I' for Inactive)
REMARK    1  A    between atoms: C_2  and  N_3
REMARK    2  A    between atoms: C_2  and  N_9
REMARK    3  A    between atoms: N_3  and  C_4
REMARK    4  A    between atoms: C_12  and  C_13
REMARK                            x       y       z     vdW  Elec       q    Type
REMARK                         _______ _______ _______ _____ _____    ______ ____
ROOT
ATOM      1  N   UNL     1       4.678   4.921  17.547  0.00  0.00    +0.000 N 
ATOM      2  C   UNL     1       3.499   4.079  17.712  0.00  0.00    +0.000 C 
ATOM      3  C   UNL     1       2.480   4.974  18.373  0.00  0.00    +0.000 C 
ATOM      4  C   UNL     1       3.176   6.304  18.266  0.00  0.00    +0.000 C 
ATOM      5  N   UNL     1       4.407   6.257  17.834  0.00  0.00    +0.000 NA
ENDROOT
BRANCH   4   6
ATOM      6  C   UNL     1       2.443   7.542  18.650  0.00  0.00    +0.000 A 
ATOM      7  C   UNL     1       2.337   8.604  17.748  0.00  0.00    +0.000 A 
ATOM      8  C   UNL     1       1.646   9.767  18.099  0.00  0.00    +0.000 A 
ATOM      9  C   UNL     1       1.055   9.879  19.362  0.00  0.00    +0.000 A 
ATOM     10  C   UNL     1       1.154   8.822  20.261  0.00  0.00    +0.000 A 
ATOM     11 BR   UNL     1       0.361   8.963  21.971  0.00  0.00    +0.000 Br
ATOM     12  C   UNL     1       1.842   7.658  19.913  0.00  0.00    +0.000 A 
ENDBRANCH   4   6
BRANCH   1  14
ATOM     13  S   UNL     1       7.384   4.702  17.613  0.00  0.00    +0.000 S 
ATOM     14  C   UNL     1       5.860   4.506  16.923  0.00  0.00    +0.000 C 
BRANCH  14  15
ATOM     15  N   UNL     1       5.646   3.904  15.698  0.00  0.00    +0.000 N 
ATOM     16  H   UNL     1       5.536   2.898  15.777  0.00  0.00    +0.000 HD
BRANCH  15  17
ATOM     17  C   UNL     1       5.950   4.497  14.399  0.00  0.00    +0.000 C 
ATOM     18  C   UNL     1       7.408   4.948  14.296  0.00  0.00    +0.000 C 
ATOM     19  C   UNL     1       7.654   5.081  12.803  0.00  0.00    +0.000 C 
ATOM     20  C   UNL     1       6.749   4.045  12.145  0.00  0.00    +0.000 C 
ATOM     21  C   UNL     1       5.825   3.508  13.240  0.00  0.00    +0.000 C 
ENDBRANCH  15  17
ENDBRANCH  14  15
ENDBRANCH   1  14
TORSDOF 4
ENDMDL
MODEL 9
REMARK VINA RESULT:      -6.9      4.839      7.440
REMARK  Name = 
REMARK  4 active torsions:
REMARK  status: ('A' for Active; 'I' for Inactive)
REMARK    1  A    between atoms: C_2  and  N_3
REMARK    2  A    between atoms: C_2  and  N_9
REMARK    3  A    between atoms: N_3  and  C_4
REMARK    4  A    between atoms: C_12  and  C_13
REMARK                            x       y       z     vdW  Elec       q    Type
REMARK                         _______ _______ _______ _____ _____    ______ ____
ROOT
ATOM      1  N   UNL     1       3.411   6.379  18.520  0.00  0.00    +0.000 N 
ATOM      2  C   UNL     1       3.444   7.405  17.485  0.00  0.00    +0.000 C 
ATOM      3  C   UNL     1       2.414   8.418  17.921  0.00  0.00    +0.000 C 
ATOM      4  C   UNL     1       2.110   7.918  19.306  0.00  0.00    +0.000 C 
ATOM      5  N   UNL     1       2.646   6.768  19.616  0.00  0.00    +0.000 NA
ENDROOT
BRANCH   4   6
ATOM      6  C   UNL     1       1.243   8.734  20.202  0.00  0.00    +0.000 A 
ATOM      7  C   UNL     1       1.206   8.473  21.573  0.00  0.00    +0.000 A 
ATOM      8  C   UNL     1       0.400   9.238  22.421  0.00  0.00    +0.000 A 
ATOM      9  C   UNL     1      -0.380  10.275  21.901  0.00  0.00    +0.000 A 
ATOM     10  C   UNL     1      -0.342  10.543  20.536  0.00  0.00    +0.000 A 
ATOM     11 BR   UNL     1      -1.395  11.941  19.821  0.00  0.00    +0.000 Br
ATOM     12  C   UNL     1       0.463   9.781  19.686  0.00  0.00    +0.000 A 
ENDBRANCH   4   6
BRANCH   1  14
ATOM     13  S   UNL     1       5.822   5.300  19.151  0.00  0.00    +0.000 S 
ATOM     14  C   UNL     1       4.252   5.260  18.544  0.00  0.00    +0.000 C 
BRANCH  14  15
ATOM     15  N   UNL     1       3.655   4.120  18.040  0.00  0.00    +0.000 N 
ATOM     16  H   UNL     1       3.627   4.117  17.025  0.00  0.00    +0.000 HD
BRANCH  15  17
ATOM     17  C   UNL     1       2.787   3.217  18.789  0.00  0.00    +0.000 C 
ATOM     18  C   UNL     1       3.032   3.297  20.296  0.00  0.00    +0.000 C 
ATOM     19  C   UNL     1       1.781   2.692  20.911  0.00  0.00    +0.000 C 
ATOM     20  C   UNL     1       0.651   3.009  19.938  0.00  0.00    +0.000 C 
ATOM     21  C   UNL     1       1.305   3.571  18.673  0.00  0.00    +0.000 C 
ENDBRANCH  15  17
ENDBRANCH  14  15
ENDBRANCH   1  14
TORSDOF 4
ENDMDL
