MODEL 1
REMARK VINA RESULT:      -8.2      0.000      0.000
REMARK  Name = 
REMARK  12 active torsions:
REMARK  status: ('A' for Active; 'I' for Inactive)
REMARK    1  A    between atoms: C_1  and  C_2
REMARK    2  A    between atoms: C_5  and  C_6
REMARK    3  A    between atoms: C_6  and  C_7
REMARK    4  A    between atoms: C_6  and  C_8
REMARK    5  A    between atoms: N_9  and  C_10
REMARK    6  A    between atoms: N_13  and  C_14
REMARK    7  A    between atoms: C_14  and  C_15
REMARK    8  A    between atoms: C_14  and  C_16
REMARK    9  A    between atoms: C_16  and  C_17
REMARK   10  A    between atoms: C_17  and  N_18
REMARK   11  A    between atoms: C_17  and  C_25
REMARK   12  A    between atoms: C_19  and  C_21
REMARK                            x       y       z     vdW  Elec       q    Type
REMARK                         _______ _______ _______ _____ _____    ______ ____
ROOT
ATOM      1  C   UNL     1       0.700   9.867  19.636  0.00  0.00    +0.000 C 
ATOM      2  C   UNL     1       1.281  10.911  18.663  0.00  0.00    +0.000 C 
ENDROOT
BRANCH   1   6
ATOM      3  C   UNL     1       3.195   6.254  19.527  0.00  0.00    +0.000 C 
ATOM      4  C   UNL     1       2.734   6.904  18.208  0.00  0.00    +0.000 C 
ATOM      5  C   UNL     1       2.304   8.378  18.395  0.00  0.00    +0.000 C 
ATOM      6  N   UNL     1       1.314   8.524  19.472  0.00  0.00    +0.000 NA
ATOM      7  C   UNL     1       1.814   7.961  20.733  0.00  0.00    +0.000 C 
ATOM      8  C   UNL     1       2.092   6.460  20.572  0.00  0.00    +0.000 C 
BRANCH   3  14
ATOM      9  C   UNL     1       6.185   5.224  18.936  0.00  0.00    +0.000 C 
ATOM     10  C   UNL     1       4.980   4.428  19.228  0.00  0.00    +0.000 A 
ATOM     11  N   UNL     1       5.004   3.116  19.269  0.00  0.00    +0.000 NA
ATOM     12  N   UNL     1       3.751   2.673  19.500  0.00  0.00    +0.000 NA
ATOM     13  C   UNL     1       2.944   3.706  19.608  0.00  0.00    +0.000 A 
ATOM     14  N   UNL     1       3.692   4.875  19.463  0.00  0.00    +0.000 N 
BRANCH  13  15
ATOM     15  C   UNL     1       1.480   3.518  19.873  0.00  0.00    +0.000 C 
ATOM     16  C   UNL     1       0.765   2.847  18.704  0.00  0.00    +0.000 C 
ATOM     17  C   UNL     1       1.160   2.909  21.230  0.00  0.00    +0.000 C 
ENDBRANCH  13  15
ENDBRANCH   3  14
ENDBRANCH   1   6
BRANCH   1  18
ATOM     18  C   UNL     1      -0.857   9.945  19.552  0.00  0.00    +0.000 C 
BRANCH  18  19
ATOM     19  C   UNL     1      -1.544  11.180  18.919  0.00  0.00    +0.000 C 
BRANCH  19  20
ATOM     20  C   UNL     1      -2.389  10.906  17.687  0.00  0.00    +0.000 A 
ATOM     21  C   UNL     1      -3.639  11.523  17.527  0.00  0.00    +0.000 A 
ATOM     22  C   UNL     1      -4.406  11.296  16.379  0.00  0.00    +0.000 A 
ATOM     23  C   UNL     1      -3.936  10.447  15.382  0.00  0.00    +0.000 A 
ATOM     24  C   UNL     1      -2.726   9.786  15.555  0.00  0.00    +0.000 A 
ATOM     25  C   UNL     1      -1.965  10.008  16.698  0.00  0.00    +0.000 A 
ENDBRANCH  19  20
BRANCH  19  26
ATOM     26  N   UNL     1      -2.303  11.977  19.876  0.00  0.00    +0.000 N 
ATOM     27  C   UNL     1      -1.896  13.218  20.316  0.00  0.00    +0.000 C 
ATOM     28  O   UNL     1      -0.787  13.681  20.052  0.00  0.00    +0.000 OA
ATOM     29  H   UNL     1      -3.259  11.702  20.063  0.00  0.00    +0.000 HD
BRANCH  27  30
ATOM     30  C   UNL     1      -2.996  13.946  21.133  0.00  0.00    +0.000 C 
ATOM     31  C   UNL     1      -4.478  13.602  20.806  0.00  0.00    +0.000 C 
ATOM     32  C   UNL     1      -4.782  13.840  22.297  0.00  0.00    +0.000 C 
ATOM     33  C   UNL     1      -3.315  13.449  22.571  0.00  0.00    +0.000 C 
ENDBRANCH  27  30
ENDBRANCH  19  26
ENDBRANCH  18  19
ENDBRANCH   1  18
TORSDOF 8
ENDMDL
MODEL 2
REMARK VINA RESULT:      -8.1      3.583     10.353
REMARK  Name = 
REMARK  12 active torsions:
REMARK  status: ('A' for Active; 'I' for Inactive)
REMARK    1  A    between atoms: C_1  and  C_2
REMARK    2  A    between atoms: C_5  and  C_6
REMARK    3  A    between atoms: C_6  and  C_7
REMARK    4  A    between atoms: C_6  and  C_8
REMARK    5  A    between atoms: N_9  and  C_10
REMARK    6  A    between atoms: N_13  and  C_14
REMARK    7  A    between atoms: C_14  and  C_15
REMARK    8  A    between atoms: C_14  and  C_16
REMARK    9  A    between atoms: C_16  and  C_17
REMARK   10  A    between atoms: C_17  and  N_18
REMARK   11  A    between atoms: C_17  and  C_25
REMARK   12  A    between atoms: C_19  and  C_21
REMARK                            x       y       z     vdW  Elec       q    Type
REMARK                         _______ _______ _______ _____ _____    ______ ____
ROOT
ATOM      1  C   UNL     1       3.122   6.160  19.244  0.00  0.00    +0.000 C 
ATOM      2  C   UNL     1       2.685   5.168  20.339  0.00  0.00    +0.000 C 
ENDROOT
BRANCH   1   6
ATOM      3  C   UNL     1       1.085  10.040  18.967  0.00  0.00    +0.000 C 
ATOM      4  C   UNL     1       0.719   9.065  20.102  0.00  0.00    +0.000 C 
ATOM      5  C   UNL     1       1.821   8.007  20.348  0.00  0.00    +0.000 C 
ATOM      6  N   UNL     1       2.196   7.313  19.108  0.00  0.00    +0.000 NA
ATOM      7  C   UNL     1       2.610   8.266  18.070  0.00  0.00    +0.000 C 
ATOM      8  C   UNL     1       1.453   9.214  17.728  0.00  0.00    +0.000 C 
BRANCH   3  14
ATOM      9  C   UNL     1      -1.963   9.855  17.955  0.00  0.00    +0.000 C 
ATOM     10  C   UNL     1      -1.171  11.057  18.270  0.00  0.00    +0.000 A 
ATOM     11  N   UNL     1      -1.664  12.268  18.149  0.00  0.00    +0.000 NA
ATOM     12  N   UNL     1      -0.693  13.156  18.450  0.00  0.00    +0.000 NA
ATOM     13  C   UNL     1       0.404  12.502  18.763  0.00  0.00    +0.000 A 
ATOM     14  N   UNL     1       0.146  11.133  18.686  0.00  0.00    +0.000 N 
BRANCH  13  15
ATOM     15  C   UNL     1       1.655  13.233  19.150  0.00  0.00    +0.000 C 
ATOM     16  C   UNL     1       1.997  13.047  20.625  0.00  0.00    +0.000 C 
ATOM     17  C   UNL     1       2.828  13.015  18.206  0.00  0.00    +0.000 C 
ENDBRANCH  13  15
ENDBRANCH   3  14
ENDBRANCH   1   6
BRANCH   1  18
ATOM     18  C   UNL     1       3.425   5.343  17.948  0.00  0.00    +0.000 C 
BRANCH  18  19
ATOM     19  C   UNL     1       4.601   5.750  17.025  0.00  0.00    +0.000 C 
BRANCH  19  20
ATOM     20  C   UNL     1       5.894   6.122  17.729  0.00  0.00    +0.000 A 
ATOM     21  C   UNL     1       6.392   5.329  18.774  0.00  0.00    +0.000 A 
ATOM     22  C   UNL     1       7.598   5.653  19.403  0.00  0.00    +0.000 A 
ATOM     23  C   UNL     1       8.317   6.775  19.001  0.00  0.00    +0.000 A 
ATOM     24  C   UNL     1       7.806   7.599  18.006  0.00  0.00    +0.000 A 
ATOM     25  C   UNL     1       6.604   7.279  17.383  0.00  0.00    +0.000 A 
ENDBRANCH  19  20
BRANCH  19  26
ATOM     26  N   UNL     1       4.870   4.783  15.967  0.00  0.00    +0.000 N 
ATOM     27  C   UNL     1       5.404   5.130  14.745  0.00  0.00    +0.000 C 
ATOM     28  O   UNL     1       5.552   6.302  14.398  0.00  0.00    +0.000 OA
ATOM     29  H   UNL     1       4.860   3.801  16.213  0.00  0.00    +0.000 HD
BRANCH  27  30
ATOM     30  C   UNL     1       5.814   3.892  13.905  0.00  0.00    +0.000 C 
ATOM     31  C   UNL     1       4.920   3.525  12.685  0.00  0.00    +0.000 C 
ATOM     32  C   UNL     1       6.201   3.024  11.995  0.00  0.00    +0.000 C 
ATOM     33  C   UNL     1       6.968   4.032  12.875  0.00  0.00    +0.000 C 
ENDBRANCH  27  30
ENDBRANCH  19  26
ENDBRANCH  18  19
ENDBRANCH   1  18
TORSDOF 8
ENDMDL
MODEL 3
REMARK VINA RESULT:      -8.0      2.247      4.754
REMARK  Name = 
REMARK  12 active torsions:
REMARK  status: ('A' for Active; 'I' for Inactive)
REMARK    1  A    between atoms: C_1  and  C_2
REMARK    2  A    between atoms: C_5  and  C_6
REMARK    3  A    between atoms: C_6  and  C_7
REMARK    4  A    between atoms: C_6  and  C_8
REMARK    5  A    between atoms: N_9  and  C_10
REMARK    6  A    between atoms: N_13  and  C_14
REMARK    7  A    between atoms: C_14  and  C_15
REMARK    8  A    between atoms: C_14  and  C_16
REMARK    9  A    between atoms: C_16  and  C_17
REMARK   10  A    between atoms: C_17  and  N_18
REMARK   11  A    between atoms: C_17  and  C_25
REMARK   12  A    between atoms: C_19  and  C_21
REMARK                            x       y       z     vdW  Elec       q    Type
REMARK                         _______ _______ _______ _____ _____    ______ ____
ROOT
ATOM      1  C   UNL     1       0.444   9.827  20.465  0.00  0.00    +0.000 C 
ATOM      2  C   UNL     1       0.342   9.595  21.985  0.00  0.00    +0.000 C 
ENDROOT
BRANCH   1   6
ATOM      3  C   UNL     1       3.067   6.767  18.719  0.00  0.00    +0.000 C 
ATOM      4  C   UNL     1       2.329   7.757  17.797  0.00  0.00    +0.000 C 
ATOM      5  C   UNL     1       1.862   9.027  18.548  0.00  0.00    +0.000 C 
ATOM      6  N   UNL     1       1.088   8.694  19.752  0.00  0.00    +0.000 NA
ATOM      7  C   UNL     1       1.848   7.809  20.644  0.00  0.00    +0.000 C 
ATOM      8  C   UNL     1       2.172   6.488  19.933  0.00  0.00    +0.000 C 
BRANCH   3  14
ATOM      9  C   UNL     1       1.499   4.158  17.679  0.00  0.00    +0.000 C 
ATOM     10  C   UNL     1       2.945   4.438  17.638  0.00  0.00    +0.000 A 
ATOM     11  N   UNL     1       3.808   3.580  17.146  0.00  0.00    +0.000 NA
ATOM     12  N   UNL     1       5.049   4.087  17.297  0.00  0.00    +0.000 NA
ATOM     13  C   UNL     1       4.963   5.263  17.880  0.00  0.00    +0.000 A 
ATOM     14  N   UNL     1       3.617   5.554  18.105  0.00  0.00    +0.000 N 
BRANCH  13  15
ATOM     15  C   UNL     1       6.192   6.071  18.174  0.00  0.00    +0.000 C 
ATOM     16  C   UNL     1       7.397   5.190  18.487  0.00  0.00    +0.000 C 
ATOM     17  C   UNL     1       6.474   7.176  17.167  0.00  0.00    +0.000 C 
ENDBRANCH  13  15
ENDBRANCH   3  14
ENDBRANCH   1   6
BRANCH   1  18
ATOM     18  C   UNL     1       1.056  11.245  20.234  0.00  0.00    +0.000 C 
BRANCH  18  19
ATOM     19  C   UNL     1       0.267  12.316  19.441  0.00  0.00    +0.000 C 
BRANCH  19  20
ATOM     20  C   UNL     1       1.061  13.541  19.018  0.00  0.00    +0.000 A 
ATOM     21  C   UNL     1       2.334  13.403  18.444  0.00  0.00    +0.000 A 
ATOM     22  C   UNL     1       3.054  14.526  18.026  0.00  0.00    +0.000 A 
ATOM     23  C   UNL     1       2.514  15.799  18.180  0.00  0.00    +0.000 A 
ATOM     24  C   UNL     1       1.279  15.952  18.797  0.00  0.00    +0.000 A 
ATOM     25  C   UNL     1       0.564  14.835  19.218  0.00  0.00    +0.000 A 
ENDBRANCH  19  20
BRANCH  19  26
ATOM     26  N   UNL     1      -0.460  11.775  18.299  0.00  0.00    +0.000 N 
ATOM     27  C   UNL     1      -1.837  11.757  18.221  0.00  0.00    +0.000 C 
ATOM     28  O   UNL     1      -2.556  12.057  19.173  0.00  0.00    +0.000 OA
ATOM     29  H   UNL     1       0.061  11.598  17.450  0.00  0.00    +0.000 HD
BRANCH  27  30
ATOM     30  C   UNL     1      -2.343  11.356  16.810  0.00  0.00    +0.000 C 
ATOM     31  C   UNL     1      -2.271   9.850  16.423  0.00  0.00    +0.000 C 
ATOM     32  C   UNL     1      -3.546  10.082  15.592  0.00  0.00    +0.000 C 
ATOM     33  C   UNL     1      -3.873  11.230  16.570  0.00  0.00    +0.000 C 
ENDBRANCH  27  30
ENDBRANCH  19  26
ENDBRANCH  18  19
ENDBRANCH   1  18
TORSDOF 8
ENDMDL
MODEL 4
REMARK VINA RESULT:      -7.8      0.920      1.331
REMARK  Name = 
REMARK  12 active torsions:
REMARK  status: ('A' for Active; 'I' for Inactive)
REMARK    1  A    between atoms: C_1  and  C_2
REMARK    2  A    between atoms: C_5  and  C_6
REMARK    3  A    between atoms: C_6  and  C_7
REMARK    4  A    between atoms: C_6  and  C_8
REMARK    5  A    between atoms: N_9  and  C_10
REMARK    6  A    between atoms: N_13  and  C_14
REMARK    7  A    between atoms: C_14  and  C_15
REMARK    8  A    between atoms: C_14  and  C_16
REMARK    9  A    between atoms: C_16  and  C_17
REMARK   10  A    between atoms: C_17  and  N_18
REMARK   11  A    between atoms: C_17  and  C_25
REMARK   12  A    between atoms: C_19  and  C_21
REMARK                            x       y       z     vdW  Elec       q    Type
REMARK                         _______ _______ _______ _____ _____    ______ ____
ROOT
ATOM      1  C   UNL     1       0.947   9.874  18.970  0.00  0.00    +0.000 C 
ATOM      2  C   UNL     1       1.804  10.900  18.204  0.00  0.00    +0.000 C 
ENDROOT
BRANCH   1   6
ATOM      3  C   UNL     1       3.328   6.203  19.347  0.00  0.00    +0.000 C 
ATOM      4  C   UNL     1       3.026   6.777  17.950  0.00  0.00    +0.000 C 
ATOM      5  C   UNL     1       2.624   8.271  17.999  0.00  0.00    +0.000 C 
ATOM      6  N   UNL     1       1.533   8.509  18.955  0.00  0.00    +0.000 NA
ATOM      7  C   UNL     1       1.882   8.017  20.294  0.00  0.00    +0.000 C 
ATOM      8  C   UNL     1       2.129   6.503  20.256  0.00  0.00    +0.000 C 
BRANCH   3  14
ATOM      9  C   UNL     1       6.306   5.048  18.963  0.00  0.00    +0.000 C 
ATOM     10  C   UNL     1       5.069   4.312  19.276  0.00  0.00    +0.000 A 
ATOM     11  N   UNL     1       5.053   3.009  19.430  0.00  0.00    +0.000 NA
ATOM     12  N   UNL     1       3.779   2.620  19.649  0.00  0.00    +0.000 NA
ATOM     13  C   UNL     1       2.999   3.679  19.637  0.00  0.00    +0.000 A 
ATOM     14  N   UNL     1       3.786   4.811  19.421  0.00  0.00    +0.000 N 
BRANCH  13  15
ATOM     15  C   UNL     1       1.522   3.553  19.859  0.00  0.00    +0.000 C 
ATOM     16  C   UNL     1       0.813   2.916  18.668  0.00  0.00    +0.000 C 
ATOM     17  C   UNL     1       1.138   2.955  21.205  0.00  0.00    +0.000 C 
ENDBRANCH  13  15
ENDBRANCH   3  14
ENDBRANCH   1   6
BRANCH   1  18
ATOM     18  C   UNL     1      -0.527  10.013  18.475  0.00  0.00    +0.000 C 
BRANCH  18  19
ATOM     19  C   UNL     1      -1.342  11.291  18.797  0.00  0.00    +0.000 C 
BRANCH  19  20
ATOM     20  C   UNL     1      -2.716  11.377  18.155  0.00  0.00    +0.000 A 
ATOM     21  C   UNL     1      -3.827  11.796  18.902  0.00  0.00    +0.000 A 
ATOM     22  C   UNL     1      -5.088  11.906  18.306  0.00  0.00    +0.000 A 
ATOM     23  C   UNL     1      -5.254  11.592  16.960  0.00  0.00    +0.000 A 
ATOM     24  C   UNL     1      -4.173  11.121  16.225  0.00  0.00    +0.000 A 
ATOM     25  C   UNL     1      -2.920  11.008  16.819  0.00  0.00    +0.000 A 
ENDBRANCH  19  20
BRANCH  19  26
ATOM     26  N   UNL     1      -1.440  11.572  20.225  0.00  0.00    +0.000 N 
ATOM     27  C   UNL     1      -1.063  12.774  20.785  0.00  0.00    +0.000 C 
ATOM     28  O   UNL     1      -0.471  13.643  20.146  0.00  0.00    +0.000 OA
ATOM     29  H   UNL     1      -1.997  10.944  20.790  0.00  0.00    +0.000 HD
BRANCH  27  30
ATOM     30  C   UNL     1      -1.496  12.895  22.270  0.00  0.00    +0.000 C 
ATOM     31  C   UNL     1      -0.918  14.084  23.091  0.00  0.00    +0.000 C 
ATOM     32  C   UNL     1      -2.250  14.098  23.863  0.00  0.00    +0.000 C 
ATOM     33  C   UNL     1      -2.892  13.493  22.597  0.00  0.00    +0.000 C 
ENDBRANCH  27  30
ENDBRANCH  19  26
ENDBRANCH  18  19
ENDBRANCH   1  18
TORSDOF 8
ENDMDL
MODEL 5
REMARK VINA RESULT:      -7.8      1.205      2.651
REMARK  Name = 
REMARK  12 active torsions:
REMARK  status: ('A' for Active; 'I' for Inactive)
REMARK    1  A    between atoms: C_1  and  C_2
REMARK    2  A    between atoms: C_5  and  C_6
REMARK    3  A    between atoms: C_6  and  C_7
REMARK    4  A    between atoms: C_6  and  C_8
REMARK    5  A    between atoms: N_9  and  C_10
REMARK    6  A    between atoms: N_13  and  C_14
REMARK    7  A    between atoms: C_14  and  C_15
REMARK    8  A    between atoms: C_14  and  C_16
REMARK    9  A    between atoms: C_16  and  C_17
REMARK   10  A    between atoms: C_17  and  N_18
REMARK   11  A    between atoms: C_17  and  C_25
REMARK   12  A    between atoms: C_19  and  C_21
REMARK                            x       y       z     vdW  Elec       q    Type
REMARK                         _______ _______ _______ _____ _____    ______ ____
ROOT
ATOM      1  C   UNL     1       1.105  10.177  19.691  0.00  0.00    +0.000 C 
ATOM      2  C   UNL     1       1.435  11.324  18.717  0.00  0.00    +0.000 C 
ENDROOT
BRANCH   1   6
ATOM      3  C   UNL     1       2.577   6.220  18.483  0.00  0.00    +0.000 C 
ATOM      4  C   UNL     1       2.583   6.614  19.972  0.00  0.00    +0.000 C 
ATOM      5  C   UNL     1       1.617   7.785  20.276  0.00  0.00    +0.000 C 
ATOM      6  N   UNL     1       1.856   8.931  19.388  0.00  0.00    +0.000 NA
ATOM      7  C   UNL     1       1.771   8.536  17.975  0.00  0.00    +0.000 C 
ATOM      8  C   UNL     1       2.839   7.483  17.653  0.00  0.00    +0.000 C 
BRANCH   3  14
ATOM      9  C   UNL     1       1.645   3.232  17.739  0.00  0.00    +0.000 C 
ATOM     10  C   UNL     1       3.007   3.794  17.745  0.00  0.00    +0.000 A 
ATOM     11  N   UNL     1       4.060   3.074  17.436  0.00  0.00    +0.000 NA
ATOM     12  N   UNL     1       5.160   3.840  17.587  0.00  0.00    +0.000 NA
ATOM     13  C   UNL     1       4.797   5.040  17.986  0.00  0.00    +0.000 A 
ATOM     14  N   UNL     1       3.405   5.075  18.085  0.00  0.00    +0.000 N 
BRANCH  13  15
ATOM     15  C   UNL     1       5.814   6.113  18.233  0.00  0.00    +0.000 C 
ATOM     16  C   UNL     1       6.915   5.654  19.184  0.00  0.00    +0.000 C 
ATOM     17  C   UNL     1       6.325   6.797  16.974  0.00  0.00    +0.000 C 
ENDBRANCH  13  15
ENDBRANCH   3  14
ENDBRANCH   1   6
BRANCH   1  18
ATOM     18  C   UNL     1      -0.449  10.058  19.786  0.00  0.00    +0.000 C 
BRANCH  18  19
ATOM     19  C   UNL     1      -1.350  11.247  19.370  0.00  0.00    +0.000 C 
BRANCH  19  20
ATOM     20  C   UNL     1      -2.240  11.009  18.161  0.00  0.00    +0.000 A 
ATOM     21  C   UNL     1      -3.487  11.642  18.059  0.00  0.00    +0.000 A 
ATOM     22  C   UNL     1      -4.296  11.449  16.934  0.00  0.00    +0.000 A 
ATOM     23  C   UNL     1      -3.870  10.618  15.902  0.00  0.00    +0.000 A 
ATOM     24  C   UNL     1      -2.661   9.942  16.018  0.00  0.00    +0.000 A 
ATOM     25  C   UNL     1      -1.860  10.131  17.139  0.00  0.00    +0.000 A 
ENDBRANCH  19  20
BRANCH  19  26
ATOM     26  N   UNL     1      -2.138  11.792  20.469  0.00  0.00    +0.000 N 
ATOM     27  C   UNL     1      -1.822  12.970  21.113  0.00  0.00    +0.000 C 
ATOM     28  O   UNL     1      -0.768  13.571  20.911  0.00  0.00    +0.000 OA
ATOM     29  H   UNL     1      -3.059  11.403  20.625  0.00  0.00    +0.000 HD
BRANCH  27  30
ATOM     30  C   UNL     1      -2.950  13.440  22.070  0.00  0.00    +0.000 C 
ATOM     31  C   UNL     1      -4.412  13.061  21.697  0.00  0.00    +0.000 C 
ATOM     32  C   UNL     1      -4.694  12.978  23.208  0.00  0.00    +0.000 C 
ATOM     33  C   UNL     1      -3.197  12.648  23.383  0.00  0.00    +0.000 C 
ENDBRANCH  27  30
ENDBRANCH  19  26
ENDBRANCH  18  19
ENDBRANCH   1  18
TORSDOF 8
ENDMDL
MODEL 6
REMARK VINA RESULT:      -7.8      1.414      2.899
REMARK  Name = 
REMARK  12 active torsions:
REMARK  status: ('A' for Active; 'I' for Inactive)
REMARK    1  A    between atoms: C_1  and  C_2
REMARK    2  A    between atoms: C_5  and  C_6
REMARK    3  A    between atoms: C_6  and  C_7
REMARK    4  A    between atoms: C_6  and  C_8
REMARK    5  A    between atoms: N_9  and  C_10
REMARK    6  A    between atoms: N_13  and  C_14
REMARK    7  A    between atoms: C_14  and  C_15
REMARK    8  A    between atoms: C_14  and  C_16
REMARK    9  A    between atoms: C_16  and  C_17
REMARK   10  A    between atoms: C_17  and  N_18
REMARK   11  A    between atoms: C_17  and  C_25
REMARK   12  A    between atoms: C_19  and  C_21
REMARK                            x       y       z     vdW  Elec       q    Type
REMARK                         _______ _______ _______ _____ _____    ______ ____
ROOT
ATOM      1  C   UNL     1       0.300   9.876  20.138  0.00  0.00    +0.000 C 
ATOM      2  C   UNL     1       0.923  10.303  21.482  0.00  0.00    +0.000 C 
ENDROOT
BRANCH   1   6
ATOM      3  C   UNL     1       3.105   6.844  18.646  0.00  0.00    +0.000 C 
ATOM      4  C   UNL     1       2.355   7.747  17.648  0.00  0.00    +0.000 C 
ATOM      5  C   UNL     1       1.811   9.036  18.312  0.00  0.00    +0.000 C 
ATOM      6  N   UNL     1       1.014   8.735  19.510  0.00  0.00    +0.000 NA
ATOM      7  C   UNL     1       1.783   7.935  20.473  0.00  0.00    +0.000 C 
ATOM      8  C   UNL     1       2.185   6.593  19.847  0.00  0.00    +0.000 C 
BRANCH   3  14
ATOM      9  C   UNL     1       1.680   4.133  17.661  0.00  0.00    +0.000 C 
ATOM     10  C   UNL     1       3.116   4.464  17.674  0.00  0.00    +0.000 A 
ATOM     11  N   UNL     1       4.030   3.616  17.265  0.00  0.00    +0.000 NA
ATOM     12  N   UNL     1       5.245   4.175  17.449  0.00  0.00    +0.000 NA
ATOM     13  C   UNL     1       5.090   5.373  17.969  0.00  0.00    +0.000 A 
ATOM     14  N   UNL     1       3.725   5.624  18.117  0.00  0.00    +0.000 N 
BRANCH  13  15
ATOM     15  C   UNL     1       6.275   6.238  18.281  0.00  0.00    +0.000 C 
ATOM     16  C   UNL     1       7.477   5.421  18.743  0.00  0.00    +0.000 C 
ATOM     17  C   UNL     1       6.598   7.271  17.211  0.00  0.00    +0.000 C 
ENDBRANCH  13  15
ENDBRANCH   3  14
ENDBRANCH   1   6
BRANCH   1  18
ATOM     18  C   UNL     1       0.111  11.157  19.266  0.00  0.00    +0.000 C 
BRANCH  18  19
ATOM     19  C   UNL     1      -1.290  11.800  19.117  0.00  0.00    +0.000 C 
BRANCH  19  20
ATOM     20  C   UNL     1      -2.150  11.256  17.988  0.00  0.00    +0.000 A 
ATOM     21  C   UNL     1      -1.650  10.272  17.122  0.00  0.00    +0.000 A 
ATOM     22  C   UNL     1      -2.449   9.746  16.102  0.00  0.00    +0.000 A 
ATOM     23  C   UNL     1      -3.754  10.202  15.932  0.00  0.00    +0.000 A 
ATOM     24  C   UNL     1      -4.240  11.215  16.748  0.00  0.00    +0.000 A 
ATOM     25  C   UNL     1      -3.443  11.741  17.760  0.00  0.00    +0.000 A 
ENDBRANCH  19  20
BRANCH  19  26
ATOM     26  N   UNL     1      -2.054  11.824  20.359  0.00  0.00    +0.000 N 
ATOM     27  C   UNL     1      -2.373  12.987  21.027  0.00  0.00    +0.000 C 
ATOM     28  O   UNL     1      -1.907  14.080  20.709  0.00  0.00    +0.000 OA
ATOM     29  H   UNL     1      -2.543  10.979  20.626  0.00  0.00    +0.000 HD
BRANCH  27  30
ATOM     30  C   UNL     1      -3.389  12.748  22.175  0.00  0.00    +0.000 C 
ATOM     31  C   UNL     1      -2.869  12.039  23.458  0.00  0.00    +0.000 C 
ATOM     32  C   UNL     1      -3.876  12.895  24.247  0.00  0.00    +0.000 C 
ATOM     33  C   UNL     1      -3.753  13.933  23.112  0.00  0.00    +0.000 C 
ENDBRANCH  27  30
ENDBRANCH  19  26
ENDBRANCH  18  19
ENDBRANCH   1  18
TORSDOF 8
ENDMDL
MODEL 7
REMARK VINA RESULT:      -7.7      0.940      1.700
REMARK  Name = 
REMARK  12 active torsions:
REMARK  status: ('A' for Active; 'I' for Inactive)
REMARK    1  A    between atoms: C_1  and  C_2
REMARK    2  A    between atoms: C_5  and  C_6
REMARK    3  A    between atoms: C_6  and  C_7
REMARK    4  A    between atoms: C_6  and  C_8
REMARK    5  A    between atoms: N_9  and  C_10
REMARK    6  A    between atoms: N_13  and  C_14
REMARK    7  A    between atoms: C_14  and  C_15
REMARK    8  A    between atoms: C_14  and  C_16
REMARK    9  A    between atoms: C_16  and  C_17
REMARK   10  A    between atoms: C_17  and  N_18
REMARK   11  A    between atoms: C_17  and  C_25
REMARK   12  A    between atoms: C_19  and  C_21
REMARK                            x       y       z     vdW  Elec       q    Type
REMARK                         _______ _______ _______ _____ _____    ______ ____
ROOT
ATOM      1  C   UNL     1       1.366   9.722  19.316  0.00  0.00    +0.000 C 
ATOM      2  C   UNL     1       1.742  10.421  17.995  0.00  0.00    +0.000 C 
ENDROOT
BRANCH   1   6
ATOM      3  C   UNL     1       2.734   5.550  19.386  0.00  0.00    +0.000 C 
ATOM      4  C   UNL     1       2.374   6.257  20.706  0.00  0.00    +0.000 C 
ATOM      5  C   UNL     1       1.475   7.498  20.485  0.00  0.00    +0.000 C 
ATOM      6  N   UNL     1       2.051   8.416  19.492  0.00  0.00    +0.000 NA
ATOM      7  C   UNL     1       2.315   7.728  18.221  0.00  0.00    +0.000 C 
ATOM      8  C   UNL     1       3.327   6.594  18.432  0.00  0.00    +0.000 C 
BRANCH   3  14
ATOM      9  C   UNL     1       5.914   5.185  19.061  0.00  0.00    +0.000 C 
ATOM     10  C   UNL     1       4.897   4.160  19.355  0.00  0.00    +0.000 A 
ATOM     11  N   UNL     1       5.208   2.895  19.515  0.00  0.00    +0.000 NA
ATOM     12  N   UNL     1       4.071   2.197  19.712  0.00  0.00    +0.000 NA
ATOM     13  C   UNL     1       3.049   3.025  19.681  0.00  0.00    +0.000 A 
ATOM     14  N   UNL     1       3.528   4.319  19.474  0.00  0.00    +0.000 N 
BRANCH  13  15
ATOM     15  C   UNL     1       1.648   2.529  19.878  0.00  0.00    +0.000 C 
ATOM     16  C   UNL     1       1.094   2.897  21.251  0.00  0.00    +0.000 C 
ATOM     17  C   UNL     1       0.704   2.836  18.724  0.00  0.00    +0.000 C 
ENDBRANCH  13  15
ENDBRANCH   3  14
ENDBRANCH   1   6
BRANCH   1  18
ATOM     18  C   UNL     1      -0.191   9.724  19.435  0.00  0.00    +0.000 C 
BRANCH  18  19
ATOM     19  C   UNL     1      -0.997  11.009  19.122  0.00  0.00    +0.000 C 
BRANCH  19  20
ATOM     20  C   UNL     1      -2.063  10.874  18.048  0.00  0.00    +0.000 A 
ATOM     21  C   UNL     1      -1.860  10.034  16.943  0.00  0.00    +0.000 A 
ATOM     22  C   UNL     1      -2.852   9.885  15.968  0.00  0.00    +0.000 A 
ATOM     23  C   UNL     1      -4.054  10.576  16.083  0.00  0.00    +0.000 A 
ATOM     24  C   UNL     1      -4.244  11.454  17.144  0.00  0.00    +0.000 A 
ATOM     25  C   UNL     1      -3.256  11.606  18.111  0.00  0.00    +0.000 A 
ENDBRANCH  19  20
BRANCH  19  26
ATOM     26  N   UNL     1      -1.562  11.644  20.308  0.00  0.00    +0.000 N 
ATOM     27  C   UNL     1      -1.072  12.817  20.841  0.00  0.00    +0.000 C 
ATOM     28  O   UNL     1      -0.027  13.335  20.449  0.00  0.00    +0.000 OA
ATOM     29  H   UNL     1      -2.469  11.326  20.624  0.00  0.00    +0.000 HD
BRANCH  27  30
ATOM     30  C   UNL     1      -1.998  13.397  21.943  0.00  0.00    +0.000 C 
ATOM     31  C   UNL     1      -2.976  12.413  22.649  0.00  0.00    +0.000 C 
ATOM     32  C   UNL     1      -2.796  13.266  23.917  0.00  0.00    +0.000 C 
ATOM     33  C   UNL     1      -1.411  13.653  23.358  0.00  0.00    +0.000 C 
ENDBRANCH  27  30
ENDBRANCH  19  26
ENDBRANCH  18  19
ENDBRANCH   1  18
TORSDOF 8
ENDMDL
MODEL 8
REMARK VINA RESULT:      -7.7      0.645      1.271
REMARK  Name = 
REMARK  12 active torsions:
REMARK  status: ('A' for Active; 'I' for Inactive)
REMARK    1  A    between atoms: C_1  and  C_2
REMARK    2  A    between atoms: C_5  and  C_6
REMARK    3  A    between atoms: C_6  and  C_7
REMARK    4  A    between atoms: C_6  and  C_8
REMARK    5  A    between atoms: N_9  and  C_10
REMARK    6  A    between atoms: N_13  and  C_14
REMARK    7  A    between atoms: C_14  and  C_15
REMARK    8  A    between atoms: C_14  and  C_16
REMARK    9  A    between atoms: C_16  and  C_17
REMARK   10  A    between atoms: C_17  and  N_18
REMARK   11  A    between atoms: C_17  and  C_25
REMARK   12  A    between atoms: C_19  and  C_21
REMARK                            x       y       z     vdW  Elec       q    Type
REMARK                         _______ _______ _______ _____ _____    ______ ____
ROOT
ATOM      1  C   UNL     1       1.317   9.739  19.281  0.00  0.00    +0.000 C 
ATOM      2  C   UNL     1       1.728  10.478  17.992  0.00  0.00    +0.000 C 
ENDROOT
BRANCH   1   6
ATOM      3  C   UNL     1       2.710   5.576  19.362  0.00  0.00    +0.000 C 
ATOM      4  C   UNL     1       2.412   6.307  20.685  0.00  0.00    +0.000 C 
ATOM      5  C   UNL     1       1.497   7.539  20.485  0.00  0.00    +0.000 C 
ATOM      6  N   UNL     1       2.017   8.440  19.447  0.00  0.00    +0.000 NA
ATOM      7  C   UNL     1       2.221   7.729  18.178  0.00  0.00    +0.000 C 
ATOM      8  C   UNL     1       3.249   6.604  18.359  0.00  0.00    +0.000 C 
BRANCH   3  14
ATOM      9  C   UNL     1       5.888   5.236  18.989  0.00  0.00    +0.000 C 
ATOM     10  C   UNL     1       4.883   4.202  19.294  0.00  0.00    +0.000 A 
ATOM     11  N   UNL     1       5.205   2.939  19.445  0.00  0.00    +0.000 NA
ATOM     12  N   UNL     1       4.076   2.232  19.657  0.00  0.00    +0.000 NA
ATOM     13  C   UNL     1       3.048   3.052  19.644  0.00  0.00    +0.000 A 
ATOM     14  N   UNL     1       3.514   4.350  19.434  0.00  0.00    +0.000 N 
BRANCH  13  15
ATOM     15  C   UNL     1       1.653   2.545  19.859  0.00  0.00    +0.000 C 
ATOM     16  C   UNL     1       1.111   2.919  21.235  0.00  0.00    +0.000 C 
ATOM     17  C   UNL     1       0.695   2.834  18.713  0.00  0.00    +0.000 C 
ENDBRANCH  13  15
ENDBRANCH   3  14
ENDBRANCH   1   6
BRANCH   1  18
ATOM     18  C   UNL     1      -0.243   9.713  19.344  0.00  0.00    +0.000 C 
BRANCH  18  19
ATOM     19  C   UNL     1      -1.059  10.991  19.028  0.00  0.00    +0.000 C 
BRANCH  19  20
ATOM     20  C   UNL     1      -2.118  10.849  17.947  0.00  0.00    +0.000 A 
ATOM     21  C   UNL     1      -3.325  11.557  18.034  0.00  0.00    +0.000 A 
ATOM     22  C   UNL     1      -4.289  11.451  17.026  0.00  0.00    +0.000 A 
ATOM     23  C   UNL     1      -4.059  10.633  15.923  0.00  0.00    +0.000 A 
ATOM     24  C   UNL     1      -2.891   9.884  15.854  0.00  0.00    +0.000 A 
ATOM     25  C   UNL     1      -1.935   9.986  16.859  0.00  0.00    +0.000 A 
ENDBRANCH  19  20
BRANCH  19  26
ATOM     26  N   UNL     1      -1.637  11.618  20.211  0.00  0.00    +0.000 N 
ATOM     27  C   UNL     1      -1.275  12.873  20.654  0.00  0.00    +0.000 C 
ATOM     28  O   UNL     1      -0.328  13.495  20.173  0.00  0.00    +0.000 OA
ATOM     29  H   UNL     1      -2.478  11.208  20.598  0.00  0.00    +0.000 HD
BRANCH  27  30
ATOM     30  C   UNL     1      -2.208  13.395  21.778  0.00  0.00    +0.000 C 
ATOM     31  C   UNL     1      -3.466  14.203  21.348  0.00  0.00    +0.000 C 
ATOM     32  C   UNL     1      -4.178  13.599  22.573  0.00  0.00    +0.000 C 
ATOM     33  C   UNL     1      -3.207  12.407  22.443  0.00  0.00    +0.000 C 
ENDBRANCH  27  30
ENDBRANCH  19  26
ENDBRANCH  18  19
ENDBRANCH   1  18
TORSDOF 8
ENDMDL
MODEL 9
REMARK VINA RESULT:      -7.7      1.064      1.408
REMARK  Name = 
REMARK  12 active torsions:
REMARK  status: ('A' for Active; 'I' for Inactive)
REMARK    1  A    between atoms: C_1  and  C_2
REMARK    2  A    between atoms: C_5  and  C_6
REMARK    3  A    between atoms: C_6  and  C_7
REMARK    4  A    between atoms: C_6  and  C_8
REMARK    5  A    between atoms: N_9  and  C_10
REMARK    6  A    between atoms: N_13  and  C_14
REMARK    7  A    between atoms: C_14  and  C_15
REMARK    8  A    between atoms: C_14  and  C_16
REMARK    9  A    between atoms: C_16  and  C_17
REMARK   10  A    between atoms: C_17  and  N_18
REMARK   11  A    between atoms: C_17  and  C_25
REMARK   12  A    between atoms: C_19  and  C_21
REMARK                            x       y       z     vdW  Elec       q    Type
REMARK                         _______ _______ _______ _____ _____    ______ ____
ROOT
ATOM      1  C   UNL     1       0.824  10.592  19.769  0.00  0.00    +0.000 C 
ATOM      2  C   UNL     1       1.182  11.747  18.814  0.00  0.00    +0.000 C 
ENDROOT
BRANCH   1   6
ATOM      3  C   UNL     1       2.304   6.633  18.576  0.00  0.00    +0.000 C 
ATOM      4  C   UNL     1       2.304   7.032  20.064  0.00  0.00    +0.000 C 
ATOM      5  C   UNL     1       1.336   8.202  20.362  0.00  0.00    +0.000 C 
ATOM      6  N   UNL     1       1.577   9.346  19.472  0.00  0.00    +0.000 NA
ATOM      7  C   UNL     1       1.498   8.948  18.060  0.00  0.00    +0.000 C 
ATOM      8  C   UNL     1       2.568   7.894  17.745  0.00  0.00    +0.000 C 
BRANCH   3  14
ATOM      9  C   UNL     1       4.889   6.590  16.662  0.00  0.00    +0.000 C 
ATOM     10  C   UNL     1       4.257   5.468  17.378  0.00  0.00    +0.000 A 
ATOM     11  N   UNL     1       4.713   4.240  17.290  0.00  0.00    +0.000 NA
ATOM     12  N   UNL     1       3.901   3.431  18.001  0.00  0.00    +0.000 NA
ATOM     13  C   UNL     1       2.940   4.151  18.537  0.00  0.00    +0.000 A 
ATOM     14  N   UNL     1       3.133   5.488  18.184  0.00  0.00    +0.000 N 
BRANCH  13  15
ATOM     15  C   UNL     1       1.884   3.517  19.392  0.00  0.00    +0.000 C 
ATOM     16  C   UNL     1       1.076   2.473  18.628  0.00  0.00    +0.000 C 
ATOM     17  C   UNL     1       2.375   3.050  20.754  0.00  0.00    +0.000 C 
ENDBRANCH  13  15
ENDBRANCH   3  14
ENDBRANCH   1   6
BRANCH   1  18
ATOM     18  C   UNL     1      -0.732  10.479  19.827  0.00  0.00    +0.000 C 
BRANCH  18  19
ATOM     19  C   UNL     1      -1.619  11.566  19.171  0.00  0.00    +0.000 C 
BRANCH  19  20
ATOM     20  C   UNL     1      -2.392  11.131  17.937  0.00  0.00    +0.000 A 
ATOM     21  C   UNL     1      -3.676  11.637  17.685  0.00  0.00    +0.000 A 
ATOM     22  C   UNL     1      -4.378  11.262  16.536  0.00  0.00    +0.000 A 
ATOM     23  C   UNL     1      -3.809  10.373  15.628  0.00  0.00    +0.000 A 
ATOM     24  C   UNL     1      -2.562   9.822  15.896  0.00  0.00    +0.000 A 
ATOM     25  C   UNL     1      -1.865  10.192  17.042  0.00  0.00    +0.000 A 
ENDBRANCH  19  20
BRANCH  19  26
ATOM     26  N   UNL     1      -2.513  12.232  20.111  0.00  0.00    +0.000 N 
ATOM     27  C   UNL     1      -2.317  13.522  20.556  0.00  0.00    +0.000 C 
ATOM     28  O   UNL     1      -1.290  14.155  20.313  0.00  0.00    +0.000 OA
ATOM     29  H   UNL     1      -3.418  11.809  20.279  0.00  0.00    +0.000 HD
BRANCH  27  30
ATOM     30  C   UNL     1      -3.535  14.065  21.349  0.00  0.00    +0.000 C 
ATOM     31  C   UNL     1      -4.708  13.080  21.626  0.00  0.00    +0.000 C 
ATOM     32  C   UNL     1      -4.925  13.833  22.951  0.00  0.00    +0.000 C 
ATOM     33  C   UNL     1      -3.426  14.194  22.894  0.00  0.00    +0.000 C 
ENDBRANCH  27  30
ENDBRANCH  19  26
ENDBRANCH  18  19
ENDBRANCH   1  18
TORSDOF 8
ENDMDL
