MODEL 1
REMARK VINA RESULT:      -9.0      0.000      0.000
REMARK  Name = 
REMARK  7 active torsions:
REMARK  status: ('A' for Active; 'I' for Inactive)
REMARK    1  A    between atoms: C_1  and  O_2
REMARK    2  A    between atoms: O_2  and  C_3
REMARK    3  A    between atoms: C_6  and  C_7
REMARK    4  A    between atoms: N_11  and  C_12
REMARK    5  A    between atoms: C_15  and  C_16
REMARK    6  A    between atoms: C_16  and  O_18
REMARK    7  A    between atoms: C_22  and  C_23
REMARK                            x       y       z     vdW  Elec       q    Type
REMARK                         _______ _______ _______ _____ _____    ______ ____
ROOT
ATOM      1  C   UNL     1       4.036   3.804  18.890  0.00  0.00    +0.000 C 
ATOM      2  C   UNL     1       2.978   4.511  19.317  0.00  0.00    +0.000 C 
ATOM      3  C   UNL     1       2.520   5.835  18.867  0.00  0.00    +0.000 C 
ATOM      4  O   UNL     1       2.643   6.292  17.746  0.00  0.00    +0.000 OA
ATOM      5  N   UNL     1       1.949   6.363  20.028  0.00  0.00    +0.000 N 
ATOM      6  N   UNL     1       1.698   5.404  21.011  0.00  0.00    +0.000 NA
ATOM      7  C   UNL     1       2.204   4.276  20.555  0.00  0.00    +0.000 C 
ENDROOT
BRANCH   1  11
ATOM      8  C   UNL     1       6.850   5.216  15.923  0.00  0.00    +0.000 A 
ATOM      9  C   UNL     1       5.983   4.165  15.626  0.00  0.00    +0.000 A 
ATOM     10  C   UNL     1       5.077   3.675  16.574  0.00  0.00    +0.000 A 
ATOM     11  C   UNL     1       5.049   4.182  17.876  0.00  0.00    +0.000 A 
ATOM     12  C   UNL     1       5.920   5.237  18.173  0.00  0.00    +0.000 A 
ATOM     13  C   UNL     1       6.798   5.771  17.206  0.00  0.00    +0.000 A 
ATOM     14 BR   UNL     1       7.727   7.337  17.754  0.00  0.00    +0.000 Br
BRANCH   8  16
ATOM     15  C   UNL     1       7.365   4.952  13.607  0.00  0.00    +0.000 C 
ATOM     16  O   UNL     1       7.564   5.634  14.835  0.00  0.00    +0.000 OA
ENDBRANCH   8  16
ENDBRANCH   1  11
BRANCH   5  17
ATOM     17  C   UNL     1       1.588   7.712  20.249  0.00  0.00    +0.000 A 
ATOM     18  C   UNL     1       1.213   8.160  21.523  0.00  0.00    +0.000 A 
ATOM     19  C   UNL     1       0.856   9.492  21.744  0.00  0.00    +0.000 A 
ATOM     20  C   UNL     1       0.841  10.402  20.688  0.00  0.00    +0.000 A 
ATOM     21  C   UNL     1       1.190   9.970  19.404  0.00  0.00    +0.000 A 
ATOM     22  C   UNL     1       1.559   8.632  19.189  0.00  0.00    +0.000 A 
BRANCH  20  23
ATOM     23  C   UNL     1       0.508  11.813  21.012  0.00  0.00    +0.000 C 
ATOM     24  O   UNL     1      -0.635  12.220  21.079  0.00  0.00    +0.000 OA
BRANCH  23  25
ATOM     25  O   UNL     1       1.583  12.611  21.182  0.00  0.00    +0.000 OA
ATOM     26  H   UNL     1       2.387  12.165  21.501  0.00  0.00    +0.000 HD
ENDBRANCH  23  25
ENDBRANCH  20  23
ENDBRANCH   5  17
BRANCH   7  27
ATOM     27  C   UNL     1       2.008   2.924  21.183  0.00  0.00    +0.000 C 
ATOM     28  F   UNL     1       3.130   2.447  21.790  0.00  0.00    +0.000 F 
ATOM     29  F   UNL     1       1.032   2.923  22.127  0.00  0.00    +0.000 F 
ATOM     30  F   UNL     1       1.658   1.984  20.262  0.00  0.00    +0.000 F 
ENDBRANCH   7  27
TORSDOF 6
ENDMDL
MODEL 2
REMARK VINA RESULT:      -8.9      0.288      1.254
REMARK  Name = 
REMARK  7 active torsions:
REMARK  status: ('A' for Active; 'I' for Inactive)
REMARK    1  A    between atoms: C_1  and  O_2
REMARK    2  A    between atoms: O_2  and  C_3
REMARK    3  A    between atoms: C_6  and  C_7
REMARK    4  A    between atoms: N_11  and  C_12
REMARK    5  A    between atoms: C_15  and  C_16
REMARK    6  A    between atoms: C_16  and  O_18
REMARK    7  A    between atoms: C_22  and  C_23
REMARK                            x       y       z     vdW  Elec       q    Type
REMARK                         _______ _______ _______ _____ _____    ______ ____
ROOT
ATOM      1  C   UNL     1       4.021   3.761  18.892  0.00  0.00    +0.000 C 
ATOM      2  C   UNL     1       2.960   4.470  19.309  0.00  0.00    +0.000 C 
ATOM      3  C   UNL     1       2.504   5.791  18.849  0.00  0.00    +0.000 C 
ATOM      4  O   UNL     1       2.634   6.243  17.726  0.00  0.00    +0.000 OA
ATOM      5  N   UNL     1       1.926   6.325  20.004  0.00  0.00    +0.000 N 
ATOM      6  N   UNL     1       1.670   5.371  20.990  0.00  0.00    +0.000 NA
ATOM      7  C   UNL     1       2.179   4.241  20.544  0.00  0.00    +0.000 C 
ENDROOT
BRANCH   1  11
ATOM      8  C   UNL     1       6.854   5.161  15.937  0.00  0.00    +0.000 A 
ATOM      9  C   UNL     1       5.981   4.115  15.635  0.00  0.00    +0.000 A 
ATOM     10  C   UNL     1       5.069   3.630  16.579  0.00  0.00    +0.000 A 
ATOM     11  C   UNL     1       5.039   4.134  17.882  0.00  0.00    +0.000 A 
ATOM     12  C   UNL     1       5.916   5.184  18.184  0.00  0.00    +0.000 A 
ATOM     13  C   UNL     1       6.800   5.713  17.221  0.00  0.00    +0.000 A 
ATOM     14 BR   UNL     1       7.738   7.272  17.774  0.00  0.00    +0.000 Br
BRANCH   8  16
ATOM     15  C   UNL     1       7.361   4.910  13.617  0.00  0.00    +0.000 C 
ATOM     16  O   UNL     1       7.574   5.576  14.852  0.00  0.00    +0.000 OA
ENDBRANCH   8  16
ENDBRANCH   1  11
BRANCH   5  17
ATOM     17  C   UNL     1       1.563   7.675  20.216  0.00  0.00    +0.000 A 
ATOM     18  C   UNL     1       1.600   8.606  19.169  0.00  0.00    +0.000 A 
ATOM     19  C   UNL     1       1.241   9.940  19.375  0.00  0.00    +0.000 A 
ATOM     20  C   UNL     1       0.861  10.379  20.643  0.00  0.00    +0.000 A 
ATOM     21  C   UNL     1       0.839   9.471  21.707  0.00  0.00    +0.000 A 
ATOM     22  C   UNL     1       1.190   8.128  21.492  0.00  0.00    +0.000 A 
BRANCH  20  23
ATOM     23  C   UNL     1       0.437  11.797  20.772  0.00  0.00    +0.000 C 
ATOM     24  O   UNL     1       0.859  12.533  21.641  0.00  0.00    +0.000 OA
BRANCH  23  25
ATOM     25  O   UNL     1      -0.487  12.183  19.867  0.00  0.00    +0.000 OA
ATOM     26  H   UNL     1      -1.413  12.055  20.137  0.00  0.00    +0.000 HD
ENDBRANCH  23  25
ENDBRANCH  20  23
ENDBRANCH   5  17
BRANCH   7  27
ATOM     27  C   UNL     1       1.979   2.892  21.176  0.00  0.00    +0.000 C 
ATOM     28  F   UNL     1       1.724   1.908  20.270  0.00  0.00    +0.000 F 
ATOM     29  F   UNL     1       3.060   2.483  21.889  0.00  0.00    +0.000 F 
ATOM     30  F   UNL     1       0.923   2.886  22.035  0.00  0.00    +0.000 F 
ENDBRANCH   7  27
TORSDOF 6
ENDMDL
MODEL 3
REMARK VINA RESULT:      -8.2      2.423      7.601
REMARK  Name = 
REMARK  7 active torsions:
REMARK  status: ('A' for Active; 'I' for Inactive)
REMARK    1  A    between atoms: C_1  and  O_2
REMARK    2  A    between atoms: O_2  and  C_3
REMARK    3  A    between atoms: C_6  and  C_7
REMARK    4  A    between atoms: N_11  and  C_12
REMARK    5  A    between atoms: C_15  and  C_16
REMARK    6  A    between atoms: C_16  and  O_18
REMARK    7  A    between atoms: C_22  and  C_23
REMARK                            x       y       z     vdW  Elec       q    Type
REMARK                         _______ _______ _______ _____ _____    ______ ____
ROOT
ATOM      1  C   UNL     1       1.994   5.682  19.992  0.00  0.00    +0.000 C 
ATOM      2  C   UNL     1       2.993   5.006  19.404  0.00  0.00    +0.000 C 
ATOM      3  C   UNL     1       4.149   5.538  18.666  0.00  0.00    +0.000 C 
ATOM      4  O   UNL     1       4.706   6.600  18.878  0.00  0.00    +0.000 OA
ATOM      5  N   UNL     1       4.390   4.535  17.724  0.00  0.00    +0.000 N 
ATOM      6  N   UNL     1       3.755   3.328  18.023  0.00  0.00    +0.000 NA
ATOM      7  C   UNL     1       3.009   3.562  19.083  0.00  0.00    +0.000 C 
ENDROOT
BRANCH   1  11
ATOM      8  C   UNL     1       1.003   9.890  20.154  0.00  0.00    +0.000 A 
ATOM      9  C   UNL     1       1.499   9.328  18.977  0.00  0.00    +0.000 A 
ATOM     10  C   UNL     1       1.846   7.975  18.903  0.00  0.00    +0.000 A 
ATOM     11  C   UNL     1       1.767   7.146  20.025  0.00  0.00    +0.000 A 
ATOM     12  C   UNL     1       1.270   7.711  21.206  0.00  0.00    +0.000 A 
ATOM     13  C   UNL     1       0.868   9.061  21.272  0.00  0.00    +0.000 A 
ATOM     14 BR   UNL     1       0.019   9.561  22.899  0.00  0.00    +0.000 Br
BRANCH   8  16
ATOM     15  C   UNL     1      -0.719  11.424  19.535  0.00  0.00    +0.000 C 
ATOM     16  O   UNL     1       0.604  11.187  19.991  0.00  0.00    +0.000 OA
ENDBRANCH   8  16
ENDBRANCH   1  11
BRANCH   5  17
ATOM     17  C   UNL     1       5.217   4.635  16.582  0.00  0.00    +0.000 A 
ATOM     18  C   UNL     1       4.719   4.350  15.303  0.00  0.00    +0.000 A 
ATOM     19  C   UNL     1       5.533   4.449  14.172  0.00  0.00    +0.000 A 
ATOM     20  C   UNL     1       6.874   4.809  14.299  0.00  0.00    +0.000 A 
ATOM     21  C   UNL     1       7.396   5.075  15.569  0.00  0.00    +0.000 A 
ATOM     22  C   UNL     1       6.571   4.986  16.701  0.00  0.00    +0.000 A 
BRANCH  20  23
ATOM     23  C   UNL     1       7.661   4.950  13.047  0.00  0.00    +0.000 C 
ATOM     24  O   UNL     1       7.405   4.327  12.036  0.00  0.00    +0.000 OA
BRANCH  23  25
ATOM     25  O   UNL     1       8.707   5.796  13.143  0.00  0.00    +0.000 OA
ATOM     26  H   UNL     1       9.579   5.403  12.962  0.00  0.00    +0.000 HD
ENDBRANCH  23  25
ENDBRANCH  20  23
ENDBRANCH   5  17
BRANCH   7  27
ATOM     27  C   UNL     1       2.289   2.512  19.883  0.00  0.00    +0.000 C 
ATOM     28  F   UNL     1       0.943   2.714  19.943  0.00  0.00    +0.000 F 
ATOM     29  F   UNL     1       2.465   1.262  19.383  0.00  0.00    +0.000 F 
ATOM     30  F   UNL     1       2.716   2.478  21.175  0.00  0.00    +0.000 F 
ENDBRANCH   7  27
TORSDOF 6
ENDMDL
MODEL 4
REMARK VINA RESULT:      -8.0      5.121      7.182
REMARK  Name = 
REMARK  7 active torsions:
REMARK  status: ('A' for Active; 'I' for Inactive)
REMARK    1  A    between atoms: C_1  and  O_2
REMARK    2  A    between atoms: O_2  and  C_3
REMARK    3  A    between atoms: C_6  and  C_7
REMARK    4  A    between atoms: N_11  and  C_12
REMARK    5  A    between atoms: C_15  and  C_16
REMARK    6  A    between atoms: C_16  and  O_18
REMARK    7  A    between atoms: C_22  and  C_23
REMARK                            x       y       z     vdW  Elec       q    Type
REMARK                         _______ _______ _______ _____ _____    ______ ____
ROOT
ATOM      1  C   UNL     1       4.259   3.726  16.312  0.00  0.00    +0.000 C 
ATOM      2  C   UNL     1       5.455   4.333  16.354  0.00  0.00    +0.000 C 
ATOM      3  C   UNL     1       6.130   4.948  17.509  0.00  0.00    +0.000 C 
ATOM      4  O   UNL     1       6.030   4.593  18.668  0.00  0.00    +0.000 OA
ATOM      5  N   UNL     1       6.857   5.981  16.913  0.00  0.00    +0.000 N 
ATOM      6  N   UNL     1       6.978   5.850  15.528  0.00  0.00    +0.000 NA
ATOM      7  C   UNL     1       6.241   4.810  15.196  0.00  0.00    +0.000 C 
ENDROOT
BRANCH   1  11
ATOM      8  C   UNL     1       1.634   3.318  19.727  0.00  0.00    +0.000 A 
ATOM      9  C   UNL     1       2.032   2.191  19.007  0.00  0.00    +0.000 A 
ATOM     10  C   UNL     1       2.864   2.297  17.887  0.00  0.00    +0.000 A 
ATOM     11  C   UNL     1       3.279   3.543  17.409  0.00  0.00    +0.000 A 
ATOM     12  C   UNL     1       2.878   4.673  18.133  0.00  0.00    +0.000 A 
ATOM     13  C   UNL     1       2.083   4.569  19.293  0.00  0.00    +0.000 A 
ATOM     14 BR   UNL     1       1.842   6.200  20.241  0.00  0.00    +0.000 Br
BRANCH   8  16
ATOM     15  C   UNL     1       1.652   2.488  21.966  0.00  0.00    +0.000 C 
ATOM     16  O   UNL     1       0.932   3.000  20.856  0.00  0.00    +0.000 OA
ENDBRANCH   8  16
ENDBRANCH   1  11
BRANCH   5  17
ATOM     17  C   UNL     1       7.481   7.062  17.577  0.00  0.00    +0.000 A 
ATOM     18  C   UNL     1       7.391   8.367  17.074  0.00  0.00    +0.000 A 
ATOM     19  C   UNL     1       8.006   9.438  17.728  0.00  0.00    +0.000 A 
ATOM     20  C   UNL     1       8.747   9.222  18.889  0.00  0.00    +0.000 A 
ATOM     21  C   UNL     1       8.868   7.923  19.395  0.00  0.00    +0.000 A 
ATOM     22  C   UNL     1       8.239   6.852  18.740  0.00  0.00    +0.000 A 
BRANCH  20  23
ATOM     23  C   UNL     1       9.322  10.416  19.560  0.00  0.00    +0.000 C 
ATOM     24  O   UNL     1       9.779  11.359  18.946  0.00  0.00    +0.000 OA
BRANCH  23  25
ATOM     25  O   UNL     1       9.330  10.343  20.908  0.00  0.00    +0.000 OA
ATOM     26  H   UNL     1      10.094  10.759  21.342  0.00  0.00    +0.000 HD
ENDBRANCH  23  25
ENDBRANCH  20  23
ENDBRANCH   5  17
BRANCH   7  27
ATOM     27  C   UNL     1       6.214   4.167  13.837  0.00  0.00    +0.000 C 
ATOM     28  F   UNL     1       7.142   4.681  12.983  0.00  0.00    +0.000 F 
ATOM     29  F   UNL     1       6.439   2.829  13.886  0.00  0.00    +0.000 F 
ATOM     30  F   UNL     1       5.012   4.337  13.221  0.00  0.00    +0.000 F 
ENDBRANCH   7  27
TORSDOF 6
ENDMDL
MODEL 5
REMARK VINA RESULT:      -8.0      5.088      7.172
REMARK  Name = 
REMARK  7 active torsions:
REMARK  status: ('A' for Active; 'I' for Inactive)
REMARK    1  A    between atoms: C_1  and  O_2
REMARK    2  A    between atoms: O_2  and  C_3
REMARK    3  A    between atoms: C_6  and  C_7
REMARK    4  A    between atoms: N_11  and  C_12
REMARK    5  A    between atoms: C_15  and  C_16
REMARK    6  A    between atoms: C_16  and  O_18
REMARK    7  A    between atoms: C_22  and  C_23
REMARK                            x       y       z     vdW  Elec       q    Type
REMARK                         _______ _______ _______ _____ _____    ______ ____
ROOT
ATOM      1  C   UNL     1       4.257   3.766  16.349  0.00  0.00    +0.000 C 
ATOM      2  C   UNL     1       5.454   4.372  16.377  0.00  0.00    +0.000 C 
ATOM      3  C   UNL     1       6.137   4.997  17.522  0.00  0.00    +0.000 C 
ATOM      4  O   UNL     1       6.044   4.652  18.686  0.00  0.00    +0.000 OA
ATOM      5  N   UNL     1       6.861   6.024  16.912  0.00  0.00    +0.000 N 
ATOM      6  N   UNL     1       6.973   5.880  15.528  0.00  0.00    +0.000 NA
ATOM      7  C   UNL     1       6.233   4.838  15.210  0.00  0.00    +0.000 C 
ENDROOT
BRANCH   1  11
ATOM      8  C   UNL     1       1.651   3.397  19.782  0.00  0.00    +0.000 A 
ATOM      9  C   UNL     1       2.063   2.260  19.086  0.00  0.00    +0.000 A 
ATOM     10  C   UNL     1       2.890   2.353  17.961  0.00  0.00    +0.000 A 
ATOM     11  C   UNL     1       3.284   3.593  17.453  0.00  0.00    +0.000 A 
ATOM     12  C   UNL     1       2.869   4.734  18.153  0.00  0.00    +0.000 A 
ATOM     13  C   UNL     1       2.081   4.645  19.319  0.00  0.00    +0.000 A 
ATOM     14 BR   UNL     1       1.819   6.293  20.230  0.00  0.00    +0.000 Br
BRANCH   8  16
ATOM     15  C   UNL     1       1.665   2.484  21.988  0.00  0.00    +0.000 C 
ATOM     16  O   UNL     1       0.958   3.095  20.920  0.00  0.00    +0.000 OA
ENDBRANCH   8  16
ENDBRANCH   1  11
BRANCH   5  17
ATOM     17  C   UNL     1       7.490   7.111  17.563  0.00  0.00    +0.000 A 
ATOM     18  C   UNL     1       8.250   6.915  18.724  0.00  0.00    +0.000 A 
ATOM     19  C   UNL     1       8.873   7.987  19.368  0.00  0.00    +0.000 A 
ATOM     20  C   UNL     1       8.727   9.284  18.879  0.00  0.00    +0.000 A 
ATOM     21  C   UNL     1       7.954   9.503  17.734  0.00  0.00    +0.000 A 
ATOM     22  C   UNL     1       7.339   8.422  17.083  0.00  0.00    +0.000 A 
BRANCH  20  23
ATOM     23  C   UNL     1       9.467  10.363  19.583  0.00  0.00    +0.000 C 
ATOM     24  O   UNL     1      10.172  11.164  19.002  0.00  0.00    +0.000 OA
BRANCH  23  25
ATOM     25  O   UNL     1       9.322  10.350  20.924  0.00  0.00    +0.000 OA
ATOM     26  H   UNL     1       9.846  11.013  21.406  0.00  0.00    +0.000 HD
ENDBRANCH  23  25
ENDBRANCH  20  23
ENDBRANCH   5  17
BRANCH   7  27
ATOM     27  C   UNL     1       6.197   4.184  13.857  0.00  0.00    +0.000 C 
ATOM     28  F   UNL     1       4.991   4.308  13.234  0.00  0.00    +0.000 F 
ATOM     29  F   UNL     1       7.121   4.694  13.004  0.00  0.00    +0.000 F 
ATOM     30  F   UNL     1       6.436   2.846  13.934  0.00  0.00    +0.000 F 
ENDBRANCH   7  27
TORSDOF 6
ENDMDL
MODEL 6
REMARK VINA RESULT:      -8.0      2.418      7.485
REMARK  Name = 
REMARK  7 active torsions:
REMARK  status: ('A' for Active; 'I' for Inactive)
REMARK    1  A    between atoms: C_1  and  O_2
REMARK    2  A    between atoms: O_2  and  C_3
REMARK    3  A    between atoms: C_6  and  C_7
REMARK    4  A    between atoms: N_11  and  C_12
REMARK    5  A    between atoms: C_15  and  C_16
REMARK    6  A    between atoms: C_16  and  O_18
REMARK    7  A    between atoms: C_22  and  C_23
REMARK                            x       y       z     vdW  Elec       q    Type
REMARK                         _______ _______ _______ _____ _____    ______ ____
ROOT
ATOM      1  C   UNL     1       1.458   6.227  20.520  0.00  0.00    +0.000 C 
ATOM      2  C   UNL     1       2.407   5.467  19.951  0.00  0.00    +0.000 C 
ATOM      3  C   UNL     1       3.574   5.896  19.163  0.00  0.00    +0.000 C 
ATOM      4  O   UNL     1       4.191   6.935  19.306  0.00  0.00    +0.000 OA
ATOM      5  N   UNL     1       3.739   4.832  18.272  0.00  0.00    +0.000 N 
ATOM      6  N   UNL     1       3.048   3.679  18.649  0.00  0.00    +0.000 NA
ATOM      7  C   UNL     1       2.339   4.009  19.708  0.00  0.00    +0.000 C 
ENDROOT
BRANCH   1  11
ATOM      8  C   UNL     1       0.691  10.484  20.422  0.00  0.00    +0.000 A 
ATOM      9  C   UNL     1       1.290   9.852  19.333  0.00  0.00    +0.000 A 
ATOM     10  C   UNL     1       1.568   8.480  19.346  0.00  0.00    +0.000 A 
ATOM     11  C   UNL     1       1.311   7.702  20.477  0.00  0.00    +0.000 A 
ATOM     12  C   UNL     1       0.710   8.337  21.571  0.00  0.00    +0.000 A 
ATOM     13  C   UNL     1       0.378   9.708  21.544  0.00  0.00    +0.000 A 
ATOM     14 BR   UNL     1      -0.627  10.314  23.039  0.00  0.00    +0.000 Br
BRANCH   8  16
ATOM     15  C   UNL     1      -0.560  12.071  19.151  0.00  0.00    +0.000 C 
ATOM     16  O   UNL     1       0.386  11.792  20.170  0.00  0.00    +0.000 OA
ENDBRANCH   8  16
ENDBRANCH   1  11
BRANCH   5  17
ATOM     17  C   UNL     1       4.545   4.825  17.111  0.00  0.00    +0.000 A 
ATOM     18  C   UNL     1       5.140   3.642  16.651  0.00  0.00    +0.000 A 
ATOM     19  C   UNL     1       5.936   3.632  15.503  0.00  0.00    +0.000 A 
ATOM     20  C   UNL     1       6.176   4.813  14.803  0.00  0.00    +0.000 A 
ATOM     21  C   UNL     1       5.610   6.009  15.258  0.00  0.00    +0.000 A 
ATOM     22  C   UNL     1       4.801   6.012  16.406  0.00  0.00    +0.000 A 
BRANCH  20  23
ATOM     23  C   UNL     1       6.983   4.713  13.560  0.00  0.00    +0.000 C 
ATOM     24  O   UNL     1       6.721   3.932  12.666  0.00  0.00    +0.000 OA
BRANCH  23  25
ATOM     25  O   UNL     1       8.054   5.533  13.527  0.00  0.00    +0.000 OA
ATOM     26  H   UNL     1       8.884   5.148  13.856  0.00  0.00    +0.000 HD
ENDBRANCH  23  25
ENDBRANCH  20  23
ENDBRANCH   5  17
BRANCH   7  27
ATOM     27  C   UNL     1       1.581   3.045  20.579  0.00  0.00    +0.000 C 
ATOM     28  F   UNL     1       1.846   1.741  20.288  0.00  0.00    +0.000 F 
ATOM     29  F   UNL     1       1.856   3.205  21.899  0.00  0.00    +0.000 F 
ATOM     30  F   UNL     1       0.235   3.189  20.441  0.00  0.00    +0.000 F 
ENDBRANCH   7  27
TORSDOF 6
ENDMDL
MODEL 7
REMARK VINA RESULT:      -8.0      4.830      8.423
REMARK  Name = 
REMARK  7 active torsions:
REMARK  status: ('A' for Active; 'I' for Inactive)
REMARK    1  A    between atoms: C_1  and  O_2
REMARK    2  A    between atoms: O_2  and  C_3
REMARK    3  A    between atoms: C_6  and  C_7
REMARK    4  A    between atoms: N_11  and  C_12
REMARK    5  A    between atoms: C_15  and  C_16
REMARK    6  A    between atoms: C_16  and  O_18
REMARK    7  A    between atoms: C_22  and  C_23
REMARK                            x       y       z     vdW  Elec       q    Type
REMARK                         _______ _______ _______ _____ _____    ______ ____
ROOT
ATOM      1  C   UNL     1      -1.201  10.271  19.655  0.00  0.00    +0.000 C 
ATOM      2  C   UNL     1       0.017   9.761  19.893  0.00  0.00    +0.000 C 
ATOM      3  C   UNL     1       1.014   9.280  18.923  0.00  0.00    +0.000 C 
ATOM      4  O   UNL     1       1.177   9.705  17.794  0.00  0.00    +0.000 OA
ATOM      5  N   UNL     1       1.660   8.267  19.637  0.00  0.00    +0.000 N 
ATOM      6  N   UNL     1       1.416   8.313  21.011  0.00  0.00    +0.000 NA
ATOM      7  C   UNL     1       0.528   9.268  21.191  0.00  0.00    +0.000 C 
ENDROOT
BRANCH   1  11
ATOM      8  C   UNL     1      -3.474  10.653  15.994  0.00  0.00    +0.000 A 
ATOM      9  C   UNL     1      -2.310   9.885  16.023  0.00  0.00    +0.000 A 
ATOM     10  C   UNL     1      -1.545   9.761  17.188  0.00  0.00    +0.000 A 
ATOM     11  C   UNL     1      -1.886  10.452  18.353  0.00  0.00    +0.000 A 
ATOM     12  C   UNL     1      -3.055  11.223  18.323  0.00  0.00    +0.000 A 
ATOM     13  C   UNL     1      -3.859  11.309  17.168  0.00  0.00    +0.000 A 
ATOM     14 BR   UNL     1      -5.507  12.225  17.411  0.00  0.00    +0.000 Br
BRANCH   8  16
ATOM     15  C   UNL     1      -3.454   9.997  13.698  0.00  0.00    +0.000 C 
ATOM     16  O   UNL     1      -4.145  10.547  14.808  0.00  0.00    +0.000 OA
ENDBRANCH   8  16
ENDBRANCH   1  11
BRANCH   5  17
ATOM     17  C   UNL     1       2.527   7.285  19.105  0.00  0.00    +0.000 A 
ATOM     18  C   UNL     1       3.283   7.537  17.953  0.00  0.00    +0.000 A 
ATOM     19  C   UNL     1       4.141   6.569  17.425  0.00  0.00    +0.000 A 
ATOM     20  C   UNL     1       4.241   5.315  18.026  0.00  0.00    +0.000 A 
ATOM     21  C   UNL     1       3.478   5.035  19.165  0.00  0.00    +0.000 A 
ATOM     22  C   UNL     1       2.625   6.016  19.697  0.00  0.00    +0.000 A 
BRANCH  20  23
ATOM     23  C   UNL     1       5.218   4.359  17.444  0.00  0.00    +0.000 C 
ATOM     24  O   UNL     1       5.096   3.893  16.328  0.00  0.00    +0.000 OA
BRANCH  23  25
ATOM     25  O   UNL     1       6.225   4.020  18.275  0.00  0.00    +0.000 OA
ATOM     26  H   UNL     1       7.119   4.091  17.896  0.00  0.00    +0.000 HD
ENDBRANCH  23  25
ENDBRANCH  20  23
ENDBRANCH   5  17
BRANCH   7  27
ATOM     27  C   UNL     1       0.100   9.812  22.526  0.00  0.00    +0.000 C 
ATOM     28  F   UNL     1      -0.032  11.168  22.535  0.00  0.00    +0.000 F 
ATOM     29  F   UNL     1      -1.092   9.310  22.938  0.00  0.00    +0.000 F 
ATOM     30  F   UNL     1       1.002   9.522  23.504  0.00  0.00    +0.000 F 
ENDBRANCH   7  27
TORSDOF 6
ENDMDL
MODEL 8
REMARK VINA RESULT:      -8.0      2.406      7.524
REMARK  Name = 
REMARK  7 active torsions:
REMARK  status: ('A' for Active; 'I' for Inactive)
REMARK    1  A    between atoms: C_1  and  O_2
REMARK    2  A    between atoms: O_2  and  C_3
REMARK    3  A    between atoms: C_6  and  C_7
REMARK    4  A    between atoms: N_11  and  C_12
REMARK    5  A    between atoms: C_15  and  C_16
REMARK    6  A    between atoms: C_16  and  O_18
REMARK    7  A    between atoms: C_22  and  C_23
REMARK                            x       y       z     vdW  Elec       q    Type
REMARK                         _______ _______ _______ _____ _____    ______ ____
ROOT
ATOM      1  C   UNL     1       1.445   6.251  20.540  0.00  0.00    +0.000 C 
ATOM      2  C   UNL     1       2.395   5.481  19.988  0.00  0.00    +0.000 C 
ATOM      3  C   UNL     1       3.564   5.896  19.195  0.00  0.00    +0.000 C 
ATOM      4  O   UNL     1       4.180   6.938  19.320  0.00  0.00    +0.000 OA
ATOM      5  N   UNL     1       3.733   4.815  18.325  0.00  0.00    +0.000 N 
ATOM      6  N   UNL     1       3.041   3.669  18.722  0.00  0.00    +0.000 NA
ATOM      7  C   UNL     1       2.330   4.019  19.773  0.00  0.00    +0.000 C 
ENDROOT
BRANCH   1  11
ATOM      8  C   UNL     1       0.674  10.504  20.360  0.00  0.00    +0.000 A 
ATOM      9  C   UNL     1       1.276   9.852  19.284  0.00  0.00    +0.000 A 
ATOM     10  C   UNL     1       1.555   8.481  19.324  0.00  0.00    +0.000 A 
ATOM     11  C   UNL     1       1.296   7.724  20.469  0.00  0.00    +0.000 A 
ATOM     12  C   UNL     1       0.692   8.380  21.549  0.00  0.00    +0.000 A 
ATOM     13  C   UNL     1       0.360   9.750  21.495  0.00  0.00    +0.000 A 
ATOM     14 BR   UNL     1      -0.649  10.383  22.977  0.00  0.00    +0.000 Br
BRANCH   8  16
ATOM     15  C   UNL     1      -0.927  12.095  19.582  0.00  0.00    +0.000 C 
ATOM     16  O   UNL     1       0.369  11.807  20.082  0.00  0.00    +0.000 OA
ENDBRANCH   8  16
ENDBRANCH   1  11
BRANCH   5  17
ATOM     17  C   UNL     1       4.542   4.787  17.166  0.00  0.00    +0.000 A 
ATOM     18  C   UNL     1       4.840   5.963  16.465  0.00  0.00    +0.000 A 
ATOM     19  C   UNL     1       5.639   5.939  15.319  0.00  0.00    +0.000 A 
ATOM     20  C   UNL     1       6.137   4.730  14.834  0.00  0.00    +0.000 A 
ATOM     21  C   UNL     1       5.832   3.542  15.506  0.00  0.00    +0.000 A 
ATOM     22  C   UNL     1       5.037   3.573  16.664  0.00  0.00    +0.000 A 
BRANCH  20  23
ATOM     23  C   UNL     1       7.027   4.791  13.646  0.00  0.00    +0.000 C 
ATOM     24  O   UNL     1       7.949   5.577  13.554  0.00  0.00    +0.000 OA
BRANCH  23  25
ATOM     25  O   UNL     1       6.699   3.926  12.664  0.00  0.00    +0.000 OA
ATOM     26  H   UNL     1       6.247   3.116  12.956  0.00  0.00    +0.000 HD
ENDBRANCH  23  25
ENDBRANCH  20  23
ENDBRANCH   5  17
BRANCH   7  27
ATOM     27  C   UNL     1       1.571   3.071  20.659  0.00  0.00    +0.000 C 
ATOM     28  F   UNL     1       1.811   3.269  21.985  0.00  0.00    +0.000 F 
ATOM     29  F   UNL     1       0.226   3.166  20.496  0.00  0.00    +0.000 F 
ATOM     30  F   UNL     1       1.901   1.773  20.414  0.00  0.00    +0.000 F 
ENDBRANCH   7  27
TORSDOF 6
ENDMDL
MODEL 9
REMARK VINA RESULT:      -8.0      2.385      7.505
REMARK  Name = 
REMARK  7 active torsions:
REMARK  status: ('A' for Active; 'I' for Inactive)
REMARK    1  A    between atoms: C_1  and  O_2
REMARK    2  A    between atoms: O_2  and  C_3
REMARK    3  A    between atoms: C_6  and  C_7
REMARK    4  A    between atoms: N_11  and  C_12
REMARK    5  A    between atoms: C_15  and  C_16
REMARK    6  A    between atoms: C_16  and  O_18
REMARK    7  A    between atoms: C_22  and  C_23
REMARK                            x       y       z     vdW  Elec       q    Type
REMARK                         _______ _______ _______ _____ _____    ______ ____
ROOT
ATOM      1  C   UNL     1       1.540   6.256  20.536  0.00  0.00    +0.000 C 
ATOM      2  C   UNL     1       2.493   5.491  19.981  0.00  0.00    +0.000 C 
ATOM      3  C   UNL     1       3.640   5.908  19.159  0.00  0.00    +0.000 C 
ATOM      4  O   UNL     1       4.241   6.963  19.252  0.00  0.00    +0.000 OA
ATOM      5  N   UNL     1       3.810   4.814  18.308  0.00  0.00    +0.000 N 
ATOM      6  N   UNL     1       3.145   3.664  18.739  0.00  0.00    +0.000 NA
ATOM      7  C   UNL     1       2.447   4.024  19.796  0.00  0.00    +0.000 C 
ENDROOT
BRANCH   1  11
ATOM      8  C   UNL     1       0.698  10.492  20.285  0.00  0.00    +0.000 A 
ATOM      9  C   UNL     1       1.299   9.830  19.215  0.00  0.00    +0.000 A 
ATOM     10  C   UNL     1       1.601   8.465  19.277  0.00  0.00    +0.000 A 
ATOM     11  C   UNL     1       1.366   7.725  20.440  0.00  0.00    +0.000 A 
ATOM     12  C   UNL     1       0.763   8.391  21.513  0.00  0.00    +0.000 A 
ATOM     13  C   UNL     1       0.407   9.754  21.437  0.00  0.00    +0.000 A 
ATOM     14 BR   UNL     1      -0.597  10.399  22.918  0.00  0.00    +0.000 Br
BRANCH   8  16
ATOM     15  C   UNL     1       1.344  12.790  20.212  0.00  0.00    +0.000 C 
ATOM     16  O   UNL     1       0.368  11.785  19.987  0.00  0.00    +0.000 OA
ENDBRANCH   8  16
ENDBRANCH   1  11
BRANCH   5  17
ATOM     17  C   UNL     1       4.598   4.775  17.134  0.00  0.00    +0.000 A 
ATOM     18  C   UNL     1       4.824   5.933  16.379  0.00  0.00    +0.000 A 
ATOM     19  C   UNL     1       5.603   5.899  15.219  0.00  0.00    +0.000 A 
ATOM     20  C   UNL     1       6.151   4.697  14.775  0.00  0.00    +0.000 A 
ATOM     21  C   UNL     1       5.918   3.525  15.502  0.00  0.00    +0.000 A 
ATOM     22  C   UNL     1       5.144   3.567  16.673  0.00  0.00    +0.000 A 
BRANCH  20  23
ATOM     23  C   UNL     1       7.015   4.749  13.567  0.00  0.00    +0.000 C 
ATOM     24  O   UNL     1       6.855   4.016  12.612  0.00  0.00    +0.000 OA
BRANCH  23  25
ATOM     25  O   UNL     1       8.016   5.651  13.641  0.00  0.00    +0.000 OA
ATOM     26  H   UNL     1       8.052   6.294  12.912  0.00  0.00    +0.000 HD
ENDBRANCH  23  25
ENDBRANCH  20  23
ENDBRANCH   5  17
BRANCH   7  27
ATOM     27  C   UNL     1       1.719   3.081  20.715  0.00  0.00    +0.000 C 
ATOM     28  F   UNL     1       0.366   3.230  20.673  0.00  0.00    +0.000 F 
ATOM     29  F   UNL     1       1.969   1.777  20.430  0.00  0.00    +0.000 F 
ATOM     30  F   UNL     1       2.072   3.269  22.016  0.00  0.00    +0.000 F 
ENDBRANCH   7  27
TORSDOF 6
ENDMDL
