MODEL 1
REMARK VINA RESULT:      -8.2      0.000      0.000
REMARK  Name = 
REMARK  8 active torsions:
REMARK  status: ('A' for Active; 'I' for Inactive)
REMARK    1  A    between atoms: C_1  and  C_2
REMARK    2  A    between atoms: C_2  and  N_3
REMARK    3  A    between atoms: N_3  and  C_4
REMARK    4  A    between atoms: C_4  and  C_5
REMARK    5  A    between atoms: C_8  and  C_9
REMARK    6  A    between atoms: N_14  and  C_15
REMARK    7  A    between atoms: C_19  and  S_20
REMARK    8  A    between atoms: S_20  and  N_21
REMARK                            x       y       z     vdW  Elec       q    Type
REMARK                         _______ _______ _______ _____ _____    ______ ____
ROOT
ATOM      1  C   UNL     1      -0.688  10.938  19.781  0.00  0.00    +0.000 A 
ATOM      2  C   UNL     1      -0.342  12.098  20.439  0.00  0.00    +0.000 A 
ATOM      3  C   UNL     1       0.644  11.980  21.391  0.00  0.00    +0.000 A 
ATOM      4  N   UNL     1       1.259  10.823  21.696  0.00  0.00    +0.000 NA
ATOM      5  C   UNL     1       0.889   9.747  20.991  0.00  0.00    +0.000 A 
ATOM      6  N   UNL     1       1.543   8.545  21.256  0.00  0.00    +0.000 N 
ATOM      7  N   UNL     1      -0.076   9.772  20.061  0.00  0.00    +0.000 NA
ATOM      8  H   UNL     1       2.166   8.629  22.046  0.00  0.00    +0.000 HD
ENDROOT
BRANCH   1  12
ATOM      9  N   UNL     1      -5.167  12.083  18.057  0.00  0.00    +0.000 N 
ATOM     10  C   UNL     1      -3.923  11.447  17.865  0.00  0.00    +0.000 A 
ATOM     11  C   UNL     1      -2.934  11.539  18.849  0.00  0.00    +0.000 A 
ATOM     12  C   UNL     1      -1.705  10.863  18.719  0.00  0.00    +0.000 A 
ATOM     13  C   UNL     1      -1.524  10.092  17.571  0.00  0.00    +0.000 A 
ATOM     14  C   UNL     1      -2.537  10.055  16.633  0.00  0.00    +0.000 A 
ATOM     15  N   UNL     1      -3.702  10.726  16.751  0.00  0.00    +0.000 NA
BRANCH   9  17
ATOM     16  C   UNL     1      -6.812  13.637  16.904  0.00  0.00    +0.000 C 
ATOM     17  C   UNL     1      -5.899  12.421  16.831  0.00  0.00    +0.000 C 
ENDBRANCH   9  17
BRANCH   9  18
ATOM     18  C   UNL     1      -5.866  11.572  19.246  0.00  0.00    +0.000 C 
ATOM     19  C   UNL     1      -6.761  10.363  19.024  0.00  0.00    +0.000 C 
ENDBRANCH   9  18
ENDBRANCH   1  12
BRANCH   6  20
ATOM     20  C   UNL     1       1.770   7.478  20.375  0.00  0.00    +0.000 A 
ATOM     21  C   UNL     1       2.203   7.735  19.068  0.00  0.00    +0.000 A 
ATOM     22  C   UNL     1       2.561   6.690  18.205  0.00  0.00    +0.000 A 
ATOM     23  C   UNL     1       2.482   5.370  18.637  0.00  0.00    +0.000 A 
ATOM     24  C   UNL     1       2.041   5.110  19.932  0.00  0.00    +0.000 A 
ATOM     25  C   UNL     1       1.675   6.147  20.790  0.00  0.00    +0.000 A 
BRANCH  24  26
ATOM     26  S   UNL     1       2.025   3.456  20.540  0.00  0.00    +0.000 S 
ATOM     27  O   UNL     1       2.826   2.615  19.679  0.00  0.00    +0.000 OA
ATOM     28  O   UNL     1       2.169   3.460  21.976  0.00  0.00    +0.000 OA
BRANCH  26  29
ATOM     29  N   UNL     1       0.425   3.051  20.235  0.00  0.00    +0.000 NA
ATOM     30  H   UNL     1      -0.194   3.540  20.882  0.00  0.00    +0.000 HD
ATOM     31  H   UNL     1       0.212   3.164  19.246  0.00  0.00    +0.000 HD
ENDBRANCH  26  29
ENDBRANCH  24  26
ENDBRANCH   6  20
TORSDOF 6
ENDMDL
MODEL 2
REMARK VINA RESULT:      -7.6      4.729      7.229
REMARK  Name = 
REMARK  8 active torsions:
REMARK  status: ('A' for Active; 'I' for Inactive)
REMARK    1  A    between atoms: C_1  and  C_2
REMARK    2  A    between atoms: C_2  and  N_3
REMARK    3  A    between atoms: N_3  and  C_4
REMARK    4  A    between atoms: C_4  and  C_5
REMARK    5  A    between atoms: C_8  and  C_9
REMARK    6  A    between atoms: N_14  and  C_15
REMARK    7  A    between atoms: C_19  and  S_20
REMARK    8  A    between atoms: S_20  and  N_21
REMARK                            x       y       z     vdW  Elec       q    Type
REMARK                         _______ _______ _______ _____ _____    ______ ____
ROOT
ATOM      1  C   UNL     1       2.697   5.618  19.257  0.00  0.00    +0.000 A 
ATOM      2  C   UNL     1       2.436   4.923  20.417  0.00  0.00    +0.000 A 
ATOM      3  C   UNL     1       2.875   3.620  20.450  0.00  0.00    +0.000 A 
ATOM      4  N   UNL     1       3.521   3.018  19.434  0.00  0.00    +0.000 NA
ATOM      5  C   UNL     1       3.763   3.769  18.354  0.00  0.00    +0.000 A 
ATOM      6  N   UNL     1       4.471   3.183  17.305  0.00  0.00    +0.000 N 
ATOM      7  N   UNL     1       3.353   5.040  18.233  0.00  0.00    +0.000 NA
ATOM      8  H   UNL     1       4.626   2.200  17.468  0.00  0.00    +0.000 HD
ENDROOT
BRANCH   1  12
ATOM      9  N   UNL     1       0.892   9.884  20.958  0.00  0.00    +0.000 N 
ATOM     10  C   UNL     1       1.441   9.142  19.891  0.00  0.00    +0.000 A 
ATOM     11  C   UNL     1       1.832   7.815  20.094  0.00  0.00    +0.000 A 
ATOM     12  C   UNL     1       2.325   7.026  19.036  0.00  0.00    +0.000 A 
ATOM     13  C   UNL     1       2.394   7.624  17.778  0.00  0.00    +0.000 A 
ATOM     14  C   UNL     1       2.004   8.942  17.650  0.00  0.00    +0.000 A 
ATOM     15  N   UNL     1       1.558   9.701  18.672  0.00  0.00    +0.000 NA
BRANCH   9  17
ATOM     16  C   UNL     1      -0.260  12.135  20.718  0.00  0.00    +0.000 C 
ATOM     17  C   UNL     1       1.033  11.341  20.851  0.00  0.00    +0.000 C 
ENDBRANCH   9  17
BRANCH   9  18
ATOM     18  C   UNL     1      -0.343   9.273  21.470  0.00  0.00    +0.000 C 
ATOM     19  C   UNL     1      -0.514   9.282  22.982  0.00  0.00    +0.000 C 
ENDBRANCH   9  18
ENDBRANCH   1  12
BRANCH   6  20
ATOM     20  C   UNL     1       5.306   3.817  16.374  0.00  0.00    +0.000 A 
ATOM     21  C   UNL     1       6.370   4.612  16.819  0.00  0.00    +0.000 A 
ATOM     22  C   UNL     1       7.296   5.152  15.918  0.00  0.00    +0.000 A 
ATOM     23  C   UNL     1       7.167   4.910  14.554  0.00  0.00    +0.000 A 
ATOM     24  C   UNL     1       6.106   4.129  14.107  0.00  0.00    +0.000 A 
ATOM     25  C   UNL     1       5.175   3.598  15.000  0.00  0.00    +0.000 A 
BRANCH  24  26
ATOM     26  S   UNL     1       5.972   3.723  12.396  0.00  0.00    +0.000 S 
ATOM     27  O   UNL     1       4.590   3.815  11.983  0.00  0.00    +0.000 OA
ATOM     28  O   UNL     1       7.047   4.343  11.660  0.00  0.00    +0.000 OA
BRANCH  26  29
ATOM     29  N   UNL     1       6.336   2.086  12.459  0.00  0.00    +0.000 NA
ATOM     30  H   UNL     1       5.608   1.579  12.965  0.00  0.00    +0.000 HD
ATOM     31  H   UNL     1       6.556   1.735  11.528  0.00  0.00    +0.000 HD
ENDBRANCH  26  29
ENDBRANCH  24  26
ENDBRANCH   6  20
TORSDOF 6
ENDMDL
MODEL 3
REMARK VINA RESULT:      -7.5      4.307      8.503
REMARK  Name = 
REMARK  8 active torsions:
REMARK  status: ('A' for Active; 'I' for Inactive)
REMARK    1  A    between atoms: C_1  and  C_2
REMARK    2  A    between atoms: C_2  and  N_3
REMARK    3  A    between atoms: N_3  and  C_4
REMARK    4  A    between atoms: C_4  and  C_5
REMARK    5  A    between atoms: C_8  and  C_9
REMARK    6  A    between atoms: N_14  and  C_15
REMARK    7  A    between atoms: C_19  and  S_20
REMARK    8  A    between atoms: S_20  and  N_21
REMARK                            x       y       z     vdW  Elec       q    Type
REMARK                         _______ _______ _______ _____ _____    ______ ____
ROOT
ATOM      1  C   UNL     1       1.387   8.462  20.584  0.00  0.00    +0.000 A 
ATOM      2  C   UNL     1       1.632   8.509  21.939  0.00  0.00    +0.000 A 
ATOM      3  C   UNL     1       1.035   9.541  22.624  0.00  0.00    +0.000 A 
ATOM      4  N   UNL     1       0.255  10.474  22.047  0.00  0.00    +0.000 NA
ATOM      5  C   UNL     1       0.040  10.342  20.733  0.00  0.00    +0.000 A 
ATOM      6  N   UNL     1      -0.802  11.268  20.119  0.00  0.00    +0.000 N 
ATOM      7  N   UNL     1       0.598   9.376  19.988  0.00  0.00    +0.000 NA
ATOM      8  H   UNL     1      -1.069  12.003  20.756  0.00  0.00    +0.000 HD
ENDROOT
BRANCH   1  12
ATOM      9  N   UNL     1       2.035   3.703  19.450  0.00  0.00    +0.000 N 
ATOM     10  C   UNL     1       2.224   5.062  19.121  0.00  0.00    +0.000 A 
ATOM     11  C   UNL     1       1.695   6.058  19.947  0.00  0.00    +0.000 A 
ATOM     12  C   UNL     1       1.918   7.424  19.684  0.00  0.00    +0.000 A 
ATOM     13  C   UNL     1       2.699   7.736  18.571  0.00  0.00    +0.000 A 
ATOM     14  C   UNL     1       3.180   6.703  17.790  0.00  0.00    +0.000 A 
ATOM     15  N   UNL     1       2.940   5.398  18.032  0.00  0.00    +0.000 NA
BRANCH   9  17
ATOM     16  C   UNL     1       3.277   1.799  18.319  0.00  0.00    +0.000 C 
ATOM     17  C   UNL     1       2.102   2.767  18.322  0.00  0.00    +0.000 C 
ENDBRANCH   9  17
BRANCH   9  18
ATOM     18  C   UNL     1       2.625   3.369  20.755  0.00  0.00    +0.000 C 
ATOM     19  C   UNL     1       1.727   2.606  21.716  0.00  0.00    +0.000 C 
ENDBRANCH   9  18
ENDBRANCH   1  12
BRANCH   6  20
ATOM     20  C   UNL     1      -1.608  11.078  18.988  0.00  0.00    +0.000 A 
ATOM     21  C   UNL     1      -1.166  10.252  17.947  0.00  0.00    +0.000 A 
ATOM     22  C   UNL     1      -2.000   9.941  16.866  0.00  0.00    +0.000 A 
ATOM     23  C   UNL     1      -3.290  10.459  16.806  0.00  0.00    +0.000 A 
ATOM     24  C   UNL     1      -3.730  11.289  17.833  0.00  0.00    +0.000 A 
ATOM     25  C   UNL     1      -2.898  11.610  18.906  0.00  0.00    +0.000 A 
BRANCH  24  26
ATOM     26  S   UNL     1      -5.390  11.881  17.836  0.00  0.00    +0.000 S 
ATOM     27  O   UNL     1      -5.649  12.603  16.610  0.00  0.00    +0.000 OA
ATOM     28  O   UNL     1      -6.275  10.857  18.337  0.00  0.00    +0.000 OA
BRANCH  26  29
ATOM     29  N   UNL     1      -5.284  13.036  19.048  0.00  0.00    +0.000 NA
ATOM     30  H   UNL     1      -5.254  13.973  18.644  0.00  0.00    +0.000 HD
ATOM     31  H   UNL     1      -6.002  12.880  19.753  0.00  0.00    +0.000 HD
ENDBRANCH  26  29
ENDBRANCH  24  26
ENDBRANCH   6  20
TORSDOF 6
ENDMDL
MODEL 4
REMARK VINA RESULT:      -7.4      5.024      9.888
REMARK  Name = 
REMARK  8 active torsions:
REMARK  status: ('A' for Active; 'I' for Inactive)
REMARK    1  A    between atoms: C_1  and  C_2
REMARK    2  A    between atoms: C_2  and  N_3
REMARK    3  A    between atoms: N_3  and  C_4
REMARK    4  A    between atoms: C_4  and  C_5
REMARK    5  A    between atoms: C_8  and  C_9
REMARK    6  A    between atoms: N_14  and  C_15
REMARK    7  A    between atoms: C_19  and  S_20
REMARK    8  A    between atoms: S_20  and  N_21
REMARK                            x       y       z     vdW  Elec       q    Type
REMARK                         _______ _______ _______ _____ _____    ______ ____
ROOT
ATOM      1  C   UNL     1       4.100   3.804  18.390  0.00  0.00    +0.000 A 
ATOM      2  C   UNL     1       3.566   2.534  18.399  0.00  0.00    +0.000 A 
ATOM      3  C   UNL     1       2.397   2.377  19.105  0.00  0.00    +0.000 A 
ATOM      4  N   UNL     1       1.778   3.372  19.766  0.00  0.00    +0.000 NA
ATOM      5  C   UNL     1       2.342   4.583  19.684  0.00  0.00    +0.000 A 
ATOM      6  N   UNL     1       1.697   5.641  20.323  0.00  0.00    +0.000 N 
ATOM      7  N   UNL     1       3.491   4.818  19.033  0.00  0.00    +0.000 NA
ATOM      8  H   UNL     1       0.910   5.321  20.865  0.00  0.00    +0.000 HD
ENDROOT
BRANCH   1  12
ATOM      9  N   UNL     1       6.497   4.699  14.171  0.00  0.00    +0.000 N 
ATOM     10  C   UNL     1       6.511   4.633  15.580  0.00  0.00    +0.000 A 
ATOM     11  C   UNL     1       5.340   4.314  16.274  0.00  0.00    +0.000 A 
ATOM     12  C   UNL     1       5.333   4.177  17.676  0.00  0.00    +0.000 A 
ATOM     13  C   UNL     1       6.547   4.362  18.338  0.00  0.00    +0.000 A 
ATOM     14  C   UNL     1       7.663   4.686  17.592  0.00  0.00    +0.000 A 
ATOM     15  N   UNL     1       7.658   4.843  16.252  0.00  0.00    +0.000 NA
BRANCH   9  17
ATOM     16  C   UNL     1       7.816   5.319  12.091  0.00  0.00    +0.000 C 
ATOM     17  C   UNL     1       7.532   5.548  13.570  0.00  0.00    +0.000 C 
ENDBRANCH   9  17
BRANCH   9  18
ATOM     18  C   UNL     1       6.119   3.413  13.567  0.00  0.00    +0.000 C 
ATOM     19  C   UNL     1       5.072   3.477  12.465  0.00  0.00    +0.000 C 
ENDBRANCH   9  18
ENDBRANCH   1  12
BRANCH   6  20
ATOM     20  C   UNL     1       1.720   6.998  19.971  0.00  0.00    +0.000 A 
ATOM     21  C   UNL     1       2.144   7.379  18.691  0.00  0.00    +0.000 A 
ATOM     22  C   UNL     1       2.058   8.712  18.267  0.00  0.00    +0.000 A 
ATOM     23  C   UNL     1       1.552   9.686  19.122  0.00  0.00    +0.000 A 
ATOM     24  C   UNL     1       1.139   9.313  20.398  0.00  0.00    +0.000 A 
ATOM     25  C   UNL     1       1.233   7.989  20.828  0.00  0.00    +0.000 A 
BRANCH  24  26
ATOM     26  S   UNL     1       0.402  10.505  21.467  0.00  0.00    +0.000 S 
ATOM     27  O   UNL     1      -0.922  10.833  20.988  0.00  0.00    +0.000 OA
ATOM     28  O   UNL     1       0.668  10.160  22.843  0.00  0.00    +0.000 OA
BRANCH  26  29
ATOM     29  N   UNL     1       1.368  11.835  21.127  0.00  0.00    +0.000 NA
ATOM     30  H   UNL     1       1.901  11.677  20.271  0.00  0.00    +0.000 HD
ATOM     31  H   UNL     1       0.817  12.691  21.156  0.00  0.00    +0.000 HD
ENDBRANCH  26  29
ENDBRANCH  24  26
ENDBRANCH   6  20
TORSDOF 6
ENDMDL
MODEL 5
REMARK VINA RESULT:      -7.3      1.068      1.136
REMARK  Name = 
REMARK  8 active torsions:
REMARK  status: ('A' for Active; 'I' for Inactive)
REMARK    1  A    between atoms: C_1  and  C_2
REMARK    2  A    between atoms: C_2  and  N_3
REMARK    3  A    between atoms: N_3  and  C_4
REMARK    4  A    between atoms: C_4  and  C_5
REMARK    5  A    between atoms: C_8  and  C_9
REMARK    6  A    between atoms: N_14  and  C_15
REMARK    7  A    between atoms: C_19  and  S_20
REMARK    8  A    between atoms: S_20  and  N_21
REMARK                            x       y       z     vdW  Elec       q    Type
REMARK                         _______ _______ _______ _____ _____    ______ ____
ROOT
ATOM      1  C   UNL     1      -1.359  11.588  19.951  0.00  0.00    +0.000 A 
ATOM      2  C   UNL     1      -1.179  12.692  20.755  0.00  0.00    +0.000 A 
ATOM      3  C   UNL     1      -0.214  12.577  21.728  0.00  0.00    +0.000 A 
ATOM      4  N   UNL     1       0.530  11.473  21.923  0.00  0.00    +0.000 NA
ATOM      5  C   UNL     1       0.316  10.455  21.082  0.00  0.00    +0.000 A 
ATOM      6  N   UNL     1       1.104   9.315  21.233  0.00  0.00    +0.000 N 
ATOM      7  N   UNL     1      -0.617  10.477  20.119  0.00  0.00    +0.000 NA
ATOM      8  H   UNL     1       1.688   9.375  22.054  0.00  0.00    +0.000 HD
ENDROOT
BRANCH   1  12
ATOM      9  N   UNL     1      -5.961  12.127  18.252  0.00  0.00    +0.000 N 
ATOM     10  C   UNL     1      -4.610  11.805  18.005  0.00  0.00    +0.000 A 
ATOM     11  C   UNL     1      -3.672  11.897  19.038  0.00  0.00    +0.000 A 
ATOM     12  C   UNL     1      -2.328  11.522  18.843  0.00  0.00    +0.000 A 
ATOM     13  C   UNL     1      -1.979  11.047  17.579  0.00  0.00    +0.000 A 
ATOM     14  C   UNL     1      -2.952  10.994  16.601  0.00  0.00    +0.000 A 
ATOM     15  N   UNL     1      -4.232  11.379  16.786  0.00  0.00    +0.000 NA
BRANCH   9  17
ATOM     16  C   UNL     1      -6.823  14.047  16.830  0.00  0.00    +0.000 C 
ATOM     17  C   UNL     1      -6.734  12.547  17.077  0.00  0.00    +0.000 C 
ENDBRANCH   9  17
BRANCH   9  18
ATOM     18  C   UNL     1      -6.550  11.260  19.283  0.00  0.00    +0.000 C 
ATOM     19  C   UNL     1      -7.480  11.942  20.275  0.00  0.00    +0.000 C 
ENDBRANCH   9  18
ENDBRANCH   1  12
BRANCH   6  20
ATOM     20  C   UNL     1       1.486   8.398  20.244  0.00  0.00    +0.000 A 
ATOM     21  C   UNL     1       1.740   8.844  18.940  0.00  0.00    +0.000 A 
ATOM     22  C   UNL     1       2.246   7.976  17.964  0.00  0.00    +0.000 A 
ATOM     23  C   UNL     1       2.499   6.644  18.276  0.00  0.00    +0.000 A 
ATOM     24  C   UNL     1       2.238   6.194  19.567  0.00  0.00    +0.000 A 
ATOM     25  C   UNL     1       1.725   7.053  20.540  0.00  0.00    +0.000 A 
BRANCH  24  26
ATOM     26  S   UNL     1       2.641   4.539  20.020  0.00  0.00    +0.000 S 
ATOM     27  O   UNL     1       3.928   4.184  19.464  0.00  0.00    +0.000 OA
ATOM     28  O   UNL     1       2.304   4.313  21.405  0.00  0.00    +0.000 OA
BRANCH  26  29
ATOM     29  N   UNL     1       1.495   3.706  19.121  0.00  0.00    +0.000 NA
ATOM     30  H   UNL     1       0.864   3.193  19.738  0.00  0.00    +0.000 HD
ATOM     31  H   UNL     1       1.050   4.328  18.448  0.00  0.00    +0.000 HD
ENDBRANCH  26  29
ENDBRANCH  24  26
ENDBRANCH   6  20
TORSDOF 6
ENDMDL
MODEL 6
REMARK VINA RESULT:      -7.3      3.618      4.591
REMARK  Name = 
REMARK  8 active torsions:
REMARK  status: ('A' for Active; 'I' for Inactive)
REMARK    1  A    between atoms: C_1  and  C_2
REMARK    2  A    between atoms: C_2  and  N_3
REMARK    3  A    between atoms: N_3  and  C_4
REMARK    4  A    between atoms: C_4  and  C_5
REMARK    5  A    between atoms: C_8  and  C_9
REMARK    6  A    between atoms: N_14  and  C_15
REMARK    7  A    between atoms: C_19  and  S_20
REMARK    8  A    between atoms: S_20  and  N_21
REMARK                            x       y       z     vdW  Elec       q    Type
REMARK                         _______ _______ _______ _____ _____    ______ ____
ROOT
ATOM      1  C   UNL     1       0.895   9.760  19.827  0.00  0.00    +0.000 A 
ATOM      2  C   UNL     1       0.799  10.576  18.722  0.00  0.00    +0.000 A 
ATOM      3  C   UNL     1       1.476  10.155  17.602  0.00  0.00    +0.000 A 
ATOM      4  N   UNL     1       2.203   9.024  17.543  0.00  0.00    +0.000 NA
ATOM      5  C   UNL     1       2.221   8.270  18.648  0.00  0.00    +0.000 A 
ATOM      6  N   UNL     1       2.930   7.070  18.599  0.00  0.00    +0.000 N 
ATOM      7  N   UNL     1       1.605   8.617  19.787  0.00  0.00    +0.000 NA
ATOM      8  H   UNL     1       3.436   6.975  17.732  0.00  0.00    +0.000 HD
ENDROOT
BRANCH   1  12
ATOM      9  N   UNL     1      -2.327  12.355  22.517  0.00  0.00    +0.000 N 
ATOM     10  C   UNL     1      -1.382  11.311  22.437  0.00  0.00    +0.000 A 
ATOM     11  C   UNL     1      -0.766  11.021  21.215  0.00  0.00    +0.000 A 
ATOM     12  C   UNL     1       0.227  10.028  21.113  0.00  0.00    +0.000 A 
ATOM     13  C   UNL     1       0.576   9.356  22.284  0.00  0.00    +0.000 A 
ATOM     14  C   UNL     1      -0.080   9.683  23.455  0.00  0.00    +0.000 A 
ATOM     15  N   UNL     1      -1.051  10.616  23.541  0.00  0.00    +0.000 NA
BRANCH   9  17
ATOM     16  C   UNL     1      -4.211  13.442  23.828  0.00  0.00    +0.000 C 
ATOM     17  C   UNL     1      -3.302  12.241  23.609  0.00  0.00    +0.000 C 
ENDBRANCH   9  17
BRANCH   9  18
ATOM     18  C   UNL     1      -1.741  13.653  22.151  0.00  0.00    +0.000 C 
ATOM     19  C   UNL     1      -0.730  14.227  23.131  0.00  0.00    +0.000 C 
ENDBRANCH   9  18
ENDBRANCH   1  12
BRANCH   6  20
ATOM     20  C   UNL     1       2.683   5.898  19.328  0.00  0.00    +0.000 A 
ATOM     21  C   UNL     1       1.474   5.748  20.019  0.00  0.00    +0.000 A 
ATOM     22  C   UNL     1       1.145   4.540  20.648  0.00  0.00    +0.000 A 
ATOM     23  C   UNL     1       2.027   3.465  20.601  0.00  0.00    +0.000 A 
ATOM     24  C   UNL     1       3.234   3.613  19.924  0.00  0.00    +0.000 A 
ATOM     25  C   UNL     1       3.570   4.817  19.305  0.00  0.00    +0.000 A 
BRANCH  24  26
ATOM     26  S   UNL     1       4.326   2.239  19.762  0.00  0.00    +0.000 S 
ATOM     27  O   UNL     1       4.866   1.895  21.059  0.00  0.00    +0.000 OA
ATOM     28  O   UNL     1       3.752   1.258  18.873  0.00  0.00    +0.000 OA
BRANCH  26  29
ATOM     29  N   UNL     1       5.577   2.963  18.909  0.00  0.00    +0.000 NA
ATOM     30  H   UNL     1       5.221   3.400  18.059  0.00  0.00    +0.000 HD
ATOM     31  H   UNL     1       6.124   3.565  19.522  0.00  0.00    +0.000 HD
ENDBRANCH  26  29
ENDBRANCH  24  26
ENDBRANCH   6  20
TORSDOF 6
ENDMDL
MODEL 7
REMARK VINA RESULT:      -7.3      4.540      6.538
REMARK  Name = 
REMARK  8 active torsions:
REMARK  status: ('A' for Active; 'I' for Inactive)
REMARK    1  A    between atoms: C_1  and  C_2
REMARK    2  A    between atoms: C_2  and  N_3
REMARK    3  A    between atoms: N_3  and  C_4
REMARK    4  A    between atoms: C_4  and  C_5
REMARK    5  A    between atoms: C_8  and  C_9
REMARK    6  A    between atoms: N_14  and  C_15
REMARK    7  A    between atoms: C_19  and  S_20
REMARK    8  A    between atoms: S_20  and  N_21
REMARK                            x       y       z     vdW  Elec       q    Type
REMARK                         _______ _______ _______ _____ _____    ______ ____
ROOT
ATOM      1  C   UNL     1       2.097   6.147  19.904  0.00  0.00    +0.000 A 
ATOM      2  C   UNL     1       1.448   5.519  20.945  0.00  0.00    +0.000 A 
ATOM      3  C   UNL     1       1.807   4.212  21.177  0.00  0.00    +0.000 A 
ATOM      4  N   UNL     1       2.728   3.546  20.456  0.00  0.00    +0.000 NA
ATOM      5  C   UNL     1       3.335   4.235  19.482  0.00  0.00    +0.000 A 
ATOM      6  N   UNL     1       4.325   3.582  18.750  0.00  0.00    +0.000 N 
ATOM      7  N   UNL     1       3.031   5.505  19.178  0.00  0.00    +0.000 NA
ATOM      8  H   UNL     1       4.385   2.606  18.997  0.00  0.00    +0.000 HD
ENDROOT
BRANCH   1  12
ATOM      9  N   UNL     1       0.694  10.737  21.054  0.00  0.00    +0.000 N 
ATOM     10  C   UNL     1       1.181   9.825  20.094  0.00  0.00    +0.000 A 
ATOM     11  C   UNL     1       1.439   8.500  20.459  0.00  0.00    +0.000 A 
ATOM     12  C   UNL     1       1.865   7.548  19.512  0.00  0.00    +0.000 A 
ATOM     13  C   UNL     1       2.007   7.983  18.195  0.00  0.00    +0.000 A 
ATOM     14  C   UNL     1       1.747   9.309  17.905  0.00  0.00    +0.000 A 
ATOM     15  N   UNL     1       1.365  10.222  18.821  0.00  0.00    +0.000 NA
BRANCH   9  17
ATOM     16  C   UNL     1      -0.095  13.146  21.205  0.00  0.00    +0.000 C 
ATOM     17  C   UNL     1       0.976  12.151  20.781  0.00  0.00    +0.000 C 
ENDBRANCH   9  17
BRANCH   9  18
ATOM     18  C   UNL     1      -0.601  10.310  21.606  0.00  0.00    +0.000 C 
ATOM     19  C   UNL     1      -0.641  10.082  23.109  0.00  0.00    +0.000 C 
ENDBRANCH   9  18
ENDBRANCH   1  12
BRANCH   6  20
ATOM     20  C   UNL     1       5.439   4.150  18.116  0.00  0.00    +0.000 A 
ATOM     21  C   UNL     1       6.572   4.488  18.868  0.00  0.00    +0.000 A 
ATOM     22  C   UNL     1       7.745   4.937  18.247  0.00  0.00    +0.000 A 
ATOM     23  C   UNL     1       7.800   5.061  16.863  0.00  0.00    +0.000 A 
ATOM     24  C   UNL     1       6.674   4.736  16.113  0.00  0.00    +0.000 A 
ATOM     25  C   UNL     1       5.500   4.299  16.728  0.00  0.00    +0.000 A 
BRANCH  24  26
ATOM     26  S   UNL     1       6.744   4.789  14.352  0.00  0.00    +0.000 S 
ATOM     27  O   UNL     1       7.955   5.460  13.936  0.00  0.00    +0.000 OA
ATOM     28  O   UNL     1       6.332   3.518  13.807  0.00  0.00    +0.000 OA
BRANCH  26  29
ATOM     29  N   UNL     1       5.486   5.856  14.044  0.00  0.00    +0.000 NA
ATOM     30  H   UNL     1       5.299   5.905  13.042  0.00  0.00    +0.000 HD
ATOM     31  H   UNL     1       4.684   5.641  14.635  0.00  0.00    +0.000 HD
ENDBRANCH  26  29
ENDBRANCH  24  26
ENDBRANCH   6  20
TORSDOF 6
ENDMDL
MODEL 8
REMARK VINA RESULT:      -7.3      1.213      1.375
REMARK  Name = 
REMARK  8 active torsions:
REMARK  status: ('A' for Active; 'I' for Inactive)
REMARK    1  A    between atoms: C_1  and  C_2
REMARK    2  A    between atoms: C_2  and  N_3
REMARK    3  A    between atoms: N_3  and  C_4
REMARK    4  A    between atoms: C_4  and  C_5
REMARK    5  A    between atoms: C_8  and  C_9
REMARK    6  A    between atoms: N_14  and  C_15
REMARK    7  A    between atoms: C_19  and  S_20
REMARK    8  A    between atoms: S_20  and  N_21
REMARK                            x       y       z     vdW  Elec       q    Type
REMARK                         _______ _______ _______ _____ _____    ______ ____
ROOT
ATOM      1  C   UNL     1      -0.721  10.534  19.960  0.00  0.00    +0.000 A 
ATOM      2  C   UNL     1      -0.603  11.494  20.941  0.00  0.00    +0.000 A 
ATOM      3  C   UNL     1       0.323  11.239  21.925  0.00  0.00    +0.000 A 
ATOM      4  N   UNL     1       1.088  10.133  21.969  0.00  0.00    +0.000 NA
ATOM      5  C   UNL     1       0.937   9.263  20.964  0.00  0.00    +0.000 A 
ATOM      6  N   UNL     1       1.749   8.130  20.961  0.00  0.00    +0.000 N 
ATOM      7  N   UNL     1       0.044   9.425  19.977  0.00  0.00    +0.000 NA
ATOM      8  H   UNL     1       2.297   8.066  21.806  0.00  0.00    +0.000 HD
ENDROOT
BRANCH   1  12
ATOM      9  N   UNL     1      -5.023  12.002  18.040  0.00  0.00    +0.000 N 
ATOM     10  C   UNL     1      -3.771  11.376  17.866  0.00  0.00    +0.000 A 
ATOM     11  C   UNL     1      -2.873  11.306  18.935  0.00  0.00    +0.000 A 
ATOM     12  C   UNL     1      -1.641  10.633  18.814  0.00  0.00    +0.000 A 
ATOM     13  C   UNL     1      -1.364  10.031  17.586  0.00  0.00    +0.000 A 
ATOM     14  C   UNL     1      -2.291  10.149  16.569  0.00  0.00    +0.000 A 
ATOM     15  N   UNL     1      -3.457  10.819  16.682  0.00  0.00    +0.000 NA
BRANCH   9  17
ATOM     16  C   UNL     1      -7.067  13.046  16.953  0.00  0.00    +0.000 C 
ATOM     17  C   UNL     1      -5.642  12.527  16.817  0.00  0.00    +0.000 C 
ENDBRANCH   9  17
BRANCH   9  18
ATOM     18  C   UNL     1      -5.827  11.338  19.078  0.00  0.00    +0.000 C 
ATOM     19  C   UNL     1      -6.073  12.141  20.346  0.00  0.00    +0.000 C 
ENDBRANCH   9  18
ENDBRANCH   1  12
BRANCH   6  20
ATOM     20  C   UNL     1       2.197   7.397  19.853  0.00  0.00    +0.000 A 
ATOM     21  C   UNL     1       2.333   8.027  18.609  0.00  0.00    +0.000 A 
ATOM     22  C   UNL     1       2.897   7.356  17.516  0.00  0.00    +0.000 A 
ATOM     23  C   UNL     1       3.327   6.040  17.650  0.00  0.00    +0.000 A 
ATOM     24  C   UNL     1       3.184   5.407  18.881  0.00  0.00    +0.000 A 
ATOM     25  C   UNL     1       2.613   6.068  19.969  0.00  0.00    +0.000 A 
BRANCH  24  26
ATOM     26  S   UNL     1       3.810   3.775  19.109  0.00  0.00    +0.000 S 
ATOM     27  O   UNL     1       5.225   3.834  19.396  0.00  0.00    +0.000 OA
ATOM     28  O   UNL     1       2.886   3.003  19.904  0.00  0.00    +0.000 OA
BRANCH  26  29
ATOM     29  N   UNL     1       3.673   3.192  17.541  0.00  0.00    +0.000 NA
ATOM     30  H   UNL     1       2.909   2.518  17.478  0.00  0.00    +0.000 HD
ATOM     31  H   UNL     1       3.640   3.962  16.876  0.00  0.00    +0.000 HD
ENDBRANCH  26  29
ENDBRANCH  24  26
ENDBRANCH   6  20
TORSDOF 6
ENDMDL
MODEL 9
REMARK VINA RESULT:      -7.2      3.469      4.524
REMARK  Name = 
REMARK  8 active torsions:
REMARK  status: ('A' for Active; 'I' for Inactive)
REMARK    1  A    between atoms: C_1  and  C_2
REMARK    2  A    between atoms: C_2  and  N_3
REMARK    3  A    between atoms: N_3  and  C_4
REMARK    4  A    between atoms: C_4  and  C_5
REMARK    5  A    between atoms: C_8  and  C_9
REMARK    6  A    between atoms: N_14  and  C_15
REMARK    7  A    between atoms: C_19  and  S_20
REMARK    8  A    between atoms: S_20  and  N_21
REMARK                            x       y       z     vdW  Elec       q    Type
REMARK                         _______ _______ _______ _____ _____    ______ ____
ROOT
ATOM      1  C   UNL     1       0.856  10.011  19.814  0.00  0.00    +0.000 A 
ATOM      2  C   UNL     1       0.809  10.918  18.779  0.00  0.00    +0.000 A 
ATOM      3  C   UNL     1       1.525  10.585  17.653  0.00  0.00    +0.000 A 
ATOM      4  N   UNL     1       2.244   9.455  17.526  0.00  0.00    +0.000 NA
ATOM      5  C   UNL     1       2.214   8.610  18.564  0.00  0.00    +0.000 A 
ATOM      6  N   UNL     1       2.914   7.410  18.440  0.00  0.00    +0.000 N 
ATOM      7  N   UNL     1       1.558   8.867  19.705  0.00  0.00    +0.000 NA
ATOM      8  H   UNL     1       3.452   7.382  17.588  0.00  0.00    +0.000 HD
ENDROOT
BRANCH   1  12
ATOM      9  N   UNL     1      -1.996  12.710  22.803  0.00  0.00    +0.000 N 
ATOM     10  C   UNL     1      -1.283  11.517  22.563  0.00  0.00    +0.000 A 
ATOM     11  C   UNL     1      -0.630  11.328  21.341  0.00  0.00    +0.000 A 
ATOM     12  C   UNL     1       0.142  10.177  21.093  0.00  0.00    +0.000 A 
ATOM     13  C   UNL     1       0.235   9.241  22.122  0.00  0.00    +0.000 A 
ATOM     14  C   UNL     1      -0.445   9.483  23.299  0.00  0.00    +0.000 A 
ATOM     15  N   UNL     1      -1.206  10.575  23.522  0.00  0.00    +0.000 NA
BRANCH   9  17
ATOM     16  C   UNL     1      -4.476  12.922  23.304  0.00  0.00    +0.000 C 
ATOM     17  C   UNL     1      -3.069  12.614  23.799  0.00  0.00    +0.000 C 
ENDBRANCH   9  17
BRANCH   9  18
ATOM     18  C   UNL     1      -1.123  13.891  22.734  0.00  0.00    +0.000 C 
ATOM     19  C   UNL     1      -1.201  14.848  23.913  0.00  0.00    +0.000 C 
ENDBRANCH   9  18
ENDBRANCH   1  12
BRANCH   6  20
ATOM     20  C   UNL     1       2.630   6.184  19.057  0.00  0.00    +0.000 A 
ATOM     21  C   UNL     1       2.102   6.162  20.355  0.00  0.00    +0.000 A 
ATOM     22  C   UNL     1       1.689   4.961  20.948  0.00  0.00    +0.000 A 
ATOM     23  C   UNL     1       1.806   3.762  20.253  0.00  0.00    +0.000 A 
ATOM     24  C   UNL     1       2.339   3.778  18.967  0.00  0.00    +0.000 A 
ATOM     25  C   UNL     1       2.761   4.970  18.377  0.00  0.00    +0.000 A 
BRANCH  24  26
ATOM     26  S   UNL     1       2.408   2.290  18.024  0.00  0.00    +0.000 S 
ATOM     27  O   UNL     1       2.422   2.611  16.614  0.00  0.00    +0.000 OA
ATOM     28  O   UNL     1       3.346   1.373  18.624  0.00  0.00    +0.000 OA
BRANCH  26  29
ATOM     29  N   UNL     1       0.882   1.672  18.349  0.00  0.00    +0.000 NA
ATOM     30  H   UNL     1       0.951   0.864  18.970  0.00  0.00    +0.000 HD
ATOM     31  H   UNL     1       0.255   2.414  18.655  0.00  0.00    +0.000 HD
ENDBRANCH  26  29
ENDBRANCH  24  26
ENDBRANCH   6  20
TORSDOF 6
ENDMDL
