MODEL 1
REMARK VINA RESULT:      -8.1      0.000      0.000
REMARK  Name = 
REMARK  9 active torsions:
REMARK  status: ('A' for Active; 'I' for Inactive)
REMARK    1  A    between atoms: N_6  and  C1*_7
REMARK    2  A    between atoms: C3*_9  and  O3*_10
REMARK    3  A    between atoms: C4*_11  and  C5*_12
REMARK    4  A    between atoms: C5*_12  and  O5*_13
REMARK    5  A    between atoms: C_16  and  C_17
REMARK    6  A    between atoms: C_17  and  C_18
REMARK    7  A    between atoms: C_18  and  C_19
REMARK    8  A    between atoms: C_19  and  C_20
REMARK    9  A    between atoms: C_20  and  C_21
REMARK                            x       y       z     vdW  Elec       q    Type
REMARK                         _______ _______ _______ _____ _____    ______ ____
ROOT
ATOM      1  O   UNL     1       8.068   4.514  16.919  0.00  0.00    +0.000 OA
ATOM      2  C   UNL     1       6.870   4.363  17.145  0.00  0.00    +0.000 A 
ATOM      3  N   UNL     1       6.402   4.074  18.398  0.00  0.00    +0.000 N 
ATOM      4  C   UNL     1       5.118   3.734  18.722  0.00  0.00    +0.000 A 
ATOM      5  O   UNL     1       4.833   3.392  19.866  0.00  0.00    +0.000 OA
ATOM      6  N   UNL     1       4.203   3.791  17.679  0.00  0.00    +0.000 N 
ATOM      7  C   UNL     1       4.576   4.192  16.415  0.00  0.00    +0.000 A 
ATOM      8  C   UNL     1       5.844   4.474  16.081  0.00  0.00    +0.000 A 
ATOM      9  H   UNL     1       7.091   3.988  19.128  0.00  0.00    +0.000 HD
ENDROOT
BRANCH   6  10
ATOM     10  C1* UNL     1       2.827   3.404  17.965  0.00  0.00    +0.000 C 
ATOM     11  C2* UNL     1       2.692   2.057  18.658  0.00  0.00    +0.000 C 
ATOM     12  C3* UNL     1       1.391   2.220  19.412  0.00  0.00    +0.000 C 
ATOM     13  C4* UNL     1       1.393   3.695  19.804  0.00  0.00    +0.000 C 
ATOM     14  O4* UNL     1       2.197   4.384  18.816  0.00  0.00    +0.000 OA
BRANCH  12  15
ATOM     15  O3* UNL     1       0.297   1.917  18.545  0.00  0.00    +0.000 OA
ATOM     16  H3* UNL     1       0.540   2.124  17.626  0.00  0.00    +0.000 HD
ENDBRANCH  12  15
BRANCH  13  17
ATOM     17  C5* UNL     1       2.020   3.931  21.183  0.00  0.00    +0.000 C 
BRANCH  17  18
ATOM     18  O5* UNL     1       2.313   2.688  21.821  0.00  0.00    +0.000 OA
ATOM     19  H5* UNL     1       1.553   2.101  21.651  0.00  0.00    +0.000 HD
ENDBRANCH  17  18
ENDBRANCH  13  17
ENDBRANCH   6  10
BRANCH   8  20
ATOM     20  C   UNL     1       6.264   4.836  14.684  0.00  0.00    +0.000 C 
BRANCH  20  21
ATOM     21  C   UNL     1       5.455   4.159  13.569  0.00  0.00    +0.000 C 
BRANCH  21  22
ATOM     22  C   UNL     1       6.329   3.448  12.533  0.00  0.00    +0.000 C 
BRANCH  22  23
ATOM     23  C   UNL     1       5.462   2.740  11.488  0.00  0.00    +0.000 C 
BRANCH  23  24
ATOM     24  C   UNL     1       4.026   3.234  11.522  0.00  0.00    +0.000 C 
ATOM     25  F   UNL     1       3.798   4.012  10.431  0.00  0.00    +0.000 F 
ENDBRANCH  23  24
ENDBRANCH  22  23
ENDBRANCH  21  22
ENDBRANCH  20  21
ENDBRANCH   8  20
TORSDOF 9
ENDMDL
MODEL 2
REMARK VINA RESULT:      -7.9      1.719      2.475
REMARK  Name = 
REMARK  9 active torsions:
REMARK  status: ('A' for Active; 'I' for Inactive)
REMARK    1  A    between atoms: N_6  and  C1*_7
REMARK    2  A    between atoms: C3*_9  and  O3*_10
REMARK    3  A    between atoms: C4*_11  and  C5*_12
REMARK    4  A    between atoms: C5*_12  and  O5*_13
REMARK    5  A    between atoms: C_16  and  C_17
REMARK    6  A    between atoms: C_17  and  C_18
REMARK    7  A    between atoms: C_18  and  C_19
REMARK    8  A    between atoms: C_19  and  C_20
REMARK    9  A    between atoms: C_20  and  C_21
REMARK                            x       y       z     vdW  Elec       q    Type
REMARK                         _______ _______ _______ _____ _____    ______ ____
ROOT
ATOM      1  O   UNL     1       7.934   6.479  15.958  0.00  0.00    +0.000 OA
ATOM      2  C   UNL     1       7.141   6.099  16.815  0.00  0.00    +0.000 A 
ATOM      3  N   UNL     1       7.484   6.028  18.138  0.00  0.00    +0.000 N 
ATOM      4  C   UNL     1       6.735   5.475  19.138  0.00  0.00    +0.000 A 
ATOM      5  O   UNL     1       7.189   5.371  20.274  0.00  0.00    +0.000 OA
ATOM      6  N   UNL     1       5.470   5.039  18.766  0.00  0.00    +0.000 N 
ATOM      7  C   UNL     1       5.007   5.189  17.478  0.00  0.00    +0.000 A 
ATOM      8  C   UNL     1       5.758   5.683  16.483  0.00  0.00    +0.000 A 
ATOM      9  H   UNL     1       8.425   6.301  18.375  0.00  0.00    +0.000 HD
ENDROOT
BRANCH   6  10
ATOM     10  C1* UNL     1       4.644   4.409  19.789  0.00  0.00    +0.000 C 
ATOM     11  C2* UNL     1       3.153   4.655  19.622  0.00  0.00    +0.000 C 
ATOM     12  C3* UNL     1       2.555   3.436  20.288  0.00  0.00    +0.000 C 
ATOM     13  C4* UNL     1       3.559   2.331  19.967  0.00  0.00    +0.000 C 
ATOM     14  O4* UNL     1       4.841   2.979  19.783  0.00  0.00    +0.000 OA
BRANCH  12  15
ATOM     15  O3* UNL     1       2.464   3.658  21.696  0.00  0.00    +0.000 OA
ATOM     16  H3* UNL     1       2.802   4.545  21.910  0.00  0.00    +0.000 HD
ENDBRANCH  12  15
BRANCH  13  17
ATOM     17  C5* UNL     1       3.209   1.582  18.676  0.00  0.00    +0.000 C 
BRANCH  17  18
ATOM     18  O5* UNL     1       4.270   0.705  18.301  0.00  0.00    +0.000 OA
ATOM     19  H5* UNL     1       4.151  -0.115  18.817  0.00  0.00    +0.000 HD
ENDBRANCH  17  18
ENDBRANCH  13  17
ENDBRANCH   6  10
BRANCH   8  20
ATOM     20  C   UNL     1       5.280   5.774  15.061  0.00  0.00    +0.000 C 
BRANCH  20  21
ATOM     21  C   UNL     1       5.196   4.432  14.319  0.00  0.00    +0.000 C 
BRANCH  21  22
ATOM     22  C   UNL     1       6.549   3.948  13.790  0.00  0.00    +0.000 C 
BRANCH  22  23
ATOM     23  C   UNL     1       6.498   3.756  12.272  0.00  0.00    +0.000 C 
BRANCH  23  24
ATOM     24  C   UNL     1       5.471   2.711  11.872  0.00  0.00    +0.000 C 
ATOM     25  F   UNL     1       4.395   3.334  11.322  0.00  0.00    +0.000 F 
ENDBRANCH  23  24
ENDBRANCH  22  23
ENDBRANCH  21  22
ENDBRANCH  20  21
ENDBRANCH   8  20
TORSDOF 9
ENDMDL
MODEL 3
REMARK VINA RESULT:      -7.9      1.669      2.703
REMARK  Name = 
REMARK  9 active torsions:
REMARK  status: ('A' for Active; 'I' for Inactive)
REMARK    1  A    between atoms: N_6  and  C1*_7
REMARK    2  A    between atoms: C3*_9  and  O3*_10
REMARK    3  A    between atoms: C4*_11  and  C5*_12
REMARK    4  A    between atoms: C5*_12  and  O5*_13
REMARK    5  A    between atoms: C_16  and  C_17
REMARK    6  A    between atoms: C_17  and  C_18
REMARK    7  A    between atoms: C_18  and  C_19
REMARK    8  A    between atoms: C_19  and  C_20
REMARK    9  A    between atoms: C_20  and  C_21
REMARK                            x       y       z     vdW  Elec       q    Type
REMARK                         _______ _______ _______ _____ _____    ______ ____
ROOT
ATOM      1  O   UNL     1       8.175   5.277  13.978  0.00  0.00    +0.000 OA
ATOM      2  C   UNL     1       7.324   5.230  14.862  0.00  0.00    +0.000 A 
ATOM      3  N   UNL     1       7.392   6.024  15.974  0.00  0.00    +0.000 N 
ATOM      4  C   UNL     1       6.591   5.938  17.079  0.00  0.00    +0.000 A 
ATOM      5  O   UNL     1       6.811   6.635  18.065  0.00  0.00    +0.000 OA
ATOM      6  N   UNL     1       5.557   5.014  16.997  0.00  0.00    +0.000 N 
ATOM      7  C   UNL     1       5.351   4.264  15.860  0.00  0.00    +0.000 A 
ATOM      8  C   UNL     1       6.166   4.308  14.796  0.00  0.00    +0.000 A 
ATOM      9  H   UNL     1       8.180   6.650  16.034  0.00  0.00    +0.000 HD
ENDROOT
BRANCH   6  10
ATOM     10  C1* UNL     1       4.696   4.858  18.162  0.00  0.00    +0.000 C 
ATOM     11  C2* UNL     1       3.230   5.167  17.896  0.00  0.00    +0.000 C 
ATOM     12  C3* UNL     1       2.536   4.316  18.936  0.00  0.00    +0.000 C 
ATOM     13  C4* UNL     1       3.428   3.082  19.036  0.00  0.00    +0.000 C 
ATOM     14  O4* UNL     1       4.761   3.504  18.657  0.00  0.00    +0.000 OA
BRANCH  12  15
ATOM     15  O3* UNL     1       2.491   5.022  20.177  0.00  0.00    +0.000 OA
ATOM     16  H3* UNL     1       3.396   5.173  20.502  0.00  0.00    +0.000 HD
ENDBRANCH  12  15
BRANCH  13  17
ATOM     17  C5* UNL     1       2.989   1.966  18.082  0.00  0.00    +0.000 C 
BRANCH  17  18
ATOM     18  O5* UNL     1       1.672   1.519  18.403  0.00  0.00    +0.000 OA
ATOM     19  H5* UNL     1       1.578   0.628  18.018  0.00  0.00    +0.000 HD
ENDBRANCH  17  18
ENDBRANCH  13  17
ENDBRANCH   6  10
BRANCH   8  20
ATOM     20  C   UNL     1       5.985   3.433  13.587  0.00  0.00    +0.000 C 
BRANCH  20  21
ATOM     21  C   UNL     1       4.983   3.959  12.550  0.00  0.00    +0.000 C 
BRANCH  21  22
ATOM     22  C   UNL     1       4.758   2.995  11.383  0.00  0.00    +0.000 C 
BRANCH  22  23
ATOM     23  C   UNL     1       3.299   3.039  10.920  0.00  0.00    +0.000 C 
BRANCH  23  24
ATOM     24  C   UNL     1       3.151   3.774   9.599  0.00  0.00    +0.000 C 
ATOM     25  F   UNL     1       2.625   5.006   9.833  0.00  0.00    +0.000 F 
ENDBRANCH  23  24
ENDBRANCH  22  23
ENDBRANCH  21  22
ENDBRANCH  20  21
ENDBRANCH   8  20
TORSDOF 9
ENDMDL
MODEL 4
REMARK VINA RESULT:      -7.9      1.324      2.107
REMARK  Name = 
REMARK  9 active torsions:
REMARK  status: ('A' for Active; 'I' for Inactive)
REMARK    1  A    between atoms: N_6  and  C1*_7
REMARK    2  A    between atoms: C3*_9  and  O3*_10
REMARK    3  A    between atoms: C4*_11  and  C5*_12
REMARK    4  A    between atoms: C5*_12  and  O5*_13
REMARK    5  A    between atoms: C_16  and  C_17
REMARK    6  A    between atoms: C_17  and  C_18
REMARK    7  A    between atoms: C_18  and  C_19
REMARK    8  A    between atoms: C_19  and  C_20
REMARK    9  A    between atoms: C_20  and  C_21
REMARK                            x       y       z     vdW  Elec       q    Type
REMARK                         _______ _______ _______ _____ _____    ______ ____
ROOT
ATOM      1  O   UNL     1       7.691   5.682  15.442  0.00  0.00    +0.000 OA
ATOM      2  C   UNL     1       6.872   5.389  16.308  0.00  0.00    +0.000 A 
ATOM      3  N   UNL     1       7.100   5.641  17.634  0.00  0.00    +0.000 N 
ATOM      4  C   UNL     1       6.331   5.217  18.681  0.00  0.00    +0.000 A 
ATOM      5  O   UNL     1       6.689   5.412  19.839  0.00  0.00    +0.000 OA
ATOM      6  N   UNL     1       5.161   4.553  18.333  0.00  0.00    +0.000 N 
ATOM      7  C   UNL     1       4.802   4.370  17.016  0.00  0.00    +0.000 A 
ATOM      8  C   UNL     1       5.580   4.737  15.988  0.00  0.00    +0.000 A 
ATOM      9  H   UNL     1       7.978   6.078  17.866  0.00  0.00    +0.000 HD
ENDROOT
BRANCH   6  10
ATOM     10  C1* UNL     1       4.323   4.049  19.414  0.00  0.00    +0.000 C 
ATOM     11  C2* UNL     1       3.033   4.830  19.615  0.00  0.00    +0.000 C 
ATOM     12  C3* UNL     1       2.122   3.783  20.219  0.00  0.00    +0.000 C 
ATOM     13  C4* UNL     1       2.565   2.493  19.534  0.00  0.00    +0.000 C 
ATOM     14  O4* UNL     1       3.953   2.676  19.164  0.00  0.00    +0.000 OA
BRANCH  12  15
ATOM     15  O3* UNL     1       2.339   3.720  21.629  0.00  0.00    +0.000 OA
ATOM     16  H3* UNL     1       2.365   2.790  21.915  0.00  0.00    +0.000 HD
ENDBRANCH  12  15
BRANCH  13  17
ATOM     17  C5* UNL     1       1.763   2.205  18.259  0.00  0.00    +0.000 C 
BRANCH  17  18
ATOM     18  O5* UNL     1       0.362   2.272  18.521  0.00  0.00    +0.000 OA
ATOM     19  H5* UNL     1       0.095   3.199  18.373  0.00  0.00    +0.000 HD
ENDBRANCH  17  18
ENDBRANCH  13  17
ENDBRANCH   6  10
BRANCH   8  20
ATOM     20  C   UNL     1       5.225   4.466  14.552  0.00  0.00    +0.000 C 
BRANCH  20  21
ATOM     21  C   UNL     1       6.202   3.547  13.806  0.00  0.00    +0.000 C 
BRANCH  21  22
ATOM     22  C   UNL     1       6.102   3.667  12.283  0.00  0.00    +0.000 C 
BRANCH  22  23
ATOM     23  C   UNL     1       4.994   2.761  11.741  0.00  0.00    +0.000 C 
BRANCH  23  24
ATOM     24  C   UNL     1       3.921   3.556  11.018  0.00  0.00    +0.000 C 
ATOM     25  F   UNL     1       2.956   2.705  10.580  0.00  0.00    +0.000 F 
ENDBRANCH  23  24
ENDBRANCH  22  23
ENDBRANCH  21  22
ENDBRANCH  20  21
ENDBRANCH   8  20
TORSDOF 9
ENDMDL
MODEL 5
REMARK VINA RESULT:      -7.6      1.594      2.341
REMARK  Name = 
REMARK  9 active torsions:
REMARK  status: ('A' for Active; 'I' for Inactive)
REMARK    1  A    between atoms: N_6  and  C1*_7
REMARK    2  A    between atoms: C3*_9  and  O3*_10
REMARK    3  A    between atoms: C4*_11  and  C5*_12
REMARK    4  A    between atoms: C5*_12  and  O5*_13
REMARK    5  A    between atoms: C_16  and  C_17
REMARK    6  A    between atoms: C_17  and  C_18
REMARK    7  A    between atoms: C_18  and  C_19
REMARK    8  A    between atoms: C_19  and  C_20
REMARK    9  A    between atoms: C_20  and  C_21
REMARK                            x       y       z     vdW  Elec       q    Type
REMARK                         _______ _______ _______ _____ _____    ______ ____
ROOT
ATOM      1  O   UNL     1       7.697   5.647  15.422  0.00  0.00    +0.000 OA
ATOM      2  C   UNL     1       6.887   5.378  16.305  0.00  0.00    +0.000 A 
ATOM      3  N   UNL     1       7.171   5.569  17.630  0.00  0.00    +0.000 N 
ATOM      4  C   UNL     1       6.409   5.159  18.687  0.00  0.00    +0.000 A 
ATOM      5  O   UNL     1       6.814   5.291  19.839  0.00  0.00    +0.000 OA
ATOM      6  N   UNL     1       5.188   4.584  18.357  0.00  0.00    +0.000 N 
ATOM      7  C   UNL     1       4.778   4.469  17.047  0.00  0.00    +0.000 A 
ATOM      8  C   UNL     1       5.547   4.822  16.006  0.00  0.00    +0.000 A 
ATOM      9  H   UNL     1       8.083   5.940  17.847  0.00  0.00    +0.000 HD
ENDROOT
BRANCH   6  10
ATOM     10  C1* UNL     1       4.352   4.097  19.448  0.00  0.00    +0.000 C 
ATOM     11  C2* UNL     1       3.029   4.832  19.590  0.00  0.00    +0.000 C 
ATOM     12  C3* UNL     1       2.151   3.779  20.229  0.00  0.00    +0.000 C 
ATOM     13  C4* UNL     1       2.658   2.477  19.615  0.00  0.00    +0.000 C 
ATOM     14  O4* UNL     1       4.044   2.700  19.259  0.00  0.00    +0.000 OA
BRANCH  12  15
ATOM     15  O3* UNL     1       2.345   3.791  21.644  0.00  0.00    +0.000 OA
ATOM     16  H3* UNL     1       1.651   3.262  22.075  0.00  0.00    +0.000 HD
ENDBRANCH  12  15
BRANCH  13  17
ATOM     17  C5* UNL     1       1.891   2.095  18.343  0.00  0.00    +0.000 C 
BRANCH  17  18
ATOM     18  O5* UNL     1       0.494   2.337  18.506  0.00  0.00    +0.000 OA
ATOM     19  H5* UNL     1       0.079   2.174  17.639  0.00  0.00    +0.000 HD
ENDBRANCH  17  18
ENDBRANCH  13  17
ENDBRANCH   6  10
BRANCH   8  20
ATOM     20  C   UNL     1       5.131   4.624  14.575  0.00  0.00    +0.000 C 
BRANCH  20  21
ATOM     21  C   UNL     1       5.881   3.510  13.831  0.00  0.00    +0.000 C 
BRANCH  21  22
ATOM     22  C   UNL     1       6.460   3.964  12.488  0.00  0.00    +0.000 C 
BRANCH  22  23
ATOM     23  C   UNL     1       6.894   2.757  11.652  0.00  0.00    +0.000 C 
BRANCH  23  24
ATOM     24  C   UNL     1       5.753   1.776  11.446  0.00  0.00    +0.000 C 
ATOM     25  F   UNL     1       6.261   0.585  11.034  0.00  0.00    +0.000 F 
ENDBRANCH  23  24
ENDBRANCH  22  23
ENDBRANCH  21  22
ENDBRANCH  20  21
ENDBRANCH   8  20
TORSDOF 9
ENDMDL
MODEL 6
REMARK VINA RESULT:      -7.6      1.151      1.232
REMARK  Name = 
REMARK  9 active torsions:
REMARK  status: ('A' for Active; 'I' for Inactive)
REMARK    1  A    between atoms: N_6  and  C1*_7
REMARK    2  A    between atoms: C3*_9  and  O3*_10
REMARK    3  A    between atoms: C4*_11  and  C5*_12
REMARK    4  A    between atoms: C5*_12  and  O5*_13
REMARK    5  A    between atoms: C_16  and  C_17
REMARK    6  A    between atoms: C_17  and  C_18
REMARK    7  A    between atoms: C_18  and  C_19
REMARK    8  A    between atoms: C_19  and  C_20
REMARK    9  A    between atoms: C_20  and  C_21
REMARK                            x       y       z     vdW  Elec       q    Type
REMARK                         _______ _______ _______ _____ _____    ______ ____
ROOT
ATOM      1  O   UNL     1       8.090   4.481  16.948  0.00  0.00    +0.000 OA
ATOM      2  C   UNL     1       6.885   4.333  17.132  0.00  0.00    +0.000 A 
ATOM      3  N   UNL     1       6.370   4.072  18.373  0.00  0.00    +0.000 N 
ATOM      4  C   UNL     1       5.075   3.737  18.656  0.00  0.00    +0.000 A 
ATOM      5  O   UNL     1       4.747   3.419  19.796  0.00  0.00    +0.000 OA
ATOM      6  N   UNL     1       4.200   3.769  17.578  0.00  0.00    +0.000 N 
ATOM      7  C   UNL     1       4.621   4.143  16.321  0.00  0.00    +0.000 A 
ATOM      8  C   UNL     1       5.900   4.419  16.029  0.00  0.00    +0.000 A 
ATOM      9  H   UNL     1       7.031   4.003  19.131  0.00  0.00    +0.000 HD
ENDROOT
BRANCH   6  10
ATOM     10  C1* UNL     1       2.814   3.387  17.821  0.00  0.00    +0.000 C 
ATOM     11  C2* UNL     1       2.655   2.106  18.625  0.00  0.00    +0.000 C 
ATOM     12  C3* UNL     1       1.311   2.314  19.287  0.00  0.00    +0.000 C 
ATOM     13  C4* UNL     1       1.274   3.818  19.543  0.00  0.00    +0.000 C 
ATOM     14  O4* UNL     1       2.125   4.430  18.543  0.00  0.00    +0.000 OA
BRANCH  12  15
ATOM     15  O3* UNL     1       0.272   1.917  18.391  0.00  0.00    +0.000 OA
ATOM     16  H3* UNL     1      -0.428   1.455  18.885  0.00  0.00    +0.000 HD
ENDBRANCH  12  15
BRANCH  13  17
ATOM     17  C5* UNL     1       1.818   4.188  20.928  0.00  0.00    +0.000 C 
BRANCH  17  18
ATOM     18  O5* UNL     1       2.665   5.334  20.845  0.00  0.00    +0.000 OA
ATOM     19  H5* UNL     1       2.200   6.059  21.304  0.00  0.00    +0.000 HD
ENDBRANCH  17  18
ENDBRANCH  13  17
ENDBRANCH   6  10
BRANCH   8  20
ATOM     20  C   UNL     1       6.372   4.751  14.641  0.00  0.00    +0.000 C 
BRANCH  20  21
ATOM     21  C   UNL     1       6.460   3.553  13.684  0.00  0.00    +0.000 C 
BRANCH  21  22
ATOM     22  C   UNL     1       6.074   3.901  12.244  0.00  0.00    +0.000 C 
BRANCH  22  23
ATOM     23  C   UNL     1       5.057   2.894  11.699  0.00  0.00    +0.000 C 
BRANCH  23  24
ATOM     24  C   UNL     1       5.738   1.724  11.011  0.00  0.00    +0.000 C 
ATOM     25  F   UNL     1       5.859   0.698  11.896  0.00  0.00    +0.000 F 
ENDBRANCH  23  24
ENDBRANCH  22  23
ENDBRANCH  21  22
ENDBRANCH  20  21
ENDBRANCH   8  20
TORSDOF 9
ENDMDL
MODEL 7
REMARK VINA RESULT:      -7.5      1.557      2.383
REMARK  Name = 
REMARK  9 active torsions:
REMARK  status: ('A' for Active; 'I' for Inactive)
REMARK    1  A    between atoms: N_6  and  C1*_7
REMARK    2  A    between atoms: C3*_9  and  O3*_10
REMARK    3  A    between atoms: C4*_11  and  C5*_12
REMARK    4  A    between atoms: C5*_12  and  O5*_13
REMARK    5  A    between atoms: C_16  and  C_17
REMARK    6  A    between atoms: C_17  and  C_18
REMARK    7  A    between atoms: C_18  and  C_19
REMARK    8  A    between atoms: C_19  and  C_20
REMARK    9  A    between atoms: C_20  and  C_21
REMARK                            x       y       z     vdW  Elec       q    Type
REMARK                         _______ _______ _______ _____ _____    ______ ____
ROOT
ATOM      1  O   UNL     1       7.845   5.295  14.668  0.00  0.00    +0.000 OA
ATOM      2  C   UNL     1       7.077   5.177  15.620  0.00  0.00    +0.000 A 
ATOM      3  N   UNL     1       7.453   5.499  16.896  0.00  0.00    +0.000 N 
ATOM      4  C   UNL     1       6.736   5.258  18.034  0.00  0.00    +0.000 A 
ATOM      5  O   UNL     1       7.218   5.495  19.138  0.00  0.00    +0.000 OA
ATOM      6  N   UNL     1       5.468   4.724  17.840  0.00  0.00    +0.000 N 
ATOM      7  C   UNL     1       4.973   4.487  16.577  0.00  0.00    +0.000 A 
ATOM      8  C   UNL     1       5.693   4.672  15.462  0.00  0.00    +0.000 A 
ATOM      9  H   UNL     1       8.395   5.836  17.017  0.00  0.00    +0.000 HD
ENDROOT
BRANCH   6  10
ATOM     10  C1* UNL     1       4.676   4.416  19.025  0.00  0.00    +0.000 C 
ATOM     11  C2* UNL     1       3.180   4.615  18.839  0.00  0.00    +0.000 C 
ATOM     12  C3* UNL     1       2.606   3.639  19.842  0.00  0.00    +0.000 C 
ATOM     13  C4* UNL     1       3.601   2.482  19.818  0.00  0.00    +0.000 C 
ATOM     14  O4* UNL     1       4.876   3.042  19.419  0.00  0.00    +0.000 OA
BRANCH  12  15
ATOM     15  O3* UNL     1       2.558   4.252  21.131  0.00  0.00    +0.000 OA
ATOM     16  H3* UNL     1       1.663   4.597  21.298  0.00  0.00    +0.000 HD
ENDBRANCH  12  15
BRANCH  13  17
ATOM     17  C5* UNL     1       3.213   1.400  18.804  0.00  0.00    +0.000 C 
BRANCH  17  18
ATOM     18  O5* UNL     1       4.356   0.637  18.420  0.00  0.00    +0.000 OA
ATOM     19  H5* UNL     1       5.122   1.239  18.467  0.00  0.00    +0.000 HD
ENDBRANCH  17  18
ENDBRANCH  13  17
ENDBRANCH   6  10
BRANCH   8  20
ATOM     20  C   UNL     1       5.180   4.339  14.088  0.00  0.00    +0.000 C 
BRANCH  20  21
ATOM     21  C   UNL     1       6.243   3.826  13.107  0.00  0.00    +0.000 C 
BRANCH  21  22
ATOM     22  C   UNL     1       5.665   2.953  11.991  0.00  0.00    +0.000 C 
BRANCH  22  23
ATOM     23  C   UNL     1       4.179   3.259  11.780  0.00  0.00    +0.000 C 
BRANCH  23  24
ATOM     24  C   UNL     1       3.927   3.918  10.435  0.00  0.00    +0.000 C 
ATOM     25  F   UNL     1       2.777   3.421   9.906  0.00  0.00    +0.000 F 
ENDBRANCH  23  24
ENDBRANCH  22  23
ENDBRANCH  21  22
ENDBRANCH  20  21
ENDBRANCH   8  20
TORSDOF 9
ENDMDL
MODEL 8
REMARK VINA RESULT:      -7.5      2.165      3.512
REMARK  Name = 
REMARK  9 active torsions:
REMARK  status: ('A' for Active; 'I' for Inactive)
REMARK    1  A    between atoms: N_6  and  C1*_7
REMARK    2  A    between atoms: C3*_9  and  O3*_10
REMARK    3  A    between atoms: C4*_11  and  C5*_12
REMARK    4  A    between atoms: C5*_12  and  O5*_13
REMARK    5  A    between atoms: C_16  and  C_17
REMARK    6  A    between atoms: C_17  and  C_18
REMARK    7  A    between atoms: C_18  and  C_19
REMARK    8  A    between atoms: C_19  and  C_20
REMARK    9  A    between atoms: C_20  and  C_21
REMARK                            x       y       z     vdW  Elec       q    Type
REMARK                         _______ _______ _______ _____ _____    ______ ____
ROOT
ATOM      1  O   UNL     1       7.926   4.750  12.564  0.00  0.00    +0.000 OA
ATOM      2  C   UNL     1       7.267   4.830  13.598  0.00  0.00    +0.000 A 
ATOM      3  N   UNL     1       7.638   5.648  14.631  0.00  0.00    +0.000 N 
ATOM      4  C   UNL     1       7.067   5.691  15.872  0.00  0.00    +0.000 A 
ATOM      5  O   UNL     1       7.551   6.390  16.758  0.00  0.00    +0.000 OA
ATOM      6  N   UNL     1       5.945   4.890  16.042  0.00  0.00    +0.000 N 
ATOM      7  C   UNL     1       5.439   4.133  15.009  0.00  0.00    +0.000 A 
ATOM      8  C   UNL     1       6.026   4.047  13.808  0.00  0.00    +0.000 A 
ATOM      9  H   UNL     1       8.484   6.180  14.503  0.00  0.00    +0.000 HD
ENDROOT
BRANCH   6  10
ATOM     10  C1* UNL     1       5.320   4.874  17.359  0.00  0.00    +0.000 C 
ATOM     11  C2* UNL     1       4.156   5.841  17.505  0.00  0.00    +0.000 C 
ATOM     12  C3* UNL     1       3.324   5.173  18.578  0.00  0.00    +0.000 C 
ATOM     13  C4* UNL     1       3.527   3.685  18.305  0.00  0.00    +0.000 C 
ATOM     14  O4* UNL     1       4.816   3.554  17.659  0.00  0.00    +0.000 OA
BRANCH  12  15
ATOM     15  O3* UNL     1       3.826   5.535  19.865  0.00  0.00    +0.000 OA
ATOM     16  H3* UNL     1       3.408   6.363  20.159  0.00  0.00    +0.000 HD
ENDBRANCH  12  15
BRANCH  13  17
ATOM     17  C5* UNL     1       2.458   3.113  17.365  0.00  0.00    +0.000 C 
BRANCH  17  18
ATOM     18  O5* UNL     1       1.151   3.372  17.874  0.00  0.00    +0.000 OA
ATOM     19  H5* UNL     1       0.803   2.520  18.198  0.00  0.00    +0.000 HD
ENDBRANCH  17  18
ENDBRANCH  13  17
ENDBRANCH   6  10
BRANCH   8  20
ATOM     20  C   UNL     1       5.518   3.159  12.706  0.00  0.00    +0.000 C 
BRANCH  20  21
ATOM     21  C   UNL     1       4.244   3.657  12.009  0.00  0.00    +0.000 C 
BRANCH  21  22
ATOM     22  C   UNL     1       4.191   3.304  10.521  0.00  0.00    +0.000 C 
BRANCH  22  23
ATOM     23  C   UNL     1       2.791   3.557   9.955  0.00  0.00    +0.000 C 
BRANCH  23  24
ATOM     24  C   UNL     1       2.787   4.702   8.957  0.00  0.00    +0.000 C 
ATOM     25  F   UNL     1       1.643   5.420   9.111  0.00  0.00    +0.000 F 
ENDBRANCH  23  24
ENDBRANCH  22  23
ENDBRANCH  21  22
ENDBRANCH  20  21
ENDBRANCH   8  20
TORSDOF 9
ENDMDL
MODEL 9
REMARK VINA RESULT:      -7.4      1.994      2.816
REMARK  Name = 
REMARK  9 active torsions:
REMARK  status: ('A' for Active; 'I' for Inactive)
REMARK    1  A    between atoms: N_6  and  C1*_7
REMARK    2  A    between atoms: C3*_9  and  O3*_10
REMARK    3  A    between atoms: C4*_11  and  C5*_12
REMARK    4  A    between atoms: C5*_12  and  O5*_13
REMARK    5  A    between atoms: C_16  and  C_17
REMARK    6  A    between atoms: C_17  and  C_18
REMARK    7  A    between atoms: C_18  and  C_19
REMARK    8  A    between atoms: C_19  and  C_20
REMARK    9  A    between atoms: C_20  and  C_21
REMARK                            x       y       z     vdW  Elec       q    Type
REMARK                         _______ _______ _______ _____ _____    ______ ____
ROOT
ATOM      1  O   UNL     1       7.998   5.286  14.448  0.00  0.00    +0.000 OA
ATOM      2  C   UNL     1       7.221   5.192  15.394  0.00  0.00    +0.000 A 
ATOM      3  N   UNL     1       7.321   6.000  16.494  0.00  0.00    +0.000 N 
ATOM      4  C   UNL     1       6.614   5.873  17.657  0.00  0.00    +0.000 A 
ATOM      5  O   UNL     1       6.862   6.592  18.621  0.00  0.00    +0.000 OA
ATOM      6  N   UNL     1       5.638   4.885  17.658  0.00  0.00    +0.000 N 
ATOM      7  C   UNL     1       5.395   4.113  16.544  0.00  0.00    +0.000 A 
ATOM      8  C   UNL     1       6.123   4.198  15.421  0.00  0.00    +0.000 A 
ATOM      9  H   UNL     1       8.069   6.676  16.492  0.00  0.00    +0.000 HD
ENDROOT
BRANCH   6  10
ATOM     10  C1* UNL     1       4.879   4.685  18.886  0.00  0.00    +0.000 C 
ATOM     11  C2* UNL     1       3.392   4.975  18.751  0.00  0.00    +0.000 C 
ATOM     12  C3* UNL     1       2.799   4.087  19.822  0.00  0.00    +0.000 C 
ATOM     13  C4* UNL     1       3.715   2.867  19.816  0.00  0.00    +0.000 C 
ATOM     14  O4* UNL     1       5.005   3.320  19.339  0.00  0.00    +0.000 OA
BRANCH  12  15
ATOM     15  O3* UNL     1       2.847   4.762  21.080  0.00  0.00    +0.000 OA
ATOM     16  H3* UNL     1       2.601   4.145  21.792  0.00  0.00    +0.000 HD
ENDBRANCH  12  15
BRANCH  13  17
ATOM     17  C5* UNL     1       3.215   1.767  18.872  0.00  0.00    +0.000 C 
BRANCH  17  18
ATOM     18  O5* UNL     1       4.272   0.868  18.542  0.00  0.00    +0.000 OA
ATOM     19  H5* UNL     1       4.455   0.988  17.591  0.00  0.00    +0.000 HD
ENDBRANCH  17  18
ENDBRANCH  13  17
ENDBRANCH   6  10
BRANCH   8  20
ATOM     20  C   UNL     1       5.908   3.302  14.233  0.00  0.00    +0.000 C 
BRANCH  20  21
ATOM     21  C   UNL     1       5.443   4.017  12.957  0.00  0.00    +0.000 C 
BRANCH  21  22
ATOM     22  C   UNL     1       6.022   3.409  11.677  0.00  0.00    +0.000 C 
BRANCH  22  23
ATOM     23  C   UNL     1       5.517   1.976  11.484  0.00  0.00    +0.000 C 
BRANCH  23  24
ATOM     24  C   UNL     1       6.616   1.056  10.982  0.00  0.00    +0.000 C 
ATOM     25  F   UNL     1       6.175  -0.229  11.029  0.00  0.00    +0.000 F 
ENDBRANCH  23  24
ENDBRANCH  22  23
ENDBRANCH  21  22
ENDBRANCH  20  21
ENDBRANCH   8  20
TORSDOF 9
ENDMDL
