MODEL 1
REMARK VINA RESULT:      -7.8      0.000      0.000
REMARK  Name = 
REMARK  11 active torsions:
REMARK  status: ('A' for Active; 'I' for Inactive)
REMARK    1  A    between atoms: C_1  and  C_2
REMARK    2  A    between atoms: C_2  and  O_3
REMARK    3  A    between atoms: O_3  and  C_4
REMARK    4  A    between atoms: C_9  and  N_10
REMARK    5  A    between atoms: C_11  and  C_13
REMARK    6  A    between atoms: C_13  and  O_14
REMARK    7  A    between atoms: O_14  and  C_15
REMARK    8  A    between atoms: C_15  and  C_17
REMARK    9  A    between atoms: C_22  and  S_23
REMARK   10  A    between atoms: S_23  and  C_24
REMARK   11  A    between atoms: C_24  and  C_25
REMARK                            x       y       z     vdW  Elec       q    Type
REMARK                         _______ _______ _______ _____ _____    ______ ____
ROOT
ATOM      1  C   UNL     1       3.829   6.032  18.672  0.00  0.00    +0.000 C 
ATOM      2  O   UNL     1       3.815   5.655  19.835  0.00  0.00    +0.000 OA
ENDROOT
BRANCH   1   3
ATOM      3  C   UNL     1       4.814   5.546  17.685  0.00  0.00    +0.000 A 
ATOM      4  C   UNL     1       5.953   6.354  17.518  0.00  0.00    +0.000 A 
ATOM      5  C   UNL     1       7.000   5.972  16.685  0.00  0.00    +0.000 A 
ATOM      6  C   UNL     1       6.889   4.797  15.957  0.00  0.00    +0.000 A 
ATOM      7  C   UNL     1       5.731   4.021  16.060  0.00  0.00    +0.000 A 
ATOM      8  C   UNL     1       4.671   4.385  16.914  0.00  0.00    +0.000 A 
BRANCH   8   9
ATOM      9  S   UNL     1       3.252   3.296  16.876  0.00  0.00    +0.000 S 
BRANCH   9  10
ATOM     10  C   UNL     1       3.843   1.855  17.815  0.00  0.00    +0.000 C 
BRANCH  10  11
ATOM     11  C   UNL     1       3.948   2.058  19.326  0.00  0.00    +0.000 C 
ATOM     12  O   UNL     1       5.024   2.069  19.926  0.00  0.00    +0.000 OA
ATOM     13  N   UNL     1       2.761   2.338  19.975  0.00  0.00    +0.000 N 
ATOM     14  C   UNL     1       1.407   2.210  19.467  0.00  0.00    +0.000 C 
ATOM     15  C   UNL     1       0.610   3.189  20.312  0.00  0.00    +0.000 C 
ATOM     16  C   UNL     1       1.297   3.147  21.668  0.00  0.00    +0.000 C 
ATOM     17  C   UNL     1       2.755   2.794  21.360  0.00  0.00    +0.000 C 
ENDBRANCH  10  11
ENDBRANCH   9  10
ENDBRANCH   8   9
ENDBRANCH   1   3
BRANCH   1  18
ATOM     18  O   UNL     1       2.891   6.831  18.099  0.00  0.00    +0.000 OA
BRANCH  18  19
ATOM     19  C   UNL     1       2.212   7.695  19.011  0.00  0.00    +0.000 C 
BRANCH  19  21
ATOM     20  N   UNL     1       1.113   9.851  19.440  0.00  0.00    +0.000 N 
ATOM     21  C   UNL     1       1.780   9.077  18.502  0.00  0.00    +0.000 C 
ATOM     22  O   UNL     1       2.012   9.409  17.341  0.00  0.00    +0.000 OA
ATOM     23  H   UNL     1       1.166   9.557  20.403  0.00  0.00    +0.000 HD
BRANCH  20  29
ATOM     24  C   UNL     1      -0.690  11.369  18.687  0.00  0.00    +0.000 A 
ATOM     25  C   UNL     1      -1.104  12.673  18.378  0.00  0.00    +0.000 A 
ATOM     26  C   UNL     1      -0.248  13.758  18.539  0.00  0.00    +0.000 A 
ATOM     27  C   UNL     1       1.041  13.546  19.006  0.00  0.00    +0.000 A 
ATOM     28  C   UNL     1       1.461  12.253  19.331  0.00  0.00    +0.000 A 
ATOM     29  C   UNL     1       0.609  11.147  19.177  0.00  0.00    +0.000 A 
BRANCH  24  30
ATOM     30  O   UNL     1      -1.668  10.451  18.435  0.00  0.00    +0.000 OA
BRANCH  30  32
ATOM     31  C   UNL     1      -2.587  10.521  16.111  0.00  0.00    +0.000 C 
ATOM     32  C   UNL     1      -1.740   9.827  17.164  0.00  0.00    +0.000 C 
ENDBRANCH  30  32
ENDBRANCH  24  30
ENDBRANCH  20  29
ENDBRANCH  19  21
ENDBRANCH  18  19
ENDBRANCH   1  18
TORSDOF 10
ENDMDL
MODEL 2
REMARK VINA RESULT:      -7.8      2.514      5.066
REMARK  Name = 
REMARK  11 active torsions:
REMARK  status: ('A' for Active; 'I' for Inactive)
REMARK    1  A    between atoms: C_1  and  C_2
REMARK    2  A    between atoms: C_2  and  O_3
REMARK    3  A    between atoms: O_3  and  C_4
REMARK    4  A    between atoms: C_9  and  N_10
REMARK    5  A    between atoms: C_11  and  C_13
REMARK    6  A    between atoms: C_13  and  O_14
REMARK    7  A    between atoms: O_14  and  C_15
REMARK    8  A    between atoms: C_15  and  C_17
REMARK    9  A    between atoms: C_22  and  S_23
REMARK   10  A    between atoms: S_23  and  C_24
REMARK   11  A    between atoms: C_24  and  C_25
REMARK                            x       y       z     vdW  Elec       q    Type
REMARK                         _______ _______ _______ _____ _____    ______ ____
ROOT
ATOM      1  C   UNL     1       2.350   6.360  19.205  0.00  0.00    +0.000 C 
ATOM      2  O   UNL     1       2.229   6.962  20.262  0.00  0.00    +0.000 OA
ENDROOT
BRANCH   1   3
ATOM      3  C   UNL     1       2.503   4.894  19.133  0.00  0.00    +0.000 A 
ATOM      4  C   UNL     1       1.405   4.146  19.596  0.00  0.00    +0.000 A 
ATOM      5  C   UNL     1       1.381   2.758  19.506  0.00  0.00    +0.000 A 
ATOM      6  C   UNL     1       2.489   2.094  19.004  0.00  0.00    +0.000 A 
ATOM      7  C   UNL     1       3.615   2.821  18.606  0.00  0.00    +0.000 A 
ATOM      8  C   UNL     1       3.647   4.228  18.674  0.00  0.00    +0.000 A 
BRANCH   8   9
ATOM      9  S   UNL     1       5.189   4.981  18.168  0.00  0.00    +0.000 S 
BRANCH   9  10
ATOM     10  C   UNL     1       5.428   4.296  16.501  0.00  0.00    +0.000 C 
BRANCH  10  11
ATOM     11  C   UNL     1       6.469   5.013  15.643  0.00  0.00    +0.000 C 
ATOM     12  O   UNL     1       7.318   5.772  16.114  0.00  0.00    +0.000 OA
ATOM     13  N   UNL     1       6.473   4.677  14.302  0.00  0.00    +0.000 N 
ATOM     14  C   UNL     1       5.467   3.941  13.557  0.00  0.00    +0.000 C 
ATOM     15  C   UNL     1       6.239   3.359  12.386  0.00  0.00    +0.000 C 
ATOM     16  C   UNL     1       7.297   4.409  12.087  0.00  0.00    +0.000 C 
ATOM     17  C   UNL     1       7.563   5.096  13.429  0.00  0.00    +0.000 C 
ENDBRANCH  10  11
ENDBRANCH   9  10
ENDBRANCH   8   9
ENDBRANCH   1   3
BRANCH   1  18
ATOM     18  O   UNL     1       2.237   6.919  17.971  0.00  0.00    +0.000 OA
BRANCH  18  19
ATOM     19  C   UNL     1       2.830   8.212  17.850  0.00  0.00    +0.000 C 
BRANCH  19  21
ATOM     20  N   UNL     1       0.634   9.159  18.416  0.00  0.00    +0.000 N 
ATOM     21  C   UNL     1       1.907   9.435  17.939  0.00  0.00    +0.000 C 
ATOM     22  O   UNL     1       2.308  10.541  17.581  0.00  0.00    +0.000 OA
ATOM     23  H   UNL     1       0.494   8.268  18.866  0.00  0.00    +0.000 HD
BRANCH  20  29
ATOM     24  C   UNL     1      -0.483  10.962  19.689  0.00  0.00    +0.000 A 
ATOM     25  C   UNL     1      -1.557  11.858  19.804  0.00  0.00    +0.000 A 
ATOM     26  C   UNL     1      -2.537  11.936  18.819  0.00  0.00    +0.000 A 
ATOM     27  C   UNL     1      -2.455  11.108  17.708  0.00  0.00    +0.000 A 
ATOM     28  C   UNL     1      -1.382  10.223  17.576  0.00  0.00    +0.000 A 
ATOM     29  C   UNL     1      -0.383  10.133  18.559  0.00  0.00    +0.000 A 
BRANCH  24  30
ATOM     30  O   UNL     1       0.349  11.025  20.769  0.00  0.00    +0.000 OA
BRANCH  30  32
ATOM     31  C   UNL     1       0.701   9.302  22.546  0.00  0.00    +0.000 C 
ATOM     32  C   UNL     1      -0.072  10.497  22.016  0.00  0.00    +0.000 C 
ENDBRANCH  30  32
ENDBRANCH  24  30
ENDBRANCH  20  29
ENDBRANCH  19  21
ENDBRANCH  18  19
ENDBRANCH   1  18
TORSDOF 10
ENDMDL
MODEL 3
REMARK VINA RESULT:      -7.7      5.113      6.935
REMARK  Name = 
REMARK  11 active torsions:
REMARK  status: ('A' for Active; 'I' for Inactive)
REMARK    1  A    between atoms: C_1  and  C_2
REMARK    2  A    between atoms: C_2  and  O_3
REMARK    3  A    between atoms: O_3  and  C_4
REMARK    4  A    between atoms: C_9  and  N_10
REMARK    5  A    between atoms: C_11  and  C_13
REMARK    6  A    between atoms: C_13  and  O_14
REMARK    7  A    between atoms: O_14  and  C_15
REMARK    8  A    between atoms: C_15  and  C_17
REMARK    9  A    between atoms: C_22  and  S_23
REMARK   10  A    between atoms: S_23  and  C_24
REMARK   11  A    between atoms: C_24  and  C_25
REMARK                            x       y       z     vdW  Elec       q    Type
REMARK                         _______ _______ _______ _____ _____    ______ ____
ROOT
ATOM      1  C   UNL     1       7.515   6.706  17.583  0.00  0.00    +0.000 C 
ATOM      2  O   UNL     1       7.684   6.416  18.759  0.00  0.00    +0.000 OA
ENDROOT
BRANCH   1   3
ATOM      3  C   UNL     1       6.706   5.881  16.664  0.00  0.00    +0.000 A 
ATOM      4  C   UNL     1       7.434   5.141  15.715  0.00  0.00    +0.000 A 
ATOM      5  C   UNL     1       6.804   4.256  14.845  0.00  0.00    +0.000 A 
ATOM      6  C   UNL     1       5.422   4.149  14.874  0.00  0.00    +0.000 A 
ATOM      7  C   UNL     1       4.682   4.932  15.764  0.00  0.00    +0.000 A 
ATOM      8  C   UNL     1       5.307   5.818  16.664  0.00  0.00    +0.000 A 
BRANCH   8   9
ATOM      9  S   UNL     1       4.195   6.772  17.691  0.00  0.00    +0.000 S 
BRANCH   9  10
ATOM     10  C   UNL     1       4.240   5.861  19.264  0.00  0.00    +0.000 C 
BRANCH  10  11
ATOM     11  C   UNL     1       4.395   4.346  19.137  0.00  0.00    +0.000 C 
ATOM     12  O   UNL     1       5.478   3.772  19.259  0.00  0.00    +0.000 OA
ATOM     13  N   UNL     1       3.219   3.636  18.982  0.00  0.00    +0.000 N 
ATOM     14  C   UNL     1       1.897   4.145  18.664  0.00  0.00    +0.000 C 
ATOM     15  C   UNL     1       0.960   3.085  19.216  0.00  0.00    +0.000 C 
ATOM     16  C   UNL     1       1.726   1.785  19.026  0.00  0.00    +0.000 C 
ATOM     17  C   UNL     1       3.203   2.183  19.097  0.00  0.00    +0.000 C 
ENDBRANCH  10  11
ENDBRANCH   9  10
ENDBRANCH   8   9
ENDBRANCH   1   3
BRANCH   1  18
ATOM     18  O   UNL     1       7.928   7.861  16.997  0.00  0.00    +0.000 OA
BRANCH  18  19
ATOM     19  C   UNL     1       7.577   9.046  17.711  0.00  0.00    +0.000 C 
BRANCH  19  21
ATOM     20  N   UNL     1       8.987  11.049  17.923  0.00  0.00    +0.000 N 
ATOM     21  C   UNL     1       8.697   9.797  18.445  0.00  0.00    +0.000 C 
ATOM     22  O   UNL     1       9.272   9.274  19.399  0.00  0.00    +0.000 OA
ATOM     23  H   UNL     1       8.317  11.447  17.283  0.00  0.00    +0.000 HD
BRANCH  20  29
ATOM     24  C   UNL     1       9.864  12.584  19.653  0.00  0.00    +0.000 A 
ATOM     25  C   UNL     1      10.868  13.472  20.066  0.00  0.00    +0.000 A 
ATOM     26  C   UNL     1      11.996  13.699  19.283  0.00  0.00    +0.000 A 
ATOM     27  C   UNL     1      12.125  13.041  18.068  0.00  0.00    +0.000 A 
ATOM     28  C   UNL     1      11.138  12.144  17.652  0.00  0.00    +0.000 A 
ATOM     29  C   UNL     1       9.995  11.901  18.431  0.00  0.00    +0.000 A 
BRANCH  24  30
ATOM     30  O   UNL     1       8.836  12.525  20.550  0.00  0.00    +0.000 OA
BRANCH  30  32
ATOM     31  C   UNL     1       7.858  13.435  22.663  0.00  0.00    +0.000 C 
ATOM     32  C   UNL     1       8.490  13.676  21.303  0.00  0.00    +0.000 C 
ENDBRANCH  30  32
ENDBRANCH  24  30
ENDBRANCH  20  29
ENDBRANCH  19  21
ENDBRANCH  18  19
ENDBRANCH   1  18
TORSDOF 10
ENDMDL
MODEL 4
REMARK VINA RESULT:      -7.5      1.519      1.892
REMARK  Name = 
REMARK  11 active torsions:
REMARK  status: ('A' for Active; 'I' for Inactive)
REMARK    1  A    between atoms: C_1  and  C_2
REMARK    2  A    between atoms: C_2  and  O_3
REMARK    3  A    between atoms: O_3  and  C_4
REMARK    4  A    between atoms: C_9  and  N_10
REMARK    5  A    between atoms: C_11  and  C_13
REMARK    6  A    between atoms: C_13  and  O_14
REMARK    7  A    between atoms: O_14  and  C_15
REMARK    8  A    between atoms: C_15  and  C_17
REMARK    9  A    between atoms: C_22  and  S_23
REMARK   10  A    between atoms: S_23  and  C_24
REMARK   11  A    between atoms: C_24  and  C_25
REMARK                            x       y       z     vdW  Elec       q    Type
REMARK                         _______ _______ _______ _____ _____    ______ ____
ROOT
ATOM      1  C   UNL     1       4.753   6.910  16.475  0.00  0.00    +0.000 C 
ATOM      2  O   UNL     1       4.759   7.212  15.290  0.00  0.00    +0.000 OA
ENDROOT
BRANCH   1   3
ATOM      3  C   UNL     1       5.931   6.344  17.162  0.00  0.00    +0.000 A 
ATOM      4  C   UNL     1       6.822   7.284  17.712  0.00  0.00    +0.000 A 
ATOM      5  C   UNL     1       7.926   6.888  18.460  0.00  0.00    +0.000 A 
ATOM      6  C   UNL     1       8.188   5.535  18.614  0.00  0.00    +0.000 A 
ATOM      7  C   UNL     1       7.350   4.592  18.012  0.00  0.00    +0.000 A 
ATOM      8  C   UNL     1       6.218   4.977  17.268  0.00  0.00    +0.000 A 
BRANCH   8   9
ATOM      9  S   UNL     1       5.295   3.632  16.533  0.00  0.00    +0.000 S 
BRANCH   9  10
ATOM     10  C   UNL     1       3.781   3.603  17.540  0.00  0.00    +0.000 C 
BRANCH  10  11
ATOM     11  C   UNL     1       3.939   3.012  18.940  0.00  0.00    +0.000 C 
ATOM     12  O   UNL     1       5.035   2.729  19.427  0.00  0.00    +0.000 OA
ATOM     13  N   UNL     1       2.777   2.911  19.681  0.00  0.00    +0.000 N 
ATOM     14  C   UNL     1       1.405   3.044  19.224  0.00  0.00    +0.000 C 
ATOM     15  C   UNL     1       0.646   3.450  20.474  0.00  0.00    +0.000 C 
ATOM     16  C   UNL     1       1.379   2.733  21.597  0.00  0.00    +0.000 C 
ATOM     17  C   UNL     1       2.822   2.601  21.104  0.00  0.00    +0.000 C 
ENDBRANCH  10  11
ENDBRANCH   9  10
ENDBRANCH   8   9
ENDBRANCH   1   3
BRANCH   1  18
ATOM     18  O   UNL     1       3.735   7.160  17.340  0.00  0.00    +0.000 OA
BRANCH  18  19
ATOM     19  C   UNL     1       3.298   8.520  17.362  0.00  0.00    +0.000 C 
BRANCH  19  21
ATOM     20  N   UNL     1       1.434  10.031  17.896  0.00  0.00    +0.000 N 
ATOM     21  C   UNL     1       2.107   8.874  18.263  0.00  0.00    +0.000 C 
ATOM     22  O   UNL     1       1.832   8.168  19.232  0.00  0.00    +0.000 OA
ATOM     23  H   UNL     1       1.623  10.401  16.978  0.00  0.00    +0.000 HD
BRANCH  20  29
ATOM     24  C   UNL     1      -0.999  10.396  18.147  0.00  0.00    +0.000 A 
ATOM     25  C   UNL     1      -2.052  11.000  18.850  0.00  0.00    +0.000 A 
ATOM     26  C   UNL     1      -1.813  11.764  19.989  0.00  0.00    +0.000 A 
ATOM     27  C   UNL     1      -0.509  11.937  20.432  0.00  0.00    +0.000 A 
ATOM     28  C   UNL     1       0.547  11.328  19.748  0.00  0.00    +0.000 A 
ATOM     29  C   UNL     1       0.322  10.552  18.599  0.00  0.00    +0.000 A 
BRANCH  24  30
ATOM     30  O   UNL     1      -1.444   9.715  17.050  0.00  0.00    +0.000 OA
BRANCH  30  32
ATOM     31  C   UNL     1      -2.877  10.554  15.181  0.00  0.00    +0.000 C 
ATOM     32  C   UNL     1      -2.758   9.941  16.566  0.00  0.00    +0.000 C 
ENDBRANCH  30  32
ENDBRANCH  24  30
ENDBRANCH  20  29
ENDBRANCH  19  21
ENDBRANCH  18  19
ENDBRANCH   1  18
TORSDOF 10
ENDMDL
MODEL 5
REMARK VINA RESULT:      -7.4      2.079      4.581
REMARK  Name = 
REMARK  11 active torsions:
REMARK  status: ('A' for Active; 'I' for Inactive)
REMARK    1  A    between atoms: C_1  and  C_2
REMARK    2  A    between atoms: C_2  and  O_3
REMARK    3  A    between atoms: O_3  and  C_4
REMARK    4  A    between atoms: C_9  and  N_10
REMARK    5  A    between atoms: C_11  and  C_13
REMARK    6  A    between atoms: C_13  and  O_14
REMARK    7  A    between atoms: O_14  and  C_15
REMARK    8  A    between atoms: C_15  and  C_17
REMARK    9  A    between atoms: C_22  and  S_23
REMARK   10  A    between atoms: S_23  and  C_24
REMARK   11  A    between atoms: C_24  and  C_25
REMARK                            x       y       z     vdW  Elec       q    Type
REMARK                         _______ _______ _______ _____ _____    ______ ____
ROOT
ATOM      1  C   UNL     1       3.000   6.214  18.964  0.00  0.00    +0.000 C 
ATOM      2  O   UNL     1       4.042   6.645  19.437  0.00  0.00    +0.000 OA
ENDROOT
BRANCH   1   3
ATOM      3  C   UNL     1       2.448   4.891  19.315  0.00  0.00    +0.000 A 
ATOM      4  C   UNL     1       1.990   4.758  20.639  0.00  0.00    +0.000 A 
ATOM      5  C   UNL     1       1.368   3.593  21.079  0.00  0.00    +0.000 A 
ATOM      6  C   UNL     1       1.254   2.518  20.211  0.00  0.00    +0.000 A 
ATOM      7  C   UNL     1       1.770   2.613  18.915  0.00  0.00    +0.000 A 
ATOM      8  C   UNL     1       2.385   3.792  18.449  0.00  0.00    +0.000 A 
BRANCH   8   9
ATOM      9  S   UNL     1       3.027   3.709  16.781  0.00  0.00    +0.000 S 
BRANCH   9  10
ATOM     10  C   UNL     1       4.818   3.880  17.046  0.00  0.00    +0.000 C 
BRANCH  10  11
ATOM     11  C   UNL     1       5.414   5.225  16.634  0.00  0.00    +0.000 C 
ATOM     12  O   UNL     1       4.917   5.939  15.762  0.00  0.00    +0.000 OA
ATOM     13  N   UNL     1       6.497   5.652  17.379  0.00  0.00    +0.000 N 
ATOM     14  C   UNL     1       7.299   4.888  18.318  0.00  0.00    +0.000 C 
ATOM     15  C   UNL     1       7.882   5.945  19.239  0.00  0.00    +0.000 C 
ATOM     16  C   UNL     1       8.077   7.152  18.334  0.00  0.00    +0.000 C 
ATOM     17  C   UNL     1       6.999   7.015  17.255  0.00  0.00    +0.000 C 
ENDBRANCH  10  11
ENDBRANCH   9  10
ENDBRANCH   8   9
ENDBRANCH   1   3
BRANCH   1  18
ATOM     18  O   UNL     1       2.154   6.919  18.166  0.00  0.00    +0.000 OA
BRANCH  18  19
ATOM     19  C   UNL     1       2.653   8.193  17.755  0.00  0.00    +0.000 C 
BRANCH  19  21
ATOM     20  N   UNL     1       0.404   9.114  18.126  0.00  0.00    +0.000 N 
ATOM     21  C   UNL     1       1.748   9.415  17.960  0.00  0.00    +0.000 C 
ATOM     22  O   UNL     1       2.227  10.549  17.945  0.00  0.00    +0.000 OA
ATOM     23  H   UNL     1       0.169   8.154  18.324  0.00  0.00    +0.000 HD
BRANCH  20  29
ATOM     24  C   UNL     1      -0.847  10.705  19.547  0.00  0.00    +0.000 A 
ATOM     25  C   UNL     1      -1.911  11.610  19.679  0.00  0.00    +0.000 A 
ATOM     26  C   UNL     1      -2.744  11.904  18.604  0.00  0.00    +0.000 A 
ATOM     27  C   UNL     1      -2.523  11.286  17.381  0.00  0.00    +0.000 A 
ATOM     28  C   UNL     1      -1.457  10.394  17.233  0.00  0.00    +0.000 A 
ATOM     29  C   UNL     1      -0.605  10.088  18.307  0.00  0.00    +0.000 A 
BRANCH  24  30
ATOM     30  O   UNL     1      -0.171  10.539  20.721  0.00  0.00    +0.000 OA
BRANCH  30  32
ATOM     31  C   UNL     1      -0.993  10.756  23.073  0.00  0.00    +0.000 C 
ATOM     32  C   UNL     1      -0.437  11.402  21.816  0.00  0.00    +0.000 C 
ENDBRANCH  30  32
ENDBRANCH  24  30
ENDBRANCH  20  29
ENDBRANCH  19  21
ENDBRANCH  18  19
ENDBRANCH   1  18
TORSDOF 10
ENDMDL
MODEL 6
REMARK VINA RESULT:      -7.4      1.781      2.635
REMARK  Name = 
REMARK  11 active torsions:
REMARK  status: ('A' for Active; 'I' for Inactive)
REMARK    1  A    between atoms: C_1  and  C_2
REMARK    2  A    between atoms: C_2  and  O_3
REMARK    3  A    between atoms: O_3  and  C_4
REMARK    4  A    between atoms: C_9  and  N_10
REMARK    5  A    between atoms: C_11  and  C_13
REMARK    6  A    between atoms: C_13  and  O_14
REMARK    7  A    between atoms: O_14  and  C_15
REMARK    8  A    between atoms: C_15  and  C_17
REMARK    9  A    between atoms: C_22  and  S_23
REMARK   10  A    between atoms: S_23  and  C_24
REMARK   11  A    between atoms: C_24  and  C_25
REMARK                            x       y       z     vdW  Elec       q    Type
REMARK                         _______ _______ _______ _____ _____    ______ ____
ROOT
ATOM      1  C   UNL     1       3.102   6.924  18.243  0.00  0.00    +0.000 C 
ATOM      2  O   UNL     1       2.778   6.684  19.397  0.00  0.00    +0.000 OA
ENDROOT
BRANCH   1   3
ATOM      3  C   UNL     1       4.302   6.341  17.612  0.00  0.00    +0.000 A 
ATOM      4  C   UNL     1       5.401   7.210  17.481  0.00  0.00    +0.000 A 
ATOM      5  C   UNL     1       6.623   6.766  16.983  0.00  0.00    +0.000 A 
ATOM      6  C   UNL     1       6.740   5.455  16.550  0.00  0.00    +0.000 A 
ATOM      7  C   UNL     1       5.635   4.601  16.609  0.00  0.00    +0.000 A 
ATOM      8  C   UNL     1       4.397   5.030  17.128  0.00  0.00    +0.000 A 
BRANCH   8   9
ATOM      9  S   UNL     1       3.086   3.813  17.077  0.00  0.00    +0.000 S 
BRANCH   9  10
ATOM     10  C   UNL     1       3.890   2.345  17.787  0.00  0.00    +0.000 C 
BRANCH  10  11
ATOM     11  C   UNL     1       3.988   2.327  19.312  0.00  0.00    +0.000 C 
ATOM     12  O   UNL     1       5.063   2.308  19.913  0.00  0.00    +0.000 OA
ATOM     13  N   UNL     1       2.789   2.442  19.989  0.00  0.00    +0.000 N 
ATOM     14  C   UNL     1       1.443   2.317  19.460  0.00  0.00    +0.000 C 
ATOM     15  C   UNL     1       0.596   3.115  20.436  0.00  0.00    +0.000 C 
ATOM     16  C   UNL     1       1.288   2.909  21.775  0.00  0.00    +0.000 C 
ATOM     17  C   UNL     1       2.762   2.686  21.426  0.00  0.00    +0.000 C 
ENDBRANCH  10  11
ENDBRANCH   9  10
ENDBRANCH   8   9
ENDBRANCH   1   3
BRANCH   1  18
ATOM     18  O   UNL     1       2.361   7.639  17.356  0.00  0.00    +0.000 OA
BRANCH  18  19
ATOM     19  C   UNL     1       2.251   9.030  17.662  0.00  0.00    +0.000 C 
BRANCH  19  21
ATOM     20  N   UNL     1       1.470   9.620  19.917  0.00  0.00    +0.000 N 
ATOM     21  C   UNL     1       1.108   9.472  18.586  0.00  0.00    +0.000 C 
ATOM     22  O   UNL     1      -0.023   9.642  18.134  0.00  0.00    +0.000 OA
ATOM     23  H   UNL     1       2.457   9.654  20.124  0.00  0.00    +0.000 HD
BRANCH  20  29
ATOM     24  C   UNL     1       0.039  11.296  21.040  0.00  0.00    +0.000 A 
ATOM     25  C   UNL     1      -0.791  11.628  22.122  0.00  0.00    +0.000 A 
ATOM     26  C   UNL     1      -1.092  10.697  23.111  0.00  0.00    +0.000 A 
ATOM     27  C   UNL     1      -0.556   9.419  23.030  0.00  0.00    +0.000 A 
ATOM     28  C   UNL     1       0.259   9.072  21.950  0.00  0.00    +0.000 A 
ATOM     29  C   UNL     1       0.571   9.999  20.941  0.00  0.00    +0.000 A 
BRANCH  24  30
ATOM     30  O   UNL     1       0.228  12.355  20.199  0.00  0.00    +0.000 OA
BRANCH  30  32
ATOM     31  C   UNL     1       2.428  13.151  19.320  0.00  0.00    +0.000 C 
ATOM     32  C   UNL     1       1.344  13.210  20.382  0.00  0.00    +0.000 C 
ENDBRANCH  30  32
ENDBRANCH  24  30
ENDBRANCH  20  29
ENDBRANCH  19  21
ENDBRANCH  18  19
ENDBRANCH   1  18
TORSDOF 10
ENDMDL
MODEL 7
REMARK VINA RESULT:      -7.4      1.959      4.525
REMARK  Name = 
REMARK  11 active torsions:
REMARK  status: ('A' for Active; 'I' for Inactive)
REMARK    1  A    between atoms: C_1  and  C_2
REMARK    2  A    between atoms: C_2  and  O_3
REMARK    3  A    between atoms: O_3  and  C_4
REMARK    4  A    between atoms: C_9  and  N_10
REMARK    5  A    between atoms: C_11  and  C_13
REMARK    6  A    between atoms: C_13  and  O_14
REMARK    7  A    between atoms: O_14  and  C_15
REMARK    8  A    between atoms: C_15  and  C_17
REMARK    9  A    between atoms: C_22  and  S_23
REMARK   10  A    between atoms: S_23  and  C_24
REMARK   11  A    between atoms: C_24  and  C_25
REMARK                            x       y       z     vdW  Elec       q    Type
REMARK                         _______ _______ _______ _____ _____    ______ ____
ROOT
ATOM      1  C   UNL     1       3.100   6.049  19.000  0.00  0.00    +0.000 C 
ATOM      2  O   UNL     1       4.140   6.488  19.470  0.00  0.00    +0.000 OA
ENDROOT
BRANCH   1   3
ATOM      3  C   UNL     1       2.525   4.751  19.404  0.00  0.00    +0.000 A 
ATOM      4  C   UNL     1       2.119   4.660  20.748  0.00  0.00    +0.000 A 
ATOM      5  C   UNL     1       1.482   3.524  21.239  0.00  0.00    +0.000 A 
ATOM      6  C   UNL     1       1.301   2.435  20.401  0.00  0.00    +0.000 A 
ATOM      7  C   UNL     1       1.764   2.486  19.083  0.00  0.00    +0.000 A 
ATOM      8  C   UNL     1       2.394   3.636  18.566  0.00  0.00    +0.000 A 
BRANCH   8   9
ATOM      9  S   UNL     1       2.964   3.497  16.876  0.00  0.00    +0.000 S 
BRANCH   9  10
ATOM     10  C   UNL     1       4.767   3.641  17.060  0.00  0.00    +0.000 C 
BRANCH  10  11
ATOM     11  C   UNL     1       5.368   4.964  16.589  0.00  0.00    +0.000 C 
ATOM     12  O   UNL     1       4.897   5.620  15.659  0.00  0.00    +0.000 OA
ATOM     13  N   UNL     1       6.422   5.444  17.344  0.00  0.00    +0.000 N 
ATOM     14  C   UNL     1       7.195   4.744  18.355  0.00  0.00    +0.000 C 
ATOM     15  C   UNL     1       7.738   5.860  19.230  0.00  0.00    +0.000 C 
ATOM     16  C   UNL     1       7.958   7.012  18.262  0.00  0.00    +0.000 C 
ATOM     17  C   UNL     1       6.919   6.801  17.156  0.00  0.00    +0.000 C 
ENDBRANCH  10  11
ENDBRANCH   9  10
ENDBRANCH   8   9
ENDBRANCH   1   3
BRANCH   1  18
ATOM     18  O   UNL     1       2.278   6.726  18.155  0.00  0.00    +0.000 OA
BRANCH  18  19
ATOM     19  C   UNL     1       2.470   8.141  18.150  0.00  0.00    +0.000 C 
BRANCH  19  21
ATOM     20  N   UNL     1       0.871  10.007  18.142  0.00  0.00    +0.000 N 
ATOM     21  C   UNL     1       1.451   9.004  18.905  0.00  0.00    +0.000 C 
ATOM     22  O   UNL     1       1.224   8.795  20.096  0.00  0.00    +0.000 OA
ATOM     23  H   UNL     1       0.981   9.946  17.141  0.00  0.00    +0.000 HD
BRANCH  20  29
ATOM     24  C   UNL     1       0.260  11.934  19.567  0.00  0.00    +0.000 A 
ATOM     25  C   UNL     1      -0.741  12.772  20.081  0.00  0.00    +0.000 A 
ATOM     26  C   UNL     1      -2.071  12.623  19.699  0.00  0.00    +0.000 A 
ATOM     27  C   UNL     1      -2.415  11.623  18.801  0.00  0.00    +0.000 A 
ATOM     28  C   UNL     1      -1.424  10.792  18.271  0.00  0.00    +0.000 A 
ATOM     29  C   UNL     1      -0.077  10.930  18.643  0.00  0.00    +0.000 A 
BRANCH  24  30
ATOM     30  O   UNL     1       1.487  12.230  20.086  0.00  0.00    +0.000 OA
BRANCH  30  32
ATOM     31  C   UNL     1       2.614  13.447  18.215  0.00  0.00    +0.000 C 
ATOM     32  C   UNL     1       2.167  13.401  19.666  0.00  0.00    +0.000 C 
ENDBRANCH  30  32
ENDBRANCH  24  30
ENDBRANCH  20  29
ENDBRANCH  19  21
ENDBRANCH  18  19
ENDBRANCH   1  18
TORSDOF 10
ENDMDL
MODEL 8
REMARK VINA RESULT:      -7.4      1.917      4.340
REMARK  Name = 
REMARK  11 active torsions:
REMARK  status: ('A' for Active; 'I' for Inactive)
REMARK    1  A    between atoms: C_1  and  C_2
REMARK    2  A    between atoms: C_2  and  O_3
REMARK    3  A    between atoms: O_3  and  C_4
REMARK    4  A    between atoms: C_9  and  N_10
REMARK    5  A    between atoms: C_11  and  C_13
REMARK    6  A    between atoms: C_13  and  O_14
REMARK    7  A    between atoms: O_14  and  C_15
REMARK    8  A    between atoms: C_15  and  C_17
REMARK    9  A    between atoms: C_22  and  S_23
REMARK   10  A    between atoms: S_23  and  C_24
REMARK   11  A    between atoms: C_24  and  C_25
REMARK                            x       y       z     vdW  Elec       q    Type
REMARK                         _______ _______ _______ _____ _____    ______ ____
ROOT
ATOM      1  C   UNL     1       2.087   5.303  18.665  0.00  0.00    +0.000 C 
ATOM      2  O   UNL     1       1.748   5.061  17.515  0.00  0.00    +0.000 OA
ENDROOT
BRANCH   1   3
ATOM      3  C   UNL     1       2.266   4.251  19.684  0.00  0.00    +0.000 A 
ATOM      4  C   UNL     1       1.341   4.269  20.743  0.00  0.00    +0.000 A 
ATOM      5  C   UNL     1       1.341   3.283  21.726  0.00  0.00    +0.000 A 
ATOM      6  C   UNL     1       2.315   2.297  21.693  0.00  0.00    +0.000 A 
ATOM      7  C   UNL     1       3.284   2.309  20.686  0.00  0.00    +0.000 A 
ATOM      8  C   UNL     1       3.285   3.289  19.674  0.00  0.00    +0.000 A 
BRANCH   8   9
ATOM      9  S   UNL     1       4.631   3.173  18.500  0.00  0.00    +0.000 S 
BRANCH   9  10
ATOM     10  C   UNL     1       5.527   4.730  18.779  0.00  0.00    +0.000 C 
BRANCH  10  11
ATOM     11  C   UNL     1       6.730   4.965  17.868  0.00  0.00    +0.000 C 
ATOM     12  O   UNL     1       7.885   5.039  18.290  0.00  0.00    +0.000 OA
ATOM     13  N   UNL     1       6.459   4.984  16.513  0.00  0.00    +0.000 N 
ATOM     14  C   UNL     1       5.167   5.070  15.856  0.00  0.00    +0.000 C 
ATOM     15  C   UNL     1       5.412   4.447  14.493  0.00  0.00    +0.000 C 
ATOM     16  C   UNL     1       6.850   4.822  14.172  0.00  0.00    +0.000 C 
ATOM     17  C   UNL     1       7.538   4.950  15.534  0.00  0.00    +0.000 C 
ENDBRANCH  10  11
ENDBRANCH   9  10
ENDBRANCH   8   9
ENDBRANCH   1   3
BRANCH   1  18
ATOM     18  O   UNL     1       2.461   6.525  19.127  0.00  0.00    +0.000 OA
BRANCH  18  19
ATOM     19  C   UNL     1       2.757   7.480  18.107  0.00  0.00    +0.000 C 
BRANCH  19  21
ATOM     20  N   UNL     1       1.078   8.933  19.162  0.00  0.00    +0.000 N 
ATOM     21  C   UNL     1       2.029   8.830  18.157  0.00  0.00    +0.000 C 
ATOM     22  O   UNL     1       2.290   9.705  17.333  0.00  0.00    +0.000 OA
ATOM     23  H   UNL     1       1.103   8.237  19.891  0.00  0.00    +0.000 HD
BRANCH  20  29
ATOM     24  C   UNL     1      -0.782  10.431  18.521  0.00  0.00    +0.000 A 
ATOM     25  C   UNL     1      -1.492  11.621  18.746  0.00  0.00    +0.000 A 
ATOM     26  C   UNL     1      -1.161  12.469  19.798  0.00  0.00    +0.000 A 
ATOM     27  C   UNL     1      -0.105  12.137  20.635  0.00  0.00    +0.000 A 
ATOM     28  C   UNL     1       0.600  10.948  20.430  0.00  0.00    +0.000 A 
ATOM     29  C   UNL     1       0.277  10.079  19.375  0.00  0.00    +0.000 A 
BRANCH  24  30
ATOM     30  O   UNL     1      -1.248   9.759  17.428  0.00  0.00    +0.000 OA
BRANCH  30  32
ATOM     31  C   UNL     1      -2.780  10.252  15.515  0.00  0.00    +0.000 C 
ATOM     32  C   UNL     1      -2.582   9.961  16.992  0.00  0.00    +0.000 C 
ENDBRANCH  30  32
ENDBRANCH  24  30
ENDBRANCH  20  29
ENDBRANCH  19  21
ENDBRANCH  18  19
ENDBRANCH   1  18
TORSDOF 10
ENDMDL
MODEL 9
REMARK VINA RESULT:      -7.3      1.573      4.024
REMARK  Name = 
REMARK  11 active torsions:
REMARK  status: ('A' for Active; 'I' for Inactive)
REMARK    1  A    between atoms: C_1  and  C_2
REMARK    2  A    between atoms: C_2  and  O_3
REMARK    3  A    between atoms: O_3  and  C_4
REMARK    4  A    between atoms: C_9  and  N_10
REMARK    5  A    between atoms: C_11  and  C_13
REMARK    6  A    between atoms: C_13  and  O_14
REMARK    7  A    between atoms: O_14  and  C_15
REMARK    8  A    between atoms: C_15  and  C_17
REMARK    9  A    between atoms: C_22  and  S_23
REMARK   10  A    between atoms: S_23  and  C_24
REMARK   11  A    between atoms: C_24  and  C_25
REMARK                            x       y       z     vdW  Elec       q    Type
REMARK                         _______ _______ _______ _____ _____    ______ ____
ROOT
ATOM      1  C   UNL     1       3.326   5.859  19.135  0.00  0.00    +0.000 C 
ATOM      2  O   UNL     1       4.453   6.103  19.543  0.00  0.00    +0.000 OA
ENDROOT
BRANCH   1   3
ATOM      3  C   UNL     1       2.649   4.570  19.380  0.00  0.00    +0.000 A 
ATOM      4  C   UNL     1       2.197   4.364  20.696  0.00  0.00    +0.000 A 
ATOM      5  C   UNL     1       1.467   3.231  21.045  0.00  0.00    +0.000 A 
ATOM      6  C   UNL     1       1.234   2.256  20.087  0.00  0.00    +0.000 A 
ATOM      7  C   UNL     1       1.739   2.417  18.793  0.00  0.00    +0.000 A 
ATOM      8  C   UNL     1       2.464   3.566  18.421  0.00  0.00    +0.000 A 
BRANCH   8   9
ATOM      9  S   UNL     1       3.072   3.571  16.738  0.00  0.00    +0.000 S 
BRANCH   9  10
ATOM     10  C   UNL     1       4.869   3.715  16.975  0.00  0.00    +0.000 C 
BRANCH  10  11
ATOM     11  C   UNL     1       5.484   5.040  16.525  0.00  0.00    +0.000 C 
ATOM     12  O   UNL     1       5.027   5.708  15.597  0.00  0.00    +0.000 OA
ATOM     13  N   UNL     1       6.532   5.505  17.297  0.00  0.00    +0.000 N 
ATOM     14  C   UNL     1       7.289   4.791  18.308  0.00  0.00    +0.000 C 
ATOM     15  C   UNL     1       7.829   5.894  19.202  0.00  0.00    +0.000 C 
ATOM     16  C   UNL     1       8.066   7.055  18.248  0.00  0.00    +0.000 C 
ATOM     17  C   UNL     1       7.039   6.861  17.129  0.00  0.00    +0.000 C 
ENDBRANCH  10  11
ENDBRANCH   9  10
ENDBRANCH   8   9
ENDBRANCH   1   3
BRANCH   1  18
ATOM     18  O   UNL     1       2.506   6.754  18.523  0.00  0.00    +0.000 OA
BRANCH  18  19
ATOM     19  C   UNL     1       1.997   7.773  19.384  0.00  0.00    +0.000 C 
BRANCH  19  21
ATOM     20  N   UNL     1       0.969   9.996  19.599  0.00  0.00    +0.000 N 
ATOM     21  C   UNL     1       1.661   9.135  18.760  0.00  0.00    +0.000 C 
ATOM     22  O   UNL     1       1.982   9.380  17.598  0.00  0.00    +0.000 OA
ATOM     23  H   UNL     1       0.948   9.764  20.581  0.00  0.00    +0.000 HD
BRANCH  20  29
ATOM     24  C   UNL     1      -0.727  11.537  18.670  0.00  0.00    +0.000 A 
ATOM     25  C   UNL     1      -1.063  12.833  18.248  0.00  0.00    +0.000 A 
ATOM     26  C   UNL     1      -0.157  13.883  18.357  0.00  0.00    +0.000 A 
ATOM     27  C   UNL     1       1.104  13.645  18.885  0.00  0.00    +0.000 A 
ATOM     28  C   UNL     1       1.445  12.362  19.322  0.00  0.00    +0.000 A 
ATOM     29  C   UNL     1       0.542  11.291  19.222  0.00  0.00    +0.000 A 
BRANCH  24  30
ATOM     30  O   UNL     1      -1.743  10.652  18.453  0.00  0.00    +0.000 OA
BRANCH  30  32
ATOM     31  C   UNL     1      -2.533  10.439  16.091  0.00  0.00    +0.000 C 
ATOM     32  C   UNL     1      -1.759   9.873  17.268  0.00  0.00    +0.000 C 
ENDBRANCH  30  32
ENDBRANCH  24  30
ENDBRANCH  20  29
ENDBRANCH  19  21
ENDBRANCH  18  19
ENDBRANCH   1  18
TORSDOF 10
ENDMDL
