MODEL 1
REMARK VINA RESULT:      -7.8      0.000      0.000
REMARK  Name = 
REMARK  10 active torsions:
REMARK  status: ('A' for Active; 'I' for Inactive)
REMARK    1  A    between atoms: C_1  and  N_2
REMARK    2  A    between atoms: N_2  and  C_3
REMARK    3  A    between atoms: N_2  and  C_4
REMARK    4  A    between atoms: C_4  and  C_5
REMARK    5  A    between atoms: C_4  and  C_26
REMARK    6  A    between atoms: C_5  and  N_6
REMARK    7  A    between atoms: C_7  and  C_9
REMARK    8  A    between atoms: C_12  and  O_13
REMARK    9  A    between atoms: O_13  and  C_14
REMARK   10  A    between atoms: C_14  and  C_15
REMARK                            x       y       z     vdW  Elec       q    Type
REMARK                         _______ _______ _______ _____ _____    ______ ____
ROOT
ATOM      1  C   UNL     1       2.028   8.072  19.132  0.00  0.00    +0.000 A 
ATOM      2  C   UNL     1       1.585   8.035  20.458  0.00  0.00    +0.000 A 
ATOM      3  C   UNL     1       0.663   8.976  20.921  0.00  0.00    +0.000 A 
ATOM      4  C   UNL     1       0.204   9.984  20.072  0.00  0.00    +0.000 A 
ATOM      5  C   UNL     1       0.618  10.007  18.739  0.00  0.00    +0.000 A 
ATOM      6  C   UNL     1       1.534   9.058  18.267  0.00  0.00    +0.000 A 
ENDROOT
BRANCH   1   8
ATOM      7  N   UNL     1       3.397   6.129  19.645  0.00  0.00    +0.000 N 
ATOM      8  C   UNL     1       3.028   7.058  18.703  0.00  0.00    +0.000 C 
ATOM      9  O   UNL     1       3.515   7.101  17.578  0.00  0.00    +0.000 OA
ATOM     10  H   UNL     1       3.159   6.285  20.620  0.00  0.00    +0.000 HD
BRANCH   7  11
ATOM     11  C   UNL     1       4.532   5.246  19.421  0.00  0.00    +0.000 C 
BRANCH  11  12
ATOM     12  C   UNL     1       4.122   3.764  19.156  0.00  0.00    +0.000 C 
BRANCH  12  13
ATOM     13  C   UNL     1       2.952   3.434  20.057  0.00  0.00    +0.000 A 
ATOM     14  C   UNL     1       2.843   2.735  21.243  0.00  0.00    +0.000 A 
ATOM     15  C   UNL     1       1.472   2.761  21.600  0.00  0.00    +0.000 A 
ATOM     16  C   UNL     1       0.832   3.473  20.615  0.00  0.00    +0.000 A 
ATOM     17  O   UNL     1       1.716   3.883  19.672  0.00  0.00    +0.000 OA
ENDBRANCH  12  13
BRANCH  12  19
ATOM     18  C   UNL     1       4.916   3.851  16.842  0.00  0.00    +0.000 C 
ATOM     19  N   UNL     1       3.817   3.453  17.727  0.00  0.00    +0.000 NA
ATOM     20  C   UNL     1       3.550   2.022  17.535  0.00  0.00    +0.000 C 
ENDBRANCH  12  19
ENDBRANCH  11  12
ENDBRANCH   7  11
ENDBRANCH   1   8
BRANCH   4  21
ATOM     21  O   UNL     1      -0.640  10.997  20.449  0.00  0.00    +0.000 OA
BRANCH  21  22
ATOM     22  C   UNL     1      -1.047  11.864  19.381  0.00  0.00    +0.000 C 
BRANCH  22  23
ATOM     23  C   UNL     1      -2.528  11.986  19.269  0.00  0.00    +0.000 A 
ATOM     24  C   UNL     1      -3.433  12.597  20.113  0.00  0.00    +0.000 A 
ATOM     25  N   UNL     1      -4.667  12.372  19.562  0.00  0.00    +0.000 N 
ATOM     26  C   UNL     1      -5.926  12.762  20.014  0.00  0.00    +0.000 A 
ATOM     27  C   UNL     1      -7.012  12.416  19.302  0.00  0.00    +0.000 A 
ATOM     28  C   UNL     1      -6.836  11.643  18.079  0.00  0.00    +0.000 A 
ATOM     29  C   UNL     1      -5.615  11.270  17.650  0.00  0.00    +0.000 A 
ATOM     30  C   UNL     1      -4.461  11.637  18.400  0.00  0.00    +0.000 A 
ATOM     31  N   UNL     1      -3.183  11.399  18.203  0.00  0.00    +0.000 NA
ENDBRANCH  22  23
ENDBRANCH  21  22
ENDBRANCH   4  21
TORSDOF 8
ENDMDL
MODEL 2
REMARK VINA RESULT:      -7.7      1.851      2.483
REMARK  Name = 
REMARK  10 active torsions:
REMARK  status: ('A' for Active; 'I' for Inactive)
REMARK    1  A    between atoms: C_1  and  N_2
REMARK    2  A    between atoms: N_2  and  C_3
REMARK    3  A    between atoms: N_2  and  C_4
REMARK    4  A    between atoms: C_4  and  C_5
REMARK    5  A    between atoms: C_4  and  C_26
REMARK    6  A    between atoms: C_5  and  N_6
REMARK    7  A    between atoms: C_7  and  C_9
REMARK    8  A    between atoms: C_12  and  O_13
REMARK    9  A    between atoms: O_13  and  C_14
REMARK   10  A    between atoms: C_14  and  C_15
REMARK                            x       y       z     vdW  Elec       q    Type
REMARK                         _______ _______ _______ _____ _____    ______ ____
ROOT
ATOM      1  C   UNL     1       2.130   8.085  18.850  0.00  0.00    +0.000 A 
ATOM      2  C   UNL     1       1.683   8.206  20.170  0.00  0.00    +0.000 A 
ATOM      3  C   UNL     1       0.758   9.193  20.514  0.00  0.00    +0.000 A 
ATOM      4  C   UNL     1       0.300  10.092  19.550  0.00  0.00    +0.000 A 
ATOM      5  C   UNL     1       0.719   9.956  18.225  0.00  0.00    +0.000 A 
ATOM      6  C   UNL     1       1.638   8.960  17.873  0.00  0.00    +0.000 A 
ENDROOT
BRANCH   1   8
ATOM      7  N   UNL     1       3.421   6.152  19.567  0.00  0.00    +0.000 N 
ATOM      8  C   UNL     1       3.134   7.029  18.549  0.00  0.00    +0.000 C 
ATOM      9  O   UNL     1       3.693   6.996  17.458  0.00  0.00    +0.000 OA
ATOM     10  H   UNL     1       3.123   6.371  20.513  0.00  0.00    +0.000 HD
BRANCH   7  11
ATOM     11  C   UNL     1       4.548   5.237  19.470  0.00  0.00    +0.000 C 
BRANCH  11  12
ATOM     12  C   UNL     1       4.127   3.763  19.179  0.00  0.00    +0.000 C 
BRANCH  12  13
ATOM     13  C   UNL     1       2.950   3.427  20.069  0.00  0.00    +0.000 A 
ATOM     14  C   UNL     1       2.827   2.694  21.233  0.00  0.00    +0.000 A 
ATOM     15  C   UNL     1       1.456   2.736  21.590  0.00  0.00    +0.000 A 
ATOM     16  C   UNL     1       0.831   3.491  20.627  0.00  0.00    +0.000 A 
ATOM     17  O   UNL     1       1.723   3.912  19.698  0.00  0.00    +0.000 OA
ENDBRANCH  12  13
BRANCH  12  19
ATOM     18  C   UNL     1       4.956   3.826  16.877  0.00  0.00    +0.000 C 
ATOM     19  N   UNL     1       3.826   3.478  17.743  0.00  0.00    +0.000 NA
ATOM     20  C   UNL     1       3.491   2.063  17.537  0.00  0.00    +0.000 C 
ENDBRANCH  12  19
ENDBRANCH  11  12
ENDBRANCH   7  11
ENDBRANCH   1   8
BRANCH   4  21
ATOM     21  O   UNL     1      -0.546  11.141  19.801  0.00  0.00    +0.000 OA
BRANCH  21  22
ATOM     22  C   UNL     1      -0.462  11.671  21.132  0.00  0.00    +0.000 C 
BRANCH  22  23
ATOM     23  C   UNL     1      -1.795  12.019  21.699  0.00  0.00    +0.000 A 
ATOM     24  C   UNL     1      -2.907  12.559  21.084  0.00  0.00    +0.000 A 
ATOM     25  N   UNL     1      -3.840  12.719  22.075  0.00  0.00    +0.000 N 
ATOM     26  C   UNL     1      -5.133  13.232  22.002  0.00  0.00    +0.000 A 
ATOM     27  C   UNL     1      -5.873  13.300  23.122  0.00  0.00    +0.000 A 
ATOM     28  C   UNL     1      -5.297  12.835  24.377  0.00  0.00    +0.000 A 
ATOM     29  C   UNL     1      -4.045  12.340  24.438  0.00  0.00    +0.000 A 
ATOM     30  C   UNL     1      -3.259  12.264  23.253  0.00  0.00    +0.000 A 
ATOM     31  N   UNL     1      -2.033  11.834  23.048  0.00  0.00    +0.000 NA
ENDBRANCH  22  23
ENDBRANCH  21  22
ENDBRANCH   4  21
TORSDOF 8
ENDMDL
MODEL 3
REMARK VINA RESULT:      -7.6      1.990      3.784
REMARK  Name = 
REMARK  10 active torsions:
REMARK  status: ('A' for Active; 'I' for Inactive)
REMARK    1  A    between atoms: C_1  and  N_2
REMARK    2  A    between atoms: N_2  and  C_3
REMARK    3  A    between atoms: N_2  and  C_4
REMARK    4  A    between atoms: C_4  and  C_5
REMARK    5  A    between atoms: C_4  and  C_26
REMARK    6  A    between atoms: C_5  and  N_6
REMARK    7  A    between atoms: C_7  and  C_9
REMARK    8  A    between atoms: C_12  and  O_13
REMARK    9  A    between atoms: O_13  and  C_14
REMARK   10  A    between atoms: C_14  and  C_15
REMARK                            x       y       z     vdW  Elec       q    Type
REMARK                         _______ _______ _______ _____ _____    ______ ____
ROOT
ATOM      1  C   UNL     1       2.324   7.026  18.981  0.00  0.00    +0.000 A 
ATOM      2  C   UNL     1       2.203   8.005  17.990  0.00  0.00    +0.000 A 
ATOM      3  C   UNL     1       1.629   9.243  18.287  0.00  0.00    +0.000 A 
ATOM      4  C   UNL     1       1.137   9.499  19.568  0.00  0.00    +0.000 A 
ATOM      5  C   UNL     1       1.284   8.536  20.569  0.00  0.00    +0.000 A 
ATOM      6  C   UNL     1       1.870   7.297  20.278  0.00  0.00    +0.000 A 
ENDROOT
BRANCH   1   8
ATOM      7  N   UNL     1       4.120   5.399  19.191  0.00  0.00    +0.000 N 
ATOM      8  C   UNL     1       2.923   5.719  18.599  0.00  0.00    +0.000 C 
ATOM      9  O   UNL     1       2.378   5.006  17.762  0.00  0.00    +0.000 OA
ATOM     10  H   UNL     1       4.645   6.120  19.677  0.00  0.00    +0.000 HD
BRANCH   7  11
ATOM     11  C   UNL     1       4.911   4.272  18.720  0.00  0.00    +0.000 C 
BRANCH  11  12
ATOM     12  C   UNL     1       6.290   4.688  18.121  0.00  0.00    +0.000 C 
BRANCH  12  13
ATOM     13  C   UNL     1       6.192   4.597  16.613  0.00  0.00    +0.000 A 
ATOM     14  C   UNL     1       5.126   4.490  15.742  0.00  0.00    +0.000 A 
ATOM     15  C   UNL     1       5.677   4.437  14.438  0.00  0.00    +0.000 A 
ATOM     16  C   UNL     1       7.040   4.516  14.593  0.00  0.00    +0.000 A 
ATOM     17  O   UNL     1       7.365   4.610  15.906  0.00  0.00    +0.000 OA
ENDBRANCH  12  13
BRANCH  12  19
ATOM     18  C   UNL     1       8.094   5.953  19.188  0.00  0.00    +0.000 C 
ATOM     19  N   UNL     1       6.773   6.033  18.557  0.00  0.00    +0.000 NA
ATOM     20  C   UNL     1       6.845   6.969  17.427  0.00  0.00    +0.000 C 
ENDBRANCH  12  19
ENDBRANCH  11  12
ENDBRANCH   7  11
ENDBRANCH   1   8
BRANCH   4  21
ATOM     21  O   UNL     1       0.490  10.648  19.939  0.00  0.00    +0.000 OA
BRANCH  21  22
ATOM     22  C   UNL     1       0.157  11.524  18.852  0.00  0.00    +0.000 C 
BRANCH  22  23
ATOM     23  C   UNL     1      -1.309  11.592  18.593  0.00  0.00    +0.000 A 
ATOM     24  C   UNL     1      -2.021  11.301  17.447  0.00  0.00    +0.000 A 
ATOM     25  N   UNL     1      -3.330  11.579  17.741  0.00  0.00    +0.000 N 
ATOM     26  C   UNL     1      -4.462  11.471  16.936  0.00  0.00    +0.000 A 
ATOM     27  C   UNL     1      -5.659  11.812  17.444  0.00  0.00    +0.000 A 
ATOM     28  C   UNL     1      -5.732  12.282  18.821  0.00  0.00    +0.000 A 
ATOM     29  C   UNL     1      -4.631  12.383  19.592  0.00  0.00    +0.000 A 
ATOM     30  C   UNL     1      -3.361  12.021  19.058  0.00  0.00    +0.000 A 
ATOM     31  N   UNL     1      -2.159  12.031  19.590  0.00  0.00    +0.000 NA
ENDBRANCH  22  23
ENDBRANCH  21  22
ENDBRANCH   4  21
TORSDOF 8
ENDMDL
MODEL 4
REMARK VINA RESULT:      -7.6      1.365      2.744
REMARK  Name = 
REMARK  10 active torsions:
REMARK  status: ('A' for Active; 'I' for Inactive)
REMARK    1  A    between atoms: C_1  and  N_2
REMARK    2  A    between atoms: N_2  and  C_3
REMARK    3  A    between atoms: N_2  and  C_4
REMARK    4  A    between atoms: C_4  and  C_5
REMARK    5  A    between atoms: C_4  and  C_26
REMARK    6  A    between atoms: C_5  and  N_6
REMARK    7  A    between atoms: C_7  and  C_9
REMARK    8  A    between atoms: C_12  and  O_13
REMARK    9  A    between atoms: O_13  and  C_14
REMARK   10  A    between atoms: C_14  and  C_15
REMARK                            x       y       z     vdW  Elec       q    Type
REMARK                         _______ _______ _______ _____ _____    ______ ____
ROOT
ATOM      1  C   UNL     1       2.046   8.183  18.872  0.00  0.00    +0.000 A 
ATOM      2  C   UNL     1       1.592   8.176  20.194  0.00  0.00    +0.000 A 
ATOM      3  C   UNL     1       0.700   9.153  20.639  0.00  0.00    +0.000 A 
ATOM      4  C   UNL     1       0.282  10.167  19.775  0.00  0.00    +0.000 A 
ATOM      5  C   UNL     1       0.708  10.159  18.445  0.00  0.00    +0.000 A 
ATOM      6  C   UNL     1       1.595   9.175  17.992  0.00  0.00    +0.000 A 
ENDROOT
BRANCH   1   8
ATOM      7  N   UNL     1       3.045   5.995  19.238  0.00  0.00    +0.000 N 
ATOM      8  C   UNL     1       3.015   7.129  18.463  0.00  0.00    +0.000 C 
ATOM      9  O   UNL     1       3.766   7.310  17.510  0.00  0.00    +0.000 OA
ATOM     10  H   UNL     1       2.591   5.998  20.146  0.00  0.00    +0.000 HD
BRANCH   7  11
ATOM     11  C   UNL     1       4.105   5.011  19.081  0.00  0.00    +0.000 C 
BRANCH  11  12
ATOM     12  C   UNL     1       3.898   4.064  17.859  0.00  0.00    +0.000 C 
BRANCH  12  13
ATOM     13  C   UNL     1       5.086   4.225  16.935  0.00  0.00    +0.000 A 
ATOM     14  C   UNL     1       5.225   4.180  15.562  0.00  0.00    +0.000 A 
ATOM     15  C   UNL     1       6.599   4.397  15.291  0.00  0.00    +0.000 A 
ATOM     16  C   UNL     1       7.210   4.563  16.510  0.00  0.00    +0.000 A 
ATOM     17  O   UNL     1       6.305   4.456  17.515  0.00  0.00    +0.000 OA
ENDBRANCH  12  13
BRANCH  12  19
ATOM     18  C   UNL     1       4.119   2.341  19.584  0.00  0.00    +0.000 C 
ATOM     19  N   UNL     1       3.673   2.631  18.217  0.00  0.00    +0.000 NA
ATOM     20  C   UNL     1       2.257   2.264  18.094  0.00  0.00    +0.000 C 
ENDBRANCH  12  19
ENDBRANCH  11  12
ENDBRANCH   7  11
ENDBRANCH   1   8
BRANCH   4  21
ATOM     21  O   UNL     1      -0.528  11.213  20.133  0.00  0.00    +0.000 OA
BRANCH  21  22
ATOM     22  C   UNL     1      -1.082  11.944  19.030  0.00  0.00    +0.000 C 
BRANCH  22  23
ATOM     23  C   UNL     1      -2.571  12.012  19.072  0.00  0.00    +0.000 A 
ATOM     24  C   UNL     1      -3.408  12.517  20.047  0.00  0.00    +0.000 A 
ATOM     25  N   UNL     1      -4.682  12.285  19.601  0.00  0.00    +0.000 N 
ATOM     26  C   UNL     1      -5.902  12.585  20.204  0.00  0.00    +0.000 A 
ATOM     27  C   UNL     1      -7.041  12.251  19.574  0.00  0.00    +0.000 A 
ATOM     28  C   UNL     1      -6.962  11.584  18.280  0.00  0.00    +0.000 A 
ATOM     29  C   UNL     1      -5.778  11.298  17.706  0.00  0.00    +0.000 A 
ATOM     30  C   UNL     1      -4.568  11.652  18.369  0.00  0.00    +0.000 A 
ATOM     31  N   UNL     1      -3.309  11.484  18.030  0.00  0.00    +0.000 NA
ENDBRANCH  22  23
ENDBRANCH  21  22
ENDBRANCH   4  21
TORSDOF 8
ENDMDL
MODEL 5
REMARK VINA RESULT:      -7.5      1.412      2.987
REMARK  Name = 
REMARK  10 active torsions:
REMARK  status: ('A' for Active; 'I' for Inactive)
REMARK    1  A    between atoms: C_1  and  N_2
REMARK    2  A    between atoms: N_2  and  C_3
REMARK    3  A    between atoms: N_2  and  C_4
REMARK    4  A    between atoms: C_4  and  C_5
REMARK    5  A    between atoms: C_4  and  C_26
REMARK    6  A    between atoms: C_5  and  N_6
REMARK    7  A    between atoms: C_7  and  C_9
REMARK    8  A    between atoms: C_12  and  O_13
REMARK    9  A    between atoms: O_13  and  C_14
REMARK   10  A    between atoms: C_14  and  C_15
REMARK                            x       y       z     vdW  Elec       q    Type
REMARK                         _______ _______ _______ _____ _____    ______ ____
ROOT
ATOM      1  C   UNL     1       2.089   7.632  19.455  0.00  0.00    +0.000 A 
ATOM      2  C   UNL     1       2.259   8.249  18.212  0.00  0.00    +0.000 A 
ATOM      3  C   UNL     1       1.717   9.513  17.971  0.00  0.00    +0.000 A 
ATOM      4  C   UNL     1       0.967  10.154  18.957  0.00  0.00    +0.000 A 
ATOM      5  C   UNL     1       0.820   9.556  20.211  0.00  0.00    +0.000 A 
ATOM      6  C   UNL     1       1.372   8.294  20.461  0.00  0.00    +0.000 A 
ENDROOT
BRANCH   1   8
ATOM      7  N   UNL     1       4.024   6.159  19.444  0.00  0.00    +0.000 N 
ATOM      8  C   UNL     1       2.670   6.276  19.645  0.00  0.00    +0.000 C 
ATOM      9  O   UNL     1       1.949   5.323  19.920  0.00  0.00    +0.000 OA
ATOM     10  H   UNL     1       4.527   6.910  18.981  0.00  0.00    +0.000 HD
BRANCH   7  11
ATOM     11  C   UNL     1       4.659   4.852  19.366  0.00  0.00    +0.000 C 
BRANCH  11  12
ATOM     12  C   UNL     1       4.233   4.029  18.111  0.00  0.00    +0.000 C 
BRANCH  12  13
ATOM     13  C   UNL     1       5.287   4.224  17.043  0.00  0.00    +0.000 A 
ATOM     14  C   UNL     1       6.622   4.573  17.088  0.00  0.00    +0.000 A 
ATOM     15  C   UNL     1       7.076   4.601  15.746  0.00  0.00    +0.000 A 
ATOM     16  C   UNL     1       5.993   4.268  14.968  0.00  0.00    +0.000 A 
ATOM     17  O   UNL     1       4.902   4.042  15.740  0.00  0.00    +0.000 OA
ENDBRANCH  12  13
BRANCH  12  19
ATOM     18  C   UNL     1       4.111   2.264  19.803  0.00  0.00    +0.000 C 
ATOM     19  N   UNL     1       3.985   2.580  18.377  0.00  0.00    +0.000 NA
ATOM     20  C   UNL     1       2.651   2.172  17.918  0.00  0.00    +0.000 C 
ENDBRANCH  12  19
ENDBRANCH  11  12
ENDBRANCH   7  11
ENDBRANCH   1   8
BRANCH   4  21
ATOM     21  O   UNL     1       0.330  11.357  18.794  0.00  0.00    +0.000 OA
BRANCH  21  22
ATOM     22  C   UNL     1      -0.472  11.764  19.913  0.00  0.00    +0.000 C 
BRANCH  22  23
ATOM     23  C   UNL     1      -1.915  11.904  19.567  0.00  0.00    +0.000 A 
ATOM     24  C   UNL     1      -2.938  12.518  20.263  0.00  0.00    +0.000 A 
ATOM     25  N   UNL     1      -4.070  12.313  19.518  0.00  0.00    +0.000 N 
ATOM     26  C   UNL     1      -5.381  12.713  19.768  0.00  0.00    +0.000 A 
ATOM     27  C   UNL     1      -6.342  12.387  18.887  0.00  0.00    +0.000 A 
ATOM     28  C   UNL     1      -5.980  11.625  17.699  0.00  0.00    +0.000 A 
ATOM     29  C   UNL     1      -4.710  11.242  17.466  0.00  0.00    +0.000 A 
ATOM     30  C   UNL     1      -3.688  11.587  18.396  0.00  0.00    +0.000 A 
ATOM     31  N   UNL     1      -2.397  11.336  18.403  0.00  0.00    +0.000 NA
ENDBRANCH  22  23
ENDBRANCH  21  22
ENDBRANCH   4  21
TORSDOF 8
ENDMDL
MODEL 6
REMARK VINA RESULT:      -7.4      3.087      4.219
REMARK  Name = 
REMARK  10 active torsions:
REMARK  status: ('A' for Active; 'I' for Inactive)
REMARK    1  A    between atoms: C_1  and  N_2
REMARK    2  A    between atoms: N_2  and  C_3
REMARK    3  A    between atoms: N_2  and  C_4
REMARK    4  A    between atoms: C_4  and  C_5
REMARK    5  A    between atoms: C_4  and  C_26
REMARK    6  A    between atoms: C_5  and  N_6
REMARK    7  A    between atoms: C_7  and  C_9
REMARK    8  A    between atoms: C_12  and  O_13
REMARK    9  A    between atoms: O_13  and  C_14
REMARK   10  A    between atoms: C_14  and  C_15
REMARK                            x       y       z     vdW  Elec       q    Type
REMARK                         _______ _______ _______ _____ _____    ______ ____
ROOT
ATOM      1  C   UNL     1       1.926   7.385  19.916  0.00  0.00    +0.000 A 
ATOM      2  C   UNL     1       1.282   7.846  21.069  0.00  0.00    +0.000 A 
ATOM      3  C   UNL     1       0.670   9.101  21.081  0.00  0.00    +0.000 A 
ATOM      4  C   UNL     1       0.730   9.922  19.954  0.00  0.00    +0.000 A 
ATOM      5  C   UNL     1       1.345   9.453  18.791  0.00  0.00    +0.000 A 
ATOM      6  C   UNL     1       1.950   8.191  18.770  0.00  0.00    +0.000 A 
ENDROOT
BRANCH   1   8
ATOM      7  N   UNL     1       3.870   5.981  19.507  0.00  0.00    +0.000 N 
ATOM      8  C   UNL     1       2.579   6.050  19.972  0.00  0.00    +0.000 C 
ATOM      9  O   UNL     1       1.959   5.070  20.372  0.00  0.00    +0.000 OA
ATOM     10  H   UNL     1       4.246   6.752  18.963  0.00  0.00    +0.000 HD
BRANCH   7  11
ATOM     11  C   UNL     1       4.520   4.698  19.290  0.00  0.00    +0.000 C 
BRANCH  11  12
ATOM     12  C   UNL     1       4.115   4.016  17.946  0.00  0.00    +0.000 C 
BRANCH  12  13
ATOM     13  C   UNL     1       5.244   4.218  16.959  0.00  0.00    +0.000 A 
ATOM     14  C   UNL     1       5.303   4.205  15.579  0.00  0.00    +0.000 A 
ATOM     15  C   UNL     1       6.655   4.453  15.233  0.00  0.00    +0.000 A 
ATOM     16  C   UNL     1       7.333   4.603  16.419  0.00  0.00    +0.000 A 
ATOM     17  O   UNL     1       6.491   4.459  17.472  0.00  0.00    +0.000 OA
ENDBRANCH  12  13
BRANCH  12  19
ATOM     18  C   UNL     1       4.056   2.053  19.407  0.00  0.00    +0.000 C 
ATOM     19  N   UNL     1       3.749   2.573  18.071  0.00  0.00    +0.000 NA
ATOM     20  C   UNL     1       2.322   2.357  17.797  0.00  0.00    +0.000 C 
ENDBRANCH  12  19
ENDBRANCH  11  12
ENDBRANCH   7  11
ENDBRANCH   1   8
BRANCH   4  21
ATOM     21  O   UNL     1       0.231  11.197  19.890  0.00  0.00    +0.000 OA
BRANCH  21  22
ATOM     22  C   UNL     1       0.753  12.094  20.881  0.00  0.00    +0.000 C 
BRANCH  22  23
ATOM     23  C   UNL     1      -0.299  12.611  21.802  0.00  0.00    +0.000 A 
ATOM     24  C   UNL     1      -0.372  13.812  22.479  0.00  0.00    +0.000 A 
ATOM     25  N   UNL     1      -1.523  13.753  23.219  0.00  0.00    +0.000 N 
ATOM     26  C   UNL     1      -2.068  14.695  24.089  0.00  0.00    +0.000 A 
ATOM     27  C   UNL     1      -3.220  14.411  24.721  0.00  0.00    +0.000 A 
ATOM     28  C   UNL     1      -3.861  13.126  24.474  0.00  0.00    +0.000 A 
ATOM     29  C   UNL     1      -3.326  12.221  23.631  0.00  0.00    +0.000 A 
ATOM     30  C   UNL     1      -2.107  12.519  22.958  0.00  0.00    +0.000 A 
ATOM     31  N   UNL     1      -1.390  11.820  22.105  0.00  0.00    +0.000 NA
ENDBRANCH  22  23
ENDBRANCH  21  22
ENDBRANCH   4  21
TORSDOF 8
ENDMDL
MODEL 7
REMARK VINA RESULT:      -7.4      2.542      4.228
REMARK  Name = 
REMARK  10 active torsions:
REMARK  status: ('A' for Active; 'I' for Inactive)
REMARK    1  A    between atoms: C_1  and  N_2
REMARK    2  A    between atoms: N_2  and  C_3
REMARK    3  A    between atoms: N_2  and  C_4
REMARK    4  A    between atoms: C_4  and  C_5
REMARK    5  A    between atoms: C_4  and  C_26
REMARK    6  A    between atoms: C_5  and  N_6
REMARK    7  A    between atoms: C_7  and  C_9
REMARK    8  A    between atoms: C_12  and  O_13
REMARK    9  A    between atoms: O_13  and  C_14
REMARK   10  A    between atoms: C_14  and  C_15
REMARK                            x       y       z     vdW  Elec       q    Type
REMARK                         _______ _______ _______ _____ _____    ______ ____
ROOT
ATOM      1  C   UNL     1       2.361   7.010  18.942  0.00  0.00    +0.000 A 
ATOM      2  C   UNL     1       2.218   7.985  17.950  0.00  0.00    +0.000 A 
ATOM      3  C   UNL     1       1.642   9.220  18.251  0.00  0.00    +0.000 A 
ATOM      4  C   UNL     1       1.168   9.478  19.538  0.00  0.00    +0.000 A 
ATOM      5  C   UNL     1       1.337   8.520  20.540  0.00  0.00    +0.000 A 
ATOM      6  C   UNL     1       1.925   7.284  20.245  0.00  0.00    +0.000 A 
ENDROOT
BRANCH   1   8
ATOM      7  N   UNL     1       4.141   5.370  19.174  0.00  0.00    +0.000 N 
ATOM      8  C   UNL     1       2.962   5.706  18.555  0.00  0.00    +0.000 C 
ATOM      9  O   UNL     1       2.435   5.009  17.694  0.00  0.00    +0.000 OA
ATOM     10  H   UNL     1       4.658   6.080  19.684  0.00  0.00    +0.000 HD
BRANCH   7  11
ATOM     11  C   UNL     1       4.937   4.245  18.707  0.00  0.00    +0.000 C 
BRANCH  11  12
ATOM     12  C   UNL     1       6.322   4.664  18.124  0.00  0.00    +0.000 C 
BRANCH  12  13
ATOM     13  C   UNL     1       6.234   4.603  16.614  0.00  0.00    +0.000 A 
ATOM     14  C   UNL     1       5.171   4.550  15.734  0.00  0.00    +0.000 A 
ATOM     15  C   UNL     1       5.730   4.499  14.433  0.00  0.00    +0.000 A 
ATOM     16  C   UNL     1       7.094   4.527  14.599  0.00  0.00    +0.000 A 
ATOM     17  O   UNL     1       7.412   4.585  15.916  0.00  0.00    +0.000 OA
ENDBRANCH  12  13
BRANCH  12  19
ATOM     18  C   UNL     1       8.124   5.895  19.234  0.00  0.00    +0.000 C 
ATOM     19  N   UNL     1       6.811   5.997  18.589  0.00  0.00    +0.000 NA
ATOM     20  C   UNL     1       6.904   6.952  17.477  0.00  0.00    +0.000 C 
ENDBRANCH  12  19
ENDBRANCH  11  12
ENDBRANCH   7  11
ENDBRANCH   1   8
BRANCH   4  21
ATOM     21  O   UNL     1       0.519  10.625  19.915  0.00  0.00    +0.000 OA
BRANCH  21  22
ATOM     22  C   UNL     1       0.487  10.854  21.332  0.00  0.00    +0.000 C 
BRANCH  22  23
ATOM     23  C   UNL     1      -0.801  11.448  21.790  0.00  0.00    +0.000 A 
ATOM     24  C   UNL     1      -1.365  11.477  23.050  0.00  0.00    +0.000 A 
ATOM     25  N   UNL     1      -2.574  12.103  22.903  0.00  0.00    +0.000 N 
ATOM     26  C   UNL     1      -3.550  12.386  23.857  0.00  0.00    +0.000 A 
ATOM     27  C   UNL     1      -4.676  13.012  23.474  0.00  0.00    +0.000 A 
ATOM     28  C   UNL     1      -4.839  13.374  22.072  0.00  0.00    +0.000 A 
ATOM     29  C   UNL     1      -3.890  13.097  21.157  0.00  0.00    +0.000 A 
ATOM     30  C   UNL     1      -2.694  12.436  21.558  0.00  0.00    +0.000 A 
ATOM     31  N   UNL     1      -1.638  12.056  20.874  0.00  0.00    +0.000 NA
ENDBRANCH  22  23
ENDBRANCH  21  22
ENDBRANCH   4  21
TORSDOF 8
ENDMDL
MODEL 8
REMARK VINA RESULT:      -7.4      2.824      3.934
REMARK  Name = 
REMARK  10 active torsions:
REMARK  status: ('A' for Active; 'I' for Inactive)
REMARK    1  A    between atoms: C_1  and  N_2
REMARK    2  A    between atoms: N_2  and  C_3
REMARK    3  A    between atoms: N_2  and  C_4
REMARK    4  A    between atoms: C_4  and  C_5
REMARK    5  A    between atoms: C_4  and  C_26
REMARK    6  A    between atoms: C_5  and  N_6
REMARK    7  A    between atoms: C_7  and  C_9
REMARK    8  A    between atoms: C_12  and  O_13
REMARK    9  A    between atoms: O_13  and  C_14
REMARK   10  A    between atoms: C_14  and  C_15
REMARK                            x       y       z     vdW  Elec       q    Type
REMARK                         _______ _______ _______ _____ _____    ______ ____
ROOT
ATOM      1  C   UNL     1       2.106   8.064  18.965  0.00  0.00    +0.000 A 
ATOM      2  C   UNL     1       1.633   8.892  17.942  0.00  0.00    +0.000 A 
ATOM      3  C   UNL     1       0.681   9.875  18.213  0.00  0.00    +0.000 A 
ATOM      4  C   UNL     1       0.164  10.015  19.502  0.00  0.00    +0.000 A 
ATOM      5  C   UNL     1       0.656   9.212  20.534  0.00  0.00    +0.000 A 
ATOM      6  C   UNL     1       1.620   8.232  20.268  0.00  0.00    +0.000 A 
ENDROOT
BRANCH   1   8
ATOM      7  N   UNL     1       3.426   6.121  19.598  0.00  0.00    +0.000 N 
ATOM      8  C   UNL     1       3.105   7.019  18.610  0.00  0.00    +0.000 C 
ATOM      9  O   UNL     1       3.631   7.013  17.502  0.00  0.00    +0.000 OA
ATOM     10  H   UNL     1       3.157   6.317  20.558  0.00  0.00    +0.000 HD
BRANCH   7  11
ATOM     11  C   UNL     1       4.553   5.213  19.447  0.00  0.00    +0.000 C 
BRANCH  11  12
ATOM     12  C   UNL     1       4.128   3.736  19.181  0.00  0.00    +0.000 C 
BRANCH  12  13
ATOM     13  C   UNL     1       2.937   3.425  20.061  0.00  0.00    +0.000 A 
ATOM     14  C   UNL     1       2.798   2.742  21.253  0.00  0.00    +0.000 A 
ATOM     15  C   UNL     1       1.421   2.783  21.581  0.00  0.00    +0.000 A 
ATOM     16  C   UNL     1       0.806   3.487  20.574  0.00  0.00    +0.000 A 
ATOM     17  O   UNL     1       1.713   3.878  19.644  0.00  0.00    +0.000 OA
ENDBRANCH  12  13
BRANCH  12  19
ATOM     18  C   UNL     1       4.960   3.816  16.880  0.00  0.00    +0.000 C 
ATOM     19  N   UNL     1       3.846   3.422  17.747  0.00  0.00    +0.000 NA
ATOM     20  C   UNL     1       3.579   1.991  17.555  0.00  0.00    +0.000 C 
ENDBRANCH  12  19
ENDBRANCH  11  12
ENDBRANCH   7  11
ENDBRANCH   1   8
BRANCH   4  21
ATOM     21  O   UNL     1      -0.826  10.894  19.854  0.00  0.00    +0.000 OA
BRANCH  21  22
ATOM     22  C   UNL     1      -0.418  11.916  20.776  0.00  0.00    +0.000 C 
BRANCH  22  23
ATOM     23  C   UNL     1       0.088  13.140  20.093  0.00  0.00    +0.000 A 
ATOM     24  C   UNL     1       1.381  13.512  19.783  0.00  0.00    +0.000 A 
ATOM     25  N   UNL     1       1.284  14.749  19.202  0.00  0.00    +0.000 N 
ATOM     26  C   UNL     1       2.288  15.581  18.713  0.00  0.00    +0.000 A 
ATOM     27  C   UNL     1       1.951  16.771  18.186  0.00  0.00    +0.000 A 
ATOM     28  C   UNL     1       0.545  17.151  18.144  0.00  0.00    +0.000 A 
ATOM     29  C   UNL     1      -0.419  16.339  18.620  0.00  0.00    +0.000 A 
ATOM     30  C   UNL     1      -0.067  15.077  19.177  0.00  0.00    +0.000 A 
ATOM     31  N   UNL     1      -0.802  14.122  19.702  0.00  0.00    +0.000 NA
ENDBRANCH  22  23
ENDBRANCH  21  22
ENDBRANCH   4  21
TORSDOF 8
ENDMDL
MODEL 9
REMARK VINA RESULT:      -7.3      0.722      1.281
REMARK  Name = 
REMARK  10 active torsions:
REMARK  status: ('A' for Active; 'I' for Inactive)
REMARK    1  A    between atoms: C_1  and  N_2
REMARK    2  A    between atoms: N_2  and  C_3
REMARK    3  A    between atoms: N_2  and  C_4
REMARK    4  A    between atoms: C_4  and  C_5
REMARK    5  A    between atoms: C_4  and  C_26
REMARK    6  A    between atoms: C_5  and  N_6
REMARK    7  A    between atoms: C_7  and  C_9
REMARK    8  A    between atoms: C_12  and  O_13
REMARK    9  A    between atoms: O_13  and  C_14
REMARK   10  A    between atoms: C_14  and  C_15
REMARK                            x       y       z     vdW  Elec       q    Type
REMARK                         _______ _______ _______ _____ _____    ______ ____
ROOT
ATOM      1  C   UNL     1       2.105   8.069  18.922  0.00  0.00    +0.000 A 
ATOM      2  C   UNL     1       1.663   8.133  20.247  0.00  0.00    +0.000 A 
ATOM      3  C   UNL     1       0.750   9.112  20.641  0.00  0.00    +0.000 A 
ATOM      4  C   UNL     1       0.298  10.060  19.721  0.00  0.00    +0.000 A 
ATOM      5  C   UNL     1       0.712   9.981  18.389  0.00  0.00    +0.000 A 
ATOM      6  C   UNL     1       1.619   8.993  17.988  0.00  0.00    +0.000 A 
ENDROOT
BRANCH   1   8
ATOM      7  N   UNL     1       3.415   6.122  19.560  0.00  0.00    +0.000 N 
ATOM      8  C   UNL     1       3.096   7.017  18.569  0.00  0.00    +0.000 C 
ATOM      9  O   UNL     1       3.620   7.004  17.460  0.00  0.00    +0.000 OA
ATOM     10  H   UNL     1       3.150   6.323  20.519  0.00  0.00    +0.000 HD
BRANCH   7  11
ATOM     11  C   UNL     1       4.537   5.207  19.410  0.00  0.00    +0.000 C 
BRANCH  11  12
ATOM     12  C   UNL     1       4.105   3.743  19.089  0.00  0.00    +0.000 C 
BRANCH  12  13
ATOM     13  C   UNL     1       2.847   3.443  19.874  0.00  0.00    +0.000 A 
ATOM     14  C   UNL     1       1.505   3.462  19.548  0.00  0.00    +0.000 A 
ATOM     15  C   UNL     1       0.802   3.089  20.721  0.00  0.00    +0.000 A 
ATOM     16  C   UNL     1       1.755   2.865  21.685  0.00  0.00    +0.000 A 
ATOM     17  O   UNL     1       2.997   3.080  21.187  0.00  0.00    +0.000 OA
ENDBRANCH  12  13
BRANCH  12  19
ATOM     18  C   UNL     1       5.075   3.907  16.847  0.00  0.00    +0.000 C 
ATOM     19  N   UNL     1       3.923   3.456  17.634  0.00  0.00    +0.000 NA
ATOM     20  C   UNL     1       3.718   2.022  17.392  0.00  0.00    +0.000 C 
ENDBRANCH  12  19
ENDBRANCH  11  12
ENDBRANCH   7  11
ENDBRANCH   1   8
BRANCH   4  21
ATOM     21  O   UNL     1      -0.536  11.104  20.023  0.00  0.00    +0.000 OA
BRANCH  21  22
ATOM     22  C   UNL     1      -1.039  11.816  18.883  0.00  0.00    +0.000 C 
BRANCH  22  23
ATOM     23  C   UNL     1      -2.528  11.836  18.825  0.00  0.00    +0.000 A 
ATOM     24  C   UNL     1      -3.384  11.376  17.844  0.00  0.00    +0.000 A 
ATOM     25  N   UNL     1      -4.646  11.686  18.276  0.00  0.00    +0.000 N 
ATOM     26  C   UNL     1      -5.876  11.455  17.663  0.00  0.00    +0.000 A 
ATOM     27  C   UNL     1      -7.000  11.859  18.280  0.00  0.00    +0.000 A 
ATOM     28  C   UNL     1      -6.894  12.526  19.571  0.00  0.00    +0.000 A 
ATOM     29  C   UNL     1      -5.701  12.746  20.156  0.00  0.00    +0.000 A 
ATOM     30  C   UNL     1      -4.507  12.317  19.507  0.00  0.00    +0.000 A 
ATOM     31  N   UNL     1      -3.244  12.412  19.857  0.00  0.00    +0.000 NA
ENDBRANCH  22  23
ENDBRANCH  21  22
ENDBRANCH   4  21
TORSDOF 8
ENDMDL
