MODEL 1
REMARK VINA RESULT:      -8.3      0.000      0.000
REMARK  Name = 
REMARK  6 active torsions:
REMARK  status: ('A' for Active; 'I' for Inactive)
REMARK    1  A    between atoms: N_1  and  C_2
REMARK    2  A    between atoms: C_5  and  O_6
REMARK    3  A    between atoms: O_6  and  C_7
REMARK    4  A    between atoms: C_9  and  N_10
REMARK    5  A    between atoms: C_12  and  O_13
REMARK    6  A    between atoms: O_13  and  C_14
REMARK                            x       y       z     vdW  Elec       q    Type
REMARK                         _______ _______ _______ _____ _____    ______ ____
ROOT
ATOM      1  C   UNL     1       6.713   5.767  16.638  0.00  0.00    +0.000 A 
ATOM      2  C   UNL     1       7.573   5.543  17.720  0.00  0.00    +0.000 A 
ATOM      3  C   UNL     1       7.073   5.527  19.034  0.00  0.00    +0.000 A 
ATOM      4  C   UNL     1       5.701   5.719  19.263  0.00  0.00    +0.000 A 
ATOM      5  C   UNL     1       4.823   5.905  18.189  0.00  0.00    +0.000 A 
ATOM      6  C   UNL     1       5.340   5.933  16.886  0.00  0.00    +0.000 A 
ENDROOT
BRANCH   3   7
ATOM      7  N   UNL     1       7.950   5.317  20.127  0.00  0.00    +0.000 N 
ATOM      8  H   UNL     1       8.281   4.370  20.362  0.00  0.00    +0.000 HD
ATOM      9  H   UNL     1       8.267   6.109  20.705  0.00  0.00    +0.000 HD
ENDBRANCH   3   7
BRANCH   1  10
ATOM     10  O   UNL     1       7.207   5.816  15.369  0.00  0.00    +0.000 OA
BRANCH  10  14
ATOM     11  C   UNL     1       5.974   3.278  12.289  0.00  0.00    +0.000 A 
ATOM     12  C   UNL     1       5.199   3.402  13.446  0.00  0.00    +0.000 A 
ATOM     13  C   UNL     1       5.597   4.261  14.467  0.00  0.00    +0.000 A 
ATOM     14  C   UNL     1       6.787   5.009  14.357  0.00  0.00    +0.000 A 
ATOM     15  C   UNL     1       7.548   4.906  13.182  0.00  0.00    +0.000 A 
ATOM     16  C   UNL     1       7.146   4.041  12.156  0.00  0.00    +0.000 A 
BRANCH  11  17
ATOM     17  N   UNL     1       5.574   2.384  11.267  0.00  0.00    +0.000 N 
ATOM     18  H   UNL     1       5.512   2.703  10.288  0.00  0.00    +0.000 HD
ATOM     19  H   UNL     1       5.318   1.411  11.486  0.00  0.00    +0.000 HD
ENDBRANCH  11  17
ENDBRANCH  10  14
ENDBRANCH   1  10
BRANCH   5  20
ATOM     20  O   UNL     1       3.492   6.075  18.425  0.00  0.00    +0.000 OA
BRANCH  20  21
ATOM     21  C   UNL     1       2.621   5.108  18.828  0.00  0.00    +0.000 A 
ATOM     22  C   UNL     1       2.218   4.067  17.966  0.00  0.00    +0.000 A 
ATOM     23  C   UNL     1       1.332   3.084  18.408  0.00  0.00    +0.000 A 
ATOM     24  C   UNL     1       0.840   3.122  19.714  0.00  0.00    +0.000 A 
ATOM     25  C   UNL     1       1.238   4.144  20.581  0.00  0.00    +0.000 A 
ATOM     26  C   UNL     1       2.130   5.131  20.143  0.00  0.00    +0.000 A 
ENDBRANCH  20  21
ENDBRANCH   5  20
TORSDOF 6
ENDMDL
MODEL 2
REMARK VINA RESULT:      -8.2      0.079      1.033
REMARK  Name = 
REMARK  6 active torsions:
REMARK  status: ('A' for Active; 'I' for Inactive)
REMARK    1  A    between atoms: N_1  and  C_2
REMARK    2  A    between atoms: C_5  and  O_6
REMARK    3  A    between atoms: O_6  and  C_7
REMARK    4  A    between atoms: C_9  and  N_10
REMARK    5  A    between atoms: C_12  and  O_13
REMARK    6  A    between atoms: O_13  and  C_14
REMARK                            x       y       z     vdW  Elec       q    Type
REMARK                         _______ _______ _______ _____ _____    ______ ____
ROOT
ATOM      1  C   UNL     1       6.752   5.767  16.659  0.00  0.00    +0.000 A 
ATOM      2  C   UNL     1       7.605   5.545  17.747  0.00  0.00    +0.000 A 
ATOM      3  C   UNL     1       7.097   5.538  19.059  0.00  0.00    +0.000 A 
ATOM      4  C   UNL     1       5.725   5.737  19.278  0.00  0.00    +0.000 A 
ATOM      5  C   UNL     1       4.853   5.919  18.197  0.00  0.00    +0.000 A 
ATOM      6  C   UNL     1       5.378   5.938  16.898  0.00  0.00    +0.000 A 
ENDROOT
BRANCH   3   7
ATOM      7  N   UNL     1       7.966   5.332  20.157  0.00  0.00    +0.000 N 
ATOM      8  H   UNL     1       8.103   4.390  20.551  0.00  0.00    +0.000 HD
ATOM      9  H   UNL     1       8.474   6.123  20.581  0.00  0.00    +0.000 HD
ENDBRANCH   3   7
BRANCH   1  10
ATOM     10  O   UNL     1       7.254   5.806  15.392  0.00  0.00    +0.000 OA
BRANCH  10  14
ATOM     11  C   UNL     1       5.995   3.297  12.300  0.00  0.00    +0.000 A 
ATOM     12  C   UNL     1       7.117   4.113  12.126  0.00  0.00    +0.000 A 
ATOM     13  C   UNL     1       7.550   4.937  13.161  0.00  0.00    +0.000 A 
ATOM     14  C   UNL     1       6.864   4.970  14.392  0.00  0.00    +0.000 A 
ATOM     15  C   UNL     1       5.756   4.129  14.575  0.00  0.00    +0.000 A 
ATOM     16  C   UNL     1       5.320   3.301  13.532  0.00  0.00    +0.000 A 
BRANCH  11  17
ATOM     17  N   UNL     1       5.546   2.481  11.233  0.00  0.00    +0.000 N 
ATOM     18  H   UNL     1       5.169   2.906  10.373  0.00  0.00    +0.000 HD
ATOM     19  H   UNL     1       5.568   1.454  11.309  0.00  0.00    +0.000 HD
ENDBRANCH  11  17
ENDBRANCH  10  14
ENDBRANCH   1  10
BRANCH   5  20
ATOM     20  O   UNL     1       3.522   6.095  18.424  0.00  0.00    +0.000 OA
BRANCH  20  21
ATOM     21  C   UNL     1       2.645   5.134  18.826  0.00  0.00    +0.000 A 
ATOM     22  C   UNL     1       2.229   4.101  17.961  0.00  0.00    +0.000 A 
ATOM     23  C   UNL     1       1.337   3.122  18.401  0.00  0.00    +0.000 A 
ATOM     24  C   UNL     1       0.851   3.158  19.709  0.00  0.00    +0.000 A 
ATOM     25  C   UNL     1       1.261   4.172  20.580  0.00  0.00    +0.000 A 
ATOM     26  C   UNL     1       2.159   5.154  20.143  0.00  0.00    +0.000 A 
ENDBRANCH  20  21
ENDBRANCH   5  20
TORSDOF 6
ENDMDL
MODEL 3
REMARK VINA RESULT:      -8.2      0.054      1.461
REMARK  Name = 
REMARK  6 active torsions:
REMARK  status: ('A' for Active; 'I' for Inactive)
REMARK    1  A    between atoms: N_1  and  C_2
REMARK    2  A    between atoms: C_5  and  O_6
REMARK    3  A    between atoms: O_6  and  C_7
REMARK    4  A    between atoms: C_9  and  N_10
REMARK    5  A    between atoms: C_12  and  O_13
REMARK    6  A    between atoms: O_13  and  C_14
REMARK                            x       y       z     vdW  Elec       q    Type
REMARK                         _______ _______ _______ _____ _____    ______ ____
ROOT
ATOM      1  C   UNL     1       6.708   5.779  16.627  0.00  0.00    +0.000 A 
ATOM      2  C   UNL     1       7.586   5.546  17.693  0.00  0.00    +0.000 A 
ATOM      3  C   UNL     1       7.109   5.527  19.016  0.00  0.00    +0.000 A 
ATOM      4  C   UNL     1       5.742   5.725  19.269  0.00  0.00    +0.000 A 
ATOM      5  C   UNL     1       4.846   5.920  18.212  0.00  0.00    +0.000 A 
ATOM      6  C   UNL     1       5.340   5.951  16.900  0.00  0.00    +0.000 A 
ENDROOT
BRANCH   3   7
ATOM      7  N   UNL     1       8.003   5.308  20.092  0.00  0.00    +0.000 N 
ATOM      8  H   UNL     1       8.769   4.624  20.009  0.00  0.00    +0.000 HD
ATOM      9  H   UNL     1       7.899   5.829  20.975  0.00  0.00    +0.000 HD
ENDBRANCH   3   7
BRANCH   1  10
ATOM     10  O   UNL     1       7.180   5.830  15.350  0.00  0.00    +0.000 OA
BRANCH  10  14
ATOM     11  C   UNL     1       5.930   3.286  12.283  0.00  0.00    +0.000 A 
ATOM     12  C   UNL     1       7.113   4.019  12.145  0.00  0.00    +0.000 A 
ATOM     13  C   UNL     1       7.542   4.854  13.174  0.00  0.00    +0.000 A 
ATOM     14  C   UNL     1       6.791   4.982  14.359  0.00  0.00    +0.000 A 
ATOM     15  C   UNL     1       5.620   4.223  14.507  0.00  0.00    +0.000 A 
ATOM     16  C   UNL     1       5.189   3.384  13.472  0.00  0.00    +0.000 A 
BRANCH  11  17
ATOM     17  N   UNL     1       5.488   2.458  11.222  0.00  0.00    +0.000 N 
ATOM     18  H   UNL     1       5.701   2.705  10.244  0.00  0.00    +0.000 HD
ATOM     19  H   UNL     1       4.930   1.613  11.409  0.00  0.00    +0.000 HD
ENDBRANCH  11  17
ENDBRANCH  10  14
ENDBRANCH   1  10
BRANCH   5  20
ATOM     20  O   UNL     1       3.521   6.096  18.471  0.00  0.00    +0.000 OA
BRANCH  20  21
ATOM     21  C   UNL     1       2.652   5.132  18.885  0.00  0.00    +0.000 A 
ATOM     22  C   UNL     1       2.139   5.111  20.199  0.00  0.00    +0.000 A 
ATOM     23  C   UNL     1       1.242   4.118  20.594  0.00  0.00    +0.000 A 
ATOM     24  C   UNL     1       0.842   3.137  19.686  0.00  0.00    +0.000 A 
ATOM     25  C   UNL     1       1.336   3.151  18.379  0.00  0.00    +0.000 A 
ATOM     26  C   UNL     1       2.234   4.148  17.976  0.00  0.00    +0.000 A 
ENDBRANCH  20  21
ENDBRANCH   5  20
TORSDOF 6
ENDMDL
MODEL 4
REMARK VINA RESULT:      -8.1      2.155      6.757
REMARK  Name = 
REMARK  6 active torsions:
REMARK  status: ('A' for Active; 'I' for Inactive)
REMARK    1  A    between atoms: N_1  and  C_2
REMARK    2  A    between atoms: C_5  and  O_6
REMARK    3  A    between atoms: O_6  and  C_7
REMARK    4  A    between atoms: C_9  and  N_10
REMARK    5  A    between atoms: C_12  and  O_13
REMARK    6  A    between atoms: O_13  and  C_14
REMARK                            x       y       z     vdW  Elec       q    Type
REMARK                         _______ _______ _______ _____ _____    ______ ____
ROOT
ATOM      1  C   UNL     1       4.879   5.459  17.901  0.00  0.00    +0.000 A 
ATOM      2  C   UNL     1       5.691   5.438  19.041  0.00  0.00    +0.000 A 
ATOM      3  C   UNL     1       7.092   5.477  18.918  0.00  0.00    +0.000 A 
ATOM      4  C   UNL     1       7.679   5.554  17.645  0.00  0.00    +0.000 A 
ATOM      5  C   UNL     1       6.880   5.616  16.497  0.00  0.00    +0.000 A 
ATOM      6  C   UNL     1       5.486   5.561  16.638  0.00  0.00    +0.000 A 
ENDROOT
BRANCH   3   7
ATOM      7  N   UNL     1       7.910   5.438  20.073  0.00  0.00    +0.000 N 
ATOM      8  H   UNL     1       8.685   6.106  20.193  0.00  0.00    +0.000 HD
ATOM      9  H   UNL     1       7.742   4.738  20.811  0.00  0.00    +0.000 HD
ENDBRANCH   3   7
BRANCH   1  10
ATOM     10  O   UNL     1       3.524   5.387  18.024  0.00  0.00    +0.000 OA
BRANCH  10  14
ATOM     11  C   UNL     1       1.633   3.202  21.039  0.00  0.00    +0.000 A 
ATOM     12  C   UNL     1       1.846   4.574  21.199  0.00  0.00    +0.000 A 
ATOM     13  C   UNL     1       2.459   5.310  20.188  0.00  0.00    +0.000 A 
ATOM     14  C   UNL     1       2.883   4.685  18.997  0.00  0.00    +0.000 A 
ATOM     15  C   UNL     1       2.641   3.313  18.826  0.00  0.00    +0.000 A 
ATOM     16  C   UNL     1       2.025   2.574  19.845  0.00  0.00    +0.000 A 
BRANCH  11  17
ATOM     17  N   UNL     1       1.031   2.457  22.083  0.00  0.00    +0.000 N 
ATOM     18  H   UNL     1       0.484   1.610  21.871  0.00  0.00    +0.000 HD
ATOM     19  H   UNL     1       1.111   2.762  23.063  0.00  0.00    +0.000 HD
ENDBRANCH  11  17
ENDBRANCH  10  14
ENDBRANCH   1  10
BRANCH   5  20
ATOM     20  O   UNL     1       7.463   5.706  15.270  0.00  0.00    +0.000 OA
BRANCH  20  21
ATOM     21  C   UNL     1       7.114   4.993  14.164  0.00  0.00    +0.000 A 
ATOM     22  C   UNL     1       7.733   5.212  12.915  0.00  0.00    +0.000 A 
ATOM     23  C   UNL     1       7.364   4.460  11.799  0.00  0.00    +0.000 A 
ATOM     24  C   UNL     1       6.377   3.480  11.912  0.00  0.00    +0.000 A 
ATOM     25  C   UNL     1       5.762   3.247  13.146  0.00  0.00    +0.000 A 
ATOM     26  C   UNL     1       6.132   3.996  14.270  0.00  0.00    +0.000 A 
ENDBRANCH  20  21
ENDBRANCH   5  20
TORSDOF 6
ENDMDL
MODEL 5
REMARK VINA RESULT:      -8.1      2.181      6.825
REMARK  Name = 
REMARK  6 active torsions:
REMARK  status: ('A' for Active; 'I' for Inactive)
REMARK    1  A    between atoms: N_1  and  C_2
REMARK    2  A    between atoms: C_5  and  O_6
REMARK    3  A    between atoms: O_6  and  C_7
REMARK    4  A    between atoms: C_9  and  N_10
REMARK    5  A    between atoms: C_12  and  O_13
REMARK    6  A    between atoms: O_13  and  C_14
REMARK                            x       y       z     vdW  Elec       q    Type
REMARK                         _______ _______ _______ _____ _____    ______ ____
ROOT
ATOM      1  C   UNL     1       4.819   5.359  17.836  0.00  0.00    +0.000 A 
ATOM      2  C   UNL     1       5.596   5.377  19.001  0.00  0.00    +0.000 A 
ATOM      3  C   UNL     1       6.997   5.481  18.919  0.00  0.00    +0.000 A 
ATOM      4  C   UNL     1       7.618   5.585  17.664  0.00  0.00    +0.000 A 
ATOM      5  C   UNL     1       6.851   5.608  16.493  0.00  0.00    +0.000 A 
ATOM      6  C   UNL     1       5.458   5.489  16.592  0.00  0.00    +0.000 A 
ENDROOT
BRANCH   3   7
ATOM      7  N   UNL     1       7.781   5.481  20.098  0.00  0.00    +0.000 N 
ATOM      8  H   UNL     1       8.763   5.793  20.078  0.00  0.00    +0.000 HD
ATOM      9  H   UNL     1       7.380   5.166  20.994  0.00  0.00    +0.000 HD
ENDBRANCH   3   7
BRANCH   1  10
ATOM     10  O   UNL     1       3.465   5.224  17.919  0.00  0.00    +0.000 OA
BRANCH  10  14
ATOM     11  C   UNL     1       1.576   3.202  21.047  0.00  0.00    +0.000 A 
ATOM     12  C   UNL     1       1.620   4.600  21.043  0.00  0.00    +0.000 A 
ATOM     13  C   UNL     1       2.233   5.278  19.992  0.00  0.00    +0.000 A 
ATOM     14  C   UNL     1       2.825   4.571  18.926  0.00  0.00    +0.000 A 
ATOM     15  C   UNL     1       2.753   3.170  18.917  0.00  0.00    +0.000 A 
ATOM     16  C   UNL     1       2.136   2.488  19.975  0.00  0.00    +0.000 A 
BRANCH  11  17
ATOM     17  N   UNL     1       0.972   2.520  22.131  0.00  0.00    +0.000 N 
ATOM     18  H   UNL     1       0.349   3.022  22.782  0.00  0.00    +0.000 HD
ATOM     19  H   UNL     1       1.163   1.523  22.300  0.00  0.00    +0.000 HD
ENDBRANCH  11  17
ENDBRANCH  10  14
ENDBRANCH   1  10
BRANCH   5  20
ATOM     20  O   UNL     1       7.466   5.725  15.284  0.00  0.00    +0.000 OA
BRANCH  20  21
ATOM     21  C   UNL     1       7.171   5.009  14.163  0.00  0.00    +0.000 A 
ATOM     22  C   UNL     1       6.259   3.933  14.190  0.00  0.00    +0.000 A 
ATOM     23  C   UNL     1       5.967   3.222  13.025  0.00  0.00    +0.000 A 
ATOM     24  C   UNL     1       6.576   3.575  11.820  0.00  0.00    +0.000 A 
ATOM     25  C   UNL     1       7.475   4.644  11.778  0.00  0.00    +0.000 A 
ATOM     26  C   UNL     1       7.769   5.363  12.944  0.00  0.00    +0.000 A 
ENDBRANCH  20  21
ENDBRANCH   5  20
TORSDOF 6
ENDMDL
MODEL 6
REMARK VINA RESULT:      -8.0      2.090      6.791
REMARK  Name = 
REMARK  6 active torsions:
REMARK  status: ('A' for Active; 'I' for Inactive)
REMARK    1  A    between atoms: N_1  and  C_2
REMARK    2  A    between atoms: C_5  and  O_6
REMARK    3  A    between atoms: O_6  and  C_7
REMARK    4  A    between atoms: C_9  and  N_10
REMARK    5  A    between atoms: C_12  and  O_13
REMARK    6  A    between atoms: O_13  and  C_14
REMARK                            x       y       z     vdW  Elec       q    Type
REMARK                         _______ _______ _______ _____ _____    ______ ____
ROOT
ATOM      1  C   UNL     1       4.999   5.631  16.718  0.00  0.00    +0.000 A 
ATOM      2  C   UNL     1       6.017   5.185  17.570  0.00  0.00    +0.000 A 
ATOM      3  C   UNL     1       7.206   4.652  17.039  0.00  0.00    +0.000 A 
ATOM      4  C   UNL     1       7.380   4.581  15.647  0.00  0.00    +0.000 A 
ATOM      5  C   UNL     1       6.388   5.059  14.783  0.00  0.00    +0.000 A 
ATOM      6  C   UNL     1       5.204   5.574  15.329  0.00  0.00    +0.000 A 
ENDROOT
BRANCH   3   7
ATOM      7  N   UNL     1       8.226   4.186  17.904  0.00  0.00    +0.000 N 
ATOM      8  H   UNL     1       8.690   3.283  17.732  0.00  0.00    +0.000 HD
ATOM      9  H   UNL     1       8.516   4.744  18.721  0.00  0.00    +0.000 HD
ENDBRANCH   3   7
BRANCH   1  10
ATOM     10  O   UNL     1       3.836   6.116  17.236  0.00  0.00    +0.000 OA
BRANCH  10  14
ATOM     11  C   UNL     1       1.399   3.898  19.803  0.00  0.00    +0.000 A 
ATOM     12  C   UNL     1       2.116   4.995  20.293  0.00  0.00    +0.000 A 
ATOM     13  C   UNL     1       2.914   5.747  19.436  0.00  0.00    +0.000 A 
ATOM     14  C   UNL     1       3.022   5.413  18.070  0.00  0.00    +0.000 A 
ATOM     15  C   UNL     1       2.279   4.331  17.575  0.00  0.00    +0.000 A 
ATOM     16  C   UNL     1       1.476   3.573  18.439  0.00  0.00    +0.000 A 
BRANCH  11  17
ATOM     17  N   UNL     1       0.609   3.123  20.686  0.00  0.00    +0.000 N 
ATOM     18  H   UNL     1       0.010   2.366  20.324  0.00  0.00    +0.000 HD
ATOM     19  H   UNL     1       0.602   3.318  21.698  0.00  0.00    +0.000 HD
ENDBRANCH  11  17
ENDBRANCH  10  14
ENDBRANCH   1  10
BRANCH   5  20
ATOM     20  O   UNL     1       6.577   4.998  13.436  0.00  0.00    +0.000 OA
BRANCH  20  21
ATOM     21  C   UNL     1       6.345   3.916  12.643  0.00  0.00    +0.000 A 
ATOM     22  C   UNL     1       5.035   3.488  12.338  0.00  0.00    +0.000 A 
ATOM     23  C   UNL     1       4.825   2.381  11.514  0.00  0.00    +0.000 A 
ATOM     24  C   UNL     1       5.914   1.689  10.983  0.00  0.00    +0.000 A 
ATOM     25  C   UNL     1       7.216   2.107  11.271  0.00  0.00    +0.000 A 
ATOM     26  C   UNL     1       7.432   3.220  12.094  0.00  0.00    +0.000 A 
ENDBRANCH  20  21
ENDBRANCH   5  20
TORSDOF 6
ENDMDL
MODEL 7
REMARK VINA RESULT:      -8.0      2.638      6.920
REMARK  Name = 
REMARK  6 active torsions:
REMARK  status: ('A' for Active; 'I' for Inactive)
REMARK    1  A    between atoms: N_1  and  C_2
REMARK    2  A    between atoms: C_5  and  O_6
REMARK    3  A    between atoms: O_6  and  C_7
REMARK    4  A    between atoms: C_9  and  N_10
REMARK    5  A    between atoms: C_12  and  O_13
REMARK    6  A    between atoms: O_13  and  C_14
REMARK                            x       y       z     vdW  Elec       q    Type
REMARK                         _______ _______ _______ _____ _____    ______ ____
ROOT
ATOM      1  C   UNL     1       4.773   5.761  18.002  0.00  0.00    +0.000 A 
ATOM      2  C   UNL     1       5.586   5.640  19.136  0.00  0.00    +0.000 A 
ATOM      3  C   UNL     1       6.982   5.534  19.001  0.00  0.00    +0.000 A 
ATOM      4  C   UNL     1       7.566   5.567  17.725  0.00  0.00    +0.000 A 
ATOM      5  C   UNL     1       6.770   5.727  16.585  0.00  0.00    +0.000 A 
ATOM      6  C   UNL     1       5.379   5.817  16.735  0.00  0.00    +0.000 A 
ENDROOT
BRANCH   3   7
ATOM      7  N   UNL     1       7.799   5.394  20.150  0.00  0.00    +0.000 N 
ATOM      8  H   UNL     1       8.694   4.887  20.101  0.00  0.00    +0.000 HD
ATOM      9  H   UNL     1       7.507   5.797  21.053  0.00  0.00    +0.000 HD
ENDBRANCH   3   7
BRANCH   1  10
ATOM     10  O   UNL     1       3.418   5.830  18.135  0.00  0.00    +0.000 OA
BRANCH  10  14
ATOM     11  C   UNL     1       1.305   9.152  19.526  0.00  0.00    +0.000 A 
ATOM     12  C   UNL     1       1.546   8.070  20.378  0.00  0.00    +0.000 A 
ATOM     13  C   UNL     1       2.267   6.969  19.923  0.00  0.00    +0.000 A 
ATOM     14  C   UNL     1       2.753   6.922  18.601  0.00  0.00    +0.000 A 
ATOM     15  C   UNL     1       2.535   8.021  17.757  0.00  0.00    +0.000 A 
ATOM     16  C   UNL     1       1.810   9.129  18.216  0.00  0.00    +0.000 A 
BRANCH  11  17
ATOM     17  N   UNL     1       0.550  10.257  19.990  0.00  0.00    +0.000 N 
ATOM     18  H   UNL     1       0.906  11.218  19.874  0.00  0.00    +0.000 HD
ATOM     19  H   UNL     1      -0.351  10.119  20.468  0.00  0.00    +0.000 HD
ENDBRANCH  11  17
ENDBRANCH  10  14
ENDBRANCH   1  10
BRANCH   5  20
ATOM     20  O   UNL     1       7.351   5.773  15.354  0.00  0.00    +0.000 OA
BRANCH  20  21
ATOM     21  C   UNL     1       7.008   5.012  14.278  0.00  0.00    +0.000 A 
ATOM     22  C   UNL     1       5.946   4.084  14.335  0.00  0.00    +0.000 A 
ATOM     23  C   UNL     1       5.608   3.324  13.214  0.00  0.00    +0.000 A 
ATOM     24  C   UNL     1       6.320   3.481  12.023  0.00  0.00    +0.000 A 
ATOM     25  C   UNL     1       7.368   4.402  11.952  0.00  0.00    +0.000 A 
ATOM     26  C   UNL     1       7.709   5.170  13.073  0.00  0.00    +0.000 A 
ENDBRANCH  20  21
ENDBRANCH   5  20
TORSDOF 6
ENDMDL
MODEL 8
REMARK VINA RESULT:      -8.0      5.710      7.855
REMARK  Name = 
REMARK  6 active torsions:
REMARK  status: ('A' for Active; 'I' for Inactive)
REMARK    1  A    between atoms: N_1  and  C_2
REMARK    2  A    between atoms: C_5  and  O_6
REMARK    3  A    between atoms: O_6  and  C_7
REMARK    4  A    between atoms: C_9  and  N_10
REMARK    5  A    between atoms: C_12  and  O_13
REMARK    6  A    between atoms: O_13  and  C_14
REMARK                            x       y       z     vdW  Elec       q    Type
REMARK                         _______ _______ _______ _____ _____    ______ ____
ROOT
ATOM      1  C   UNL     1       1.551   8.208  20.351  0.00  0.00    +0.000 A 
ATOM      2  C   UNL     1       1.106   8.306  21.675  0.00  0.00    +0.000 A 
ATOM      3  C   UNL     1       0.196   9.312  22.045  0.00  0.00    +0.000 A 
ATOM      4  C   UNL     1      -0.283  10.213  21.080  0.00  0.00    +0.000 A 
ATOM      5  C   UNL     1       0.123  10.102  19.745  0.00  0.00    +0.000 A 
ATOM      6  C   UNL     1       1.042   9.103  19.395  0.00  0.00    +0.000 A 
ENDROOT
BRANCH   3   7
ATOM      7  N   UNL     1      -0.239   9.419  23.389  0.00  0.00    +0.000 N 
ATOM      8  H   UNL     1       0.189  10.104  24.028  0.00  0.00    +0.000 HD
ATOM      9  H   UNL     1      -0.989   8.810  23.748  0.00  0.00    +0.000 HD
ENDBRANCH   3   7
BRANCH   1  10
ATOM     10  O   UNL     1       2.459   7.252  20.003  0.00  0.00    +0.000 OA
BRANCH  10  14
ATOM     11  C   UNL     1       1.364   3.365  18.938  0.00  0.00    +0.000 A 
ATOM     12  C   UNL     1       1.850   4.246  17.967  0.00  0.00    +0.000 A 
ATOM     13  C   UNL     1       2.234   5.536  18.322  0.00  0.00    +0.000 A 
ATOM     14  C   UNL     1       2.129   5.978  19.656  0.00  0.00    +0.000 A 
ATOM     15  C   UNL     1       1.669   5.083  20.635  0.00  0.00    +0.000 A 
ATOM     16  C   UNL     1       1.283   3.785  20.276  0.00  0.00    +0.000 A 
BRANCH  11  17
ATOM     17  N   UNL     1       0.953   2.063  18.564  0.00  0.00    +0.000 N 
ATOM     18  H   UNL     1      -0.026   1.766  18.694  0.00  0.00    +0.000 HD
ATOM     19  H   UNL     1       1.627   1.386  18.179  0.00  0.00    +0.000 HD
ENDBRANCH  11  17
ENDBRANCH  10  14
ENDBRANCH   1  10
BRANCH   5  20
ATOM     20  O   UNL     1      -0.361  10.972  18.817  0.00  0.00    +0.000 OA
BRANCH  20  21
ATOM     21  C   UNL     1      -1.564  10.880  18.183  0.00  0.00    +0.000 A 
ATOM     22  C   UNL     1      -1.776   9.974  17.123  0.00  0.00    +0.000 A 
ATOM     23  C   UNL     1      -3.021   9.893  16.498  0.00  0.00    +0.000 A 
ATOM     24  C   UNL     1      -4.070  10.709  16.923  0.00  0.00    +0.000 A 
ATOM     25  C   UNL     1      -3.876  11.606  17.978  0.00  0.00    +0.000 A 
ATOM     26  C   UNL     1      -2.629  11.688  18.611  0.00  0.00    +0.000 A 
ENDBRANCH  20  21
ENDBRANCH   5  20
TORSDOF 6
ENDMDL
MODEL 9
REMARK VINA RESULT:      -8.0      5.692      7.766
REMARK  Name = 
REMARK  6 active torsions:
REMARK  status: ('A' for Active; 'I' for Inactive)
REMARK    1  A    between atoms: N_1  and  C_2
REMARK    2  A    between atoms: C_5  and  O_6
REMARK    3  A    between atoms: O_6  and  C_7
REMARK    4  A    between atoms: C_9  and  N_10
REMARK    5  A    between atoms: C_12  and  O_13
REMARK    6  A    between atoms: O_13  and  C_14
REMARK                            x       y       z     vdW  Elec       q    Type
REMARK                         _______ _______ _______ _____ _____    ______ ____
ROOT
ATOM      1  C   UNL     1       1.560   8.172  20.315  0.00  0.00    +0.000 A 
ATOM      2  C   UNL     1       1.114   8.280  21.637  0.00  0.00    +0.000 A 
ATOM      3  C   UNL     1       0.212   9.296  22.002  0.00  0.00    +0.000 A 
ATOM      4  C   UNL     1      -0.258  10.196  21.032  0.00  0.00    +0.000 A 
ATOM      5  C   UNL     1       0.148  10.075  19.698  0.00  0.00    +0.000 A 
ATOM      6  C   UNL     1       1.059   9.066  19.354  0.00  0.00    +0.000 A 
ENDROOT
BRANCH   3   7
ATOM      7  N   UNL     1      -0.223   9.414  23.345  0.00  0.00    +0.000 N 
ATOM      8  H   UNL     1      -1.164   9.100  23.623  0.00  0.00    +0.000 HD
ATOM      9  H   UNL     1       0.397   9.817  24.064  0.00  0.00    +0.000 HD
ENDBRANCH   3   7
BRANCH   1  10
ATOM     10  O   UNL     1       2.460   7.207  19.972  0.00  0.00    +0.000 OA
BRANCH  10  14
ATOM     11  C   UNL     1       1.494   3.294  18.877  0.00  0.00    +0.000 A 
ATOM     12  C   UNL     1       1.335   3.708  20.202  0.00  0.00    +0.000 A 
ATOM     13  C   UNL     1       1.638   5.018  20.567  0.00  0.00    +0.000 A 
ATOM     14  C   UNL     1       2.118   5.939  19.615  0.00  0.00    +0.000 A 
ATOM     15  C   UNL     1       2.248   5.530  18.279  0.00  0.00    +0.000 A 
ATOM     16  C   UNL     1       1.943   4.212  17.913  0.00  0.00    +0.000 A 
BRANCH  11  17
ATOM     17  N   UNL     1       1.207   1.954  18.519  0.00  0.00    +0.000 N 
ATOM     18  H   UNL     1       1.383   1.620  17.559  0.00  0.00    +0.000 HD
ATOM     19  H   UNL     1       0.798   1.301  19.202  0.00  0.00    +0.000 HD
ENDBRANCH  11  17
ENDBRANCH  10  14
ENDBRANCH   1  10
BRANCH   5  20
ATOM     20  O   UNL     1      -0.327  10.945  18.764  0.00  0.00    +0.000 OA
BRANCH  20  21
ATOM     21  C   UNL     1      -1.543  10.878  18.154  0.00  0.00    +0.000 A 
ATOM     22  C   UNL     1      -1.794   9.973  17.101  0.00  0.00    +0.000 A 
ATOM     23  C   UNL     1      -3.052   9.917  16.499  0.00  0.00    +0.000 A 
ATOM     24  C   UNL     1      -4.075  10.758  16.939  0.00  0.00    +0.000 A 
ATOM     25  C   UNL     1      -3.842  11.653  17.987  0.00  0.00    +0.000 A 
ATOM     26  C   UNL     1      -2.582  11.710  18.597  0.00  0.00    +0.000 A 
ENDBRANCH  20  21
ENDBRANCH   5  20
TORSDOF 6
ENDMDL
