MODEL 1
REMARK VINA RESULT:      -8.1      0.000      0.000
REMARK  Name = 
REMARK  4 active torsions:
REMARK  status: ('A' for Active; 'I' for Inactive)
REMARK    1  A    between atoms: N_4  and  C_5
REMARK    2  A    between atoms: C_5  and  C_7
REMARK    3  A    between atoms: C_9  and  C_10
REMARK    4  A    between atoms: C_18  and  N_19
REMARK                            x       y       z     vdW  Elec       q    Type
REMARK                         _______ _______ _______ _____ _____    ______ ____
ROOT
ATOM      1  C   UNL     1       5.845   5.036  17.291  0.00  0.00    +0.000 A 
ATOM      2  O   UNL     1       4.978   4.362  18.120  0.00  0.00    +0.000 OA
ATOM      3  C   UNL     1       3.738   4.927  17.973  0.00  0.00    +0.000 A 
ATOM      4  C   UNL     1       3.808   5.966  17.064  0.00  0.00    +0.000 A 
ATOM      5  C   UNL     1       5.145   6.028  16.633  0.00  0.00    +0.000 A 
ENDROOT
BRANCH   3   6
ATOM      6  C   UNL     1       2.641   4.344  18.745  0.00  0.00    +0.000 A 
ATOM      7  C   UNL     1       2.310   4.811  20.027  0.00  0.00    +0.000 A 
ATOM      8  C   UNL     1       1.274   4.224  20.764  0.00  0.00    +0.000 A 
ATOM      9  C   UNL     1       0.554   3.160  20.227  0.00  0.00    +0.000 A 
ATOM     10  C   UNL     1       0.869   2.700  18.957  0.00  0.00    +0.000 A 
ATOM     11  F   UNL     1       0.178   1.679  18.435  0.00  0.00    +0.000 F 
ATOM     12  C   UNL     1       1.896   3.278  18.216  0.00  0.00    +0.000 A 
ENDBRANCH   3   6
BRANCH   5  13
ATOM     13  N   UNL     1       5.627   6.901  15.732  0.00  0.00    +0.000 N 
ATOM     14  H   UNL     1       6.081   6.620  14.869  0.00  0.00    +0.000 HD
ATOM     15  H   UNL     1       5.390   7.894  15.778  0.00  0.00    +0.000 HD
ENDBRANCH   5  13
BRANCH   1  16
ATOM     16  C   UNL     1       7.245   4.668  17.194  0.00  0.00    +0.000 C 
ATOM     17  O   UNL     1       7.849   4.629  16.122  0.00  0.00    +0.000 OA
BRANCH  16  21
ATOM     18  N   UNL     1       8.699   5.187  20.383  0.00  0.00    +0.000 N 
ATOM     19  C   UNL     1       8.178   5.388  19.149  0.00  0.00    +0.000 C 
ATOM     20  N   UNL     1       8.137   6.717  18.892  0.00  0.00    +0.000 N 
ATOM     21  N   UNL     1       7.823   4.392  18.414  0.00  0.00    +0.000 NA
ATOM     22  H   UNL     1       9.474   5.804  20.594  0.00  0.00    +0.000 HD
ATOM     23  H   UNL     1       8.941   4.214  20.534  0.00  0.00    +0.000 HD
ATOM     24  H   UNL     1       7.843   7.264  19.692  0.00  0.00    +0.000 HD
ATOM     25  H   UNL     1       7.547   6.935  18.086  0.00  0.00    +0.000 HD
ENDBRANCH  16  21
ENDBRANCH   1  16
TORSDOF 4
ENDMDL
MODEL 2
REMARK VINA RESULT:      -8.0      2.112      2.790
REMARK  Name = 
REMARK  4 active torsions:
REMARK  status: ('A' for Active; 'I' for Inactive)
REMARK    1  A    between atoms: N_4  and  C_5
REMARK    2  A    between atoms: C_5  and  C_7
REMARK    3  A    between atoms: C_9  and  C_10
REMARK    4  A    between atoms: C_18  and  N_19
REMARK                            x       y       z     vdW  Elec       q    Type
REMARK                         _______ _______ _______ _____ _____    ______ ____
ROOT
ATOM      1  C   UNL     1       5.579   4.935  16.676  0.00  0.00    +0.000 A 
ATOM      2  O   UNL     1       4.807   4.184  17.532  0.00  0.00    +0.000 OA
ATOM      3  C   UNL     1       3.784   4.980  17.976  0.00  0.00    +0.000 A 
ATOM      4  C   UNL     1       3.902   6.239  17.419  0.00  0.00    +0.000 A 
ATOM      5  C   UNL     1       5.040   6.204  16.593  0.00  0.00    +0.000 A 
ENDROOT
BRANCH   3   6
ATOM      6  C   UNL     1       2.811   4.373  18.884  0.00  0.00    +0.000 A 
ATOM      7  C   UNL     1       2.818   4.644  20.262  0.00  0.00    +0.000 A 
ATOM      8  C   UNL     1       1.896   4.033  21.122  0.00  0.00    +0.000 A 
ATOM      9  C   UNL     1       0.953   3.145  20.614  0.00  0.00    +0.000 A 
ATOM     10  C   UNL     1       0.933   2.882  19.252  0.00  0.00    +0.000 A 
ATOM     11  F   UNL     1       0.026   2.029  18.757  0.00  0.00    +0.000 F 
ATOM     12  C   UNL     1       1.845   3.484  18.389  0.00  0.00    +0.000 A 
ENDBRANCH   3   6
BRANCH   5  13
ATOM     13  N   UNL     1       5.494   7.234  15.858  0.00  0.00    +0.000 N 
ATOM     14  H   UNL     1       5.627   7.186  14.853  0.00  0.00    +0.000 HD
ATOM     15  H   UNL     1       5.545   8.178  16.244  0.00  0.00    +0.000 HD
ENDBRANCH   5  13
BRANCH   1  16
ATOM     16  C   UNL     1       6.742   4.377  16.011  0.00  0.00    +0.000 C 
ATOM     17  O   UNL     1       7.859   4.357  16.529  0.00  0.00    +0.000 OA
BRANCH  16  21
ATOM     18  N   UNL     1       6.817   3.939  12.496  0.00  0.00    +0.000 N 
ATOM     19  C   UNL     1       7.004   4.431  13.745  0.00  0.00    +0.000 C 
ATOM     20  N   UNL     1       7.783   5.536  13.677  0.00  0.00    +0.000 N 
ATOM     21  N   UNL     1       6.463   3.861  14.765  0.00  0.00    +0.000 NA
ATOM     22  H   UNL     1       6.675   4.661  11.800  0.00  0.00    +0.000 HD
ATOM     23  H   UNL     1       6.079   3.244  12.474  0.00  0.00    +0.000 HD
ATOM     24  H   UNL     1       8.548   5.440  13.021  0.00  0.00    +0.000 HD
ATOM     25  H   UNL     1       8.145   5.808  14.595  0.00  0.00    +0.000 HD
ENDBRANCH  16  21
ENDBRANCH   1  16
TORSDOF 4
ENDMDL
MODEL 3
REMARK VINA RESULT:      -8.0      2.663      3.825
REMARK  Name = 
REMARK  4 active torsions:
REMARK  status: ('A' for Active; 'I' for Inactive)
REMARK    1  A    between atoms: N_4  and  C_5
REMARK    2  A    between atoms: C_5  and  C_7
REMARK    3  A    between atoms: C_9  and  C_10
REMARK    4  A    between atoms: C_18  and  N_19
REMARK                            x       y       z     vdW  Elec       q    Type
REMARK                         _______ _______ _______ _____ _____    ______ ____
ROOT
ATOM      1  C   UNL     1       6.008   5.042  15.900  0.00  0.00    +0.000 A 
ATOM      2  O   UNL     1       4.944   4.274  16.312  0.00  0.00    +0.000 OA
ATOM      3  C   UNL     1       4.482   4.802  17.490  0.00  0.00    +0.000 A 
ATOM      4  C   UNL     1       5.251   5.895  17.840  0.00  0.00    +0.000 A 
ATOM      5  C   UNL     1       6.215   6.045  16.827  0.00  0.00    +0.000 A 
ENDROOT
BRANCH   3   6
ATOM      6  C   UNL     1       3.321   4.156  18.101  0.00  0.00    +0.000 A 
ATOM      7  C   UNL     1       2.870   2.894  17.680  0.00  0.00    +0.000 A 
ATOM      8  C   UNL     1       1.740   2.302  18.257  0.00  0.00    +0.000 A 
ATOM      9  C   UNL     1       1.046   2.963  19.267  0.00  0.00    +0.000 A 
ATOM     10  C   UNL     1       1.493   4.205  19.696  0.00  0.00    +0.000 A 
ATOM     11  F   UNL     1       0.830   4.844  20.668  0.00  0.00    +0.000 F 
ATOM     12  C   UNL     1       2.616   4.802  19.128  0.00  0.00    +0.000 A 
ENDBRANCH   3   6
BRANCH   5  13
ATOM     13  N   UNL     1       7.152   7.007  16.788  0.00  0.00    +0.000 N 
ATOM     14  H   UNL     1       7.103   7.858  17.340  0.00  0.00    +0.000 HD
ATOM     15  H   UNL     1       8.059   6.846  16.346  0.00  0.00    +0.000 HD
ENDBRANCH   5  13
BRANCH   1  16
ATOM     16  C   UNL     1       6.717   4.760  14.666  0.00  0.00    +0.000 C 
ATOM     17  O   UNL     1       7.707   5.398  14.307  0.00  0.00    +0.000 OA
BRANCH  16  21
ATOM     18  N   UNL     1       6.041   2.561  11.971  0.00  0.00    +0.000 N 
ATOM     19  C   UNL     1       6.484   3.606  12.711  0.00  0.00    +0.000 C 
ATOM     20  N   UNL     1       7.214   4.432  11.923  0.00  0.00    +0.000 N 
ATOM     21  N   UNL     1       6.185   3.705  13.959  0.00  0.00    +0.000 NA
ATOM     22  H   UNL     1       5.742   2.829  11.042  0.00  0.00    +0.000 HD
ATOM     23  H   UNL     1       5.325   2.034  12.461  0.00  0.00    +0.000 HD
ATOM     24  H   UNL     1       7.822   3.932  11.285  0.00  0.00    +0.000 HD
ATOM     25  H   UNL     1       7.761   5.101  12.471  0.00  0.00    +0.000 HD
ENDBRANCH  16  21
ENDBRANCH   1  16
TORSDOF 4
ENDMDL
MODEL 4
REMARK VINA RESULT:      -8.0      1.159      1.540
REMARK  Name = 
REMARK  4 active torsions:
REMARK  status: ('A' for Active; 'I' for Inactive)
REMARK    1  A    between atoms: N_4  and  C_5
REMARK    2  A    between atoms: C_5  and  C_7
REMARK    3  A    between atoms: C_9  and  C_10
REMARK    4  A    between atoms: C_18  and  N_19
REMARK                            x       y       z     vdW  Elec       q    Type
REMARK                         _______ _______ _______ _____ _____    ______ ____
ROOT
ATOM      1  C   UNL     1       5.743   5.013  17.317  0.00  0.00    +0.000 A 
ATOM      2  O   UNL     1       4.974   4.290  18.199  0.00  0.00    +0.000 OA
ATOM      3  C   UNL     1       3.680   4.724  18.076  0.00  0.00    +0.000 A 
ATOM      4  C   UNL     1       3.617   5.729  17.129  0.00  0.00    +0.000 A 
ATOM      5  C   UNL     1       4.927   5.905  16.649  0.00  0.00    +0.000 A 
ENDROOT
BRANCH   3   6
ATOM      6  C   UNL     1       2.672   4.066  18.906  0.00  0.00    +0.000 A 
ATOM      7  C   UNL     1       1.524   3.478  18.348  0.00  0.00    +0.000 A 
ATOM      8  C   UNL     1       0.555   2.875  19.160  0.00  0.00    +0.000 A 
ATOM      9  C   UNL     1       0.722   2.851  20.542  0.00  0.00    +0.000 A 
ATOM     10  C   UNL     1       1.858   3.420  21.099  0.00  0.00    +0.000 A 
ATOM     11  F   UNL     1       2.024   3.398  22.427  0.00  0.00    +0.000 F 
ATOM     12  C   UNL     1       2.827   4.021  20.300  0.00  0.00    +0.000 A 
ENDBRANCH   3   6
BRANCH   5  13
ATOM     13  N   UNL     1       5.291   6.786  15.701  0.00  0.00    +0.000 N 
ATOM     14  H   UNL     1       5.253   6.584  14.707  0.00  0.00    +0.000 HD
ATOM     15  H   UNL     1       5.444   7.771  15.924  0.00  0.00    +0.000 HD
ENDBRANCH   5  13
BRANCH   1  16
ATOM     16  C   UNL     1       7.169   4.782  17.184  0.00  0.00    +0.000 C 
ATOM     17  O   UNL     1       7.763   4.889  16.110  0.00  0.00    +0.000 OA
BRANCH  16  21
ATOM     18  N   UNL     1       8.725   5.164  20.343  0.00  0.00    +0.000 N 
ATOM     19  C   UNL     1       8.167   5.416  19.135  0.00  0.00    +0.000 C 
ATOM     20  N   UNL     1       8.129   6.755  18.933  0.00  0.00    +0.000 N 
ATOM     21  N   UNL     1       7.782   4.454  18.373  0.00  0.00    +0.000 NA
ATOM     22  H   UNL     1       9.511   5.767  20.554  0.00  0.00    +0.000 HD
ATOM     23  H   UNL     1       8.964   4.183  20.448  0.00  0.00    +0.000 HD
ATOM     24  H   UNL     1       7.864   7.272  19.762  0.00  0.00    +0.000 HD
ATOM     25  H   UNL     1       7.515   7.009  18.155  0.00  0.00    +0.000 HD
ENDBRANCH  16  21
ENDBRANCH   1  16
TORSDOF 4
ENDMDL
MODEL 5
REMARK VINA RESULT:      -7.9      2.516      3.135
REMARK  Name = 
REMARK  4 active torsions:
REMARK  status: ('A' for Active; 'I' for Inactive)
REMARK    1  A    between atoms: N_4  and  C_5
REMARK    2  A    between atoms: C_5  and  C_7
REMARK    3  A    between atoms: C_9  and  C_10
REMARK    4  A    between atoms: C_18  and  N_19
REMARK                            x       y       z     vdW  Elec       q    Type
REMARK                         _______ _______ _______ _____ _____    ______ ____
ROOT
ATOM      1  C   UNL     1       5.539   4.826  16.692  0.00  0.00    +0.000 A 
ATOM      2  O   UNL     1       4.904   4.088  17.665  0.00  0.00    +0.000 OA
ATOM      3  C   UNL     1       3.829   4.817  18.105  0.00  0.00    +0.000 A 
ATOM      4  C   UNL     1       3.779   6.022  17.429  0.00  0.00    +0.000 A 
ATOM      5  C   UNL     1       4.863   6.021  16.533  0.00  0.00    +0.000 A 
ENDROOT
BRANCH   3   6
ATOM      6  C   UNL     1       2.982   4.207  19.129  0.00  0.00    +0.000 A 
ATOM      7  C   UNL     1       1.605   4.473  19.203  0.00  0.00    +0.000 A 
ATOM      8  C   UNL     1       0.813   3.902  20.206  0.00  0.00    +0.000 A 
ATOM      9  C   UNL     1       1.388   3.054  21.149  0.00  0.00    +0.000 A 
ATOM     10  C   UNL     1       2.745   2.777  21.075  0.00  0.00    +0.000 A 
ATOM     11  F   UNL     1       3.303   1.960  21.978  0.00  0.00    +0.000 F 
ATOM     12  C   UNL     1       3.541   3.340  20.080  0.00  0.00    +0.000 A 
ENDBRANCH   3   6
BRANCH   5  13
ATOM     13  N   UNL     1       5.160   7.014  15.678  0.00  0.00    +0.000 N 
ATOM     14  H   UNL     1       6.105   7.223  15.371  0.00  0.00    +0.000 HD
ATOM     15  H   UNL     1       4.431   7.488  15.143  0.00  0.00    +0.000 HD
ENDBRANCH   5  13
BRANCH   1  16
ATOM     16  C   UNL     1       6.713   4.326  16.002  0.00  0.00    +0.000 C 
ATOM     17  O   UNL     1       7.832   4.319  16.514  0.00  0.00    +0.000 OA
BRANCH  16  21
ATOM     18  N   UNL     1       6.825   3.984  12.478  0.00  0.00    +0.000 N 
ATOM     19  C   UNL     1       7.003   4.438  13.742  0.00  0.00    +0.000 C 
ATOM     20  N   UNL     1       7.800   5.533  13.714  0.00  0.00    +0.000 N 
ATOM     21  N   UNL     1       6.441   3.849  14.739  0.00  0.00    +0.000 NA
ATOM     22  H   UNL     1       6.702   4.727  11.801  0.00  0.00    +0.000 HD
ATOM     23  H   UNL     1       6.076   3.301  12.428  0.00  0.00    +0.000 HD
ATOM     24  H   UNL     1       8.571   5.443  13.064  0.00  0.00    +0.000 HD
ATOM     25  H   UNL     1       8.154   5.774  14.643  0.00  0.00    +0.000 HD
ENDBRANCH  16  21
ENDBRANCH   1  16
TORSDOF 4
ENDMDL
MODEL 6
REMARK VINA RESULT:      -7.9      1.884      2.216
REMARK  Name = 
REMARK  4 active torsions:
REMARK  status: ('A' for Active; 'I' for Inactive)
REMARK    1  A    between atoms: N_4  and  C_5
REMARK    2  A    between atoms: C_5  and  C_7
REMARK    3  A    between atoms: C_9  and  C_10
REMARK    4  A    between atoms: C_18  and  N_19
REMARK                            x       y       z     vdW  Elec       q    Type
REMARK                         _______ _______ _______ _____ _____    ______ ____
ROOT
ATOM      1  C   UNL     1       5.880   4.552  16.996  0.00  0.00    +0.000 A 
ATOM      2  O   UNL     1       5.176   4.377  18.164  0.00  0.00    +0.000 OA
ATOM      3  C   UNL     1       3.926   3.921  17.832  0.00  0.00    +0.000 A 
ATOM      4  C   UNL     1       3.823   3.814  16.459  0.00  0.00    +0.000 A 
ATOM      5  C   UNL     1       5.065   4.212  15.933  0.00  0.00    +0.000 A 
ENDROOT
BRANCH   3   6
ATOM      6  C   UNL     1       3.006   3.633  18.932  0.00  0.00    +0.000 A 
ATOM      7  C   UNL     1       1.668   4.060  18.907  0.00  0.00    +0.000 A 
ATOM      8  C   UNL     1       0.808   3.799  19.981  0.00  0.00    +0.000 A 
ATOM      9  C   UNL     1       1.273   3.105  21.094  0.00  0.00    +0.000 A 
ATOM     10  C   UNL     1       2.591   2.671  21.121  0.00  0.00    +0.000 A 
ATOM     11  F   UNL     1       3.043   2.001  22.188  0.00  0.00    +0.000 F 
ATOM     12  C   UNL     1       3.454   2.925  20.058  0.00  0.00    +0.000 A 
ENDBRANCH   3   6
BRANCH   5  13
ATOM     13  N   UNL     1       5.379   4.239  14.627  0.00  0.00    +0.000 N 
ATOM     14  H   UNL     1       5.736   5.064  14.155  0.00  0.00    +0.000 HD
ATOM     15  H   UNL     1       5.456   3.378  14.083  0.00  0.00    +0.000 HD
ENDBRANCH   5  13
BRANCH   1  16
ATOM     16  C   UNL     1       7.256   5.011  16.998  0.00  0.00    +0.000 C 
ATOM     17  O   UNL     1       8.208   4.259  17.206  0.00  0.00    +0.000 OA
BRANCH  16  21
ATOM     18  N   UNL     1       8.010   8.443  17.452  0.00  0.00    +0.000 N 
ATOM     19  C   UNL     1       7.808   7.121  17.669  0.00  0.00    +0.000 C 
ATOM     20  N   UNL     1       8.103   6.831  18.959  0.00  0.00    +0.000 N 
ATOM     21  N   UNL     1       7.384   6.355  16.726  0.00  0.00    +0.000 NA
ATOM     22  H   UNL     1       7.705   9.025  18.222  0.00  0.00    +0.000 HD
ATOM     23  H   UNL     1       7.607   8.743  16.570  0.00  0.00    +0.000 HD
ATOM     24  H   UNL     1       8.934   7.307  19.289  0.00  0.00    +0.000 HD
ATOM     25  H   UNL     1       8.193   5.824  19.115  0.00  0.00    +0.000 HD
ENDBRANCH  16  21
ENDBRANCH   1  16
TORSDOF 4
ENDMDL
MODEL 7
REMARK VINA RESULT:      -7.9      2.046      2.973
REMARK  Name = 
REMARK  4 active torsions:
REMARK  status: ('A' for Active; 'I' for Inactive)
REMARK    1  A    between atoms: N_4  and  C_5
REMARK    2  A    between atoms: C_5  and  C_7
REMARK    3  A    between atoms: C_9  and  C_10
REMARK    4  A    between atoms: C_18  and  N_19
REMARK                            x       y       z     vdW  Elec       q    Type
REMARK                         _______ _______ _______ _____ _____    ______ ____
ROOT
ATOM      1  C   UNL     1       6.029   5.284  17.239  0.00  0.00    +0.000 A 
ATOM      2  O   UNL     1       5.156   4.383  17.804  0.00  0.00    +0.000 OA
ATOM      3  C   UNL     1       4.037   5.075  18.190  0.00  0.00    +0.000 A 
ATOM      4  C   UNL     1       4.193   6.414  17.886  0.00  0.00    +0.000 A 
ATOM      5  C   UNL     1       5.455   6.541  17.281  0.00  0.00    +0.000 A 
ENDROOT
BRANCH   3   6
ATOM      6  C   UNL     1       2.950   4.304  18.794  0.00  0.00    +0.000 A 
ATOM      7  C   UNL     1       1.952   3.697  18.014  0.00  0.00    +0.000 A 
ATOM      8  C   UNL     1       0.904   2.986  18.609  0.00  0.00    +0.000 A 
ATOM      9  C   UNL     1       0.840   2.869  19.995  0.00  0.00    +0.000 A 
ATOM     10  C   UNL     1       1.829   3.456  20.772  0.00  0.00    +0.000 A 
ATOM     11  F   UNL     1       1.774   3.345  22.105  0.00  0.00    +0.000 F 
ATOM     12  C   UNL     1       2.876   4.166  20.189  0.00  0.00    +0.000 A 
ENDBRANCH   3   6
BRANCH   5  13
ATOM     13  N   UNL     1       5.982   7.690  16.824  0.00  0.00    +0.000 N 
ATOM     14  H   UNL     1       6.549   8.309  17.395  0.00  0.00    +0.000 HD
ATOM     15  H   UNL     1       6.001   7.904  15.826  0.00  0.00    +0.000 HD
ENDBRANCH   5  13
BRANCH   1  16
ATOM     16  C   UNL     1       7.312   4.868  16.705  0.00  0.00    +0.000 C 
ATOM     17  O   UNL     1       8.069   4.108  17.309  0.00  0.00    +0.000 OA
BRANCH  16  21
ATOM     18  N   UNL     1       7.299   5.256  13.183  0.00  0.00    +0.000 N 
ATOM     19  C   UNL     1       7.121   4.765  14.434  0.00  0.00    +0.000 C 
ATOM     20  N   UNL     1       6.443   3.595  14.360  0.00  0.00    +0.000 N 
ATOM     21  N   UNL     1       7.580   5.392  15.459  0.00  0.00    +0.000 NA
ATOM     22  H   UNL     1       7.523   4.541  12.502  0.00  0.00    +0.000 HD
ATOM     23  H   UNL     1       7.975   6.013  13.172  0.00  0.00    +0.000 HD
ATOM     24  H   UNL     1       5.691   3.617  13.682  0.00  0.00    +0.000 HD
ATOM     25  H   UNL     1       6.080   3.303  15.271  0.00  0.00    +0.000 HD
ENDBRANCH  16  21
ENDBRANCH   1  16
TORSDOF 4
ENDMDL
MODEL 8
REMARK VINA RESULT:      -7.8      2.521      3.584
REMARK  Name = 
REMARK  4 active torsions:
REMARK  status: ('A' for Active; 'I' for Inactive)
REMARK    1  A    between atoms: N_4  and  C_5
REMARK    2  A    between atoms: C_5  and  C_7
REMARK    3  A    between atoms: C_9  and  C_10
REMARK    4  A    between atoms: C_18  and  N_19
REMARK                            x       y       z     vdW  Elec       q    Type
REMARK                         _______ _______ _______ _____ _____    ______ ____
ROOT
ATOM      1  C   UNL     1       6.193   5.243  15.930  0.00  0.00    +0.000 A 
ATOM      2  O   UNL     1       5.051   4.637  16.400  0.00  0.00    +0.000 OA
ATOM      3  C   UNL     1       4.726   5.230  17.592  0.00  0.00    +0.000 A 
ATOM      4  C   UNL     1       5.659   6.203  17.895  0.00  0.00    +0.000 A 
ATOM      5  C   UNL     1       6.585   6.209  16.836  0.00  0.00    +0.000 A 
ENDROOT
BRANCH   3   6
ATOM      6  C   UNL     1       3.514   4.760  18.264  0.00  0.00    +0.000 A 
ATOM      7  C   UNL     1       2.929   5.479  19.320  0.00  0.00    +0.000 A 
ATOM      8  C   UNL     1       1.785   5.001  19.970  0.00  0.00    +0.000 A 
ATOM      9  C   UNL     1       1.208   3.798  19.572  0.00  0.00    +0.000 A 
ATOM     10  C   UNL     1       1.774   3.089  18.523  0.00  0.00    +0.000 A 
ATOM     11  F   UNL     1       1.222   1.933  18.134  0.00  0.00    +0.000 F 
ATOM     12  C   UNL     1       2.912   3.556  17.869  0.00  0.00    +0.000 A 
ENDBRANCH   3   6
BRANCH   5  13
ATOM     13  N   UNL     1       7.648   7.027  16.743  0.00  0.00    +0.000 N 
ATOM     14  H   UNL     1       8.567   6.716  16.444  0.00  0.00    +0.000 HD
ATOM     15  H   UNL     1       7.540   8.042  16.784  0.00  0.00    +0.000 HD
ENDBRANCH   5  13
BRANCH   1  16
ATOM     16  C   UNL     1       6.795   4.857  14.668  0.00  0.00    +0.000 C 
ATOM     17  O   UNL     1       7.791   5.416  14.208  0.00  0.00    +0.000 OA
BRANCH  16  21
ATOM     18  N   UNL     1       5.842   2.540  12.163  0.00  0.00    +0.000 N 
ATOM     19  C   UNL     1       6.394   3.594  12.810  0.00  0.00    +0.000 C 
ATOM     20  N   UNL     1       7.152   4.303  11.940  0.00  0.00    +0.000 N 
ATOM     21  N   UNL     1       6.154   3.802  14.057  0.00  0.00    +0.000 NA
ATOM     22  H   UNL     1       5.526   2.766  11.228  0.00  0.00    +0.000 HD
ATOM     23  H   UNL     1       5.108   2.106  12.714  0.00  0.00    +0.000 HD
ATOM     24  H   UNL     1       7.693   3.715  11.318  0.00  0.00    +0.000 HD
ATOM     25  H   UNL     1       7.771   4.963  12.419  0.00  0.00    +0.000 HD
ENDBRANCH  16  21
ENDBRANCH   1  16
TORSDOF 4
ENDMDL
MODEL 9
REMARK VINA RESULT:      -7.8      1.197      1.422
REMARK  Name = 
REMARK  4 active torsions:
REMARK  status: ('A' for Active; 'I' for Inactive)
REMARK    1  A    between atoms: N_4  and  C_5
REMARK    2  A    between atoms: C_5  and  C_7
REMARK    3  A    between atoms: C_9  and  C_10
REMARK    4  A    between atoms: C_18  and  N_19
REMARK                            x       y       z     vdW  Elec       q    Type
REMARK                         _______ _______ _______ _____ _____    ______ ____
ROOT
ATOM      1  C   UNL     1       6.000   6.145  17.291  0.00  0.00    +0.000 A 
ATOM      2  O   UNL     1       5.062   5.877  18.261  0.00  0.00    +0.000 OA
ATOM      3  C   UNL     1       4.077   5.114  17.689  0.00  0.00    +0.000 A 
ATOM      4  C   UNL     1       4.372   4.903  16.355  0.00  0.00    +0.000 A 
ATOM      5  C   UNL     1       5.593   5.556  16.109  0.00  0.00    +0.000 A 
ENDROOT
BRANCH   3   6
ATOM      6  C   UNL     1       2.981   4.680  18.553  0.00  0.00    +0.000 A 
ATOM      7  C   UNL     1       2.754   5.267  19.809  0.00  0.00    +0.000 A 
ATOM      8  C   UNL     1       1.715   4.821  20.637  0.00  0.00    +0.000 A 
ATOM      9  C   UNL     1       0.888   3.783  20.218  0.00  0.00    +0.000 A 
ATOM     10  C   UNL     1       1.100   3.207  18.974  0.00  0.00    +0.000 A 
ATOM     11  F   UNL     1       0.305   2.209  18.565  0.00  0.00    +0.000 F 
ATOM     12  C   UNL     1       2.129   3.643  18.144  0.00  0.00    +0.000 A 
ENDBRANCH   3   6
BRANCH   5  13
ATOM     13  N   UNL     1       6.233   5.579  14.927  0.00  0.00    +0.000 N 
ATOM     14  H   UNL     1       6.537   6.435  14.473  0.00  0.00    +0.000 HD
ATOM     15  H   UNL     1       6.618   4.726  14.517  0.00  0.00    +0.000 HD
ENDBRANCH   5  13
BRANCH   1  16
ATOM     16  C   UNL     1       7.191   6.921  17.577  0.00  0.00    +0.000 C 
ATOM     17  O   UNL     1       7.675   7.719  16.773  0.00  0.00    +0.000 OA
BRANCH  16  21
ATOM     18  N   UNL     1       8.631   5.202  20.320  0.00  0.00    +0.000 N 
ATOM     19  C   UNL     1       8.065   5.488  19.123  0.00  0.00    +0.000 C 
ATOM     20  N   UNL     1       7.965   4.350  18.394  0.00  0.00    +0.000 N 
ATOM     21  N   UNL     1       7.705   6.689  18.834  0.00  0.00    +0.000 NA
ATOM     22  H   UNL     1       8.303   4.330  20.718  0.00  0.00    +0.000 HD
ATOM     23  H   UNL     1       8.536   5.973  20.973  0.00  0.00    +0.000 HD
ATOM     24  H   UNL     1       8.784   3.759  18.472  0.00  0.00    +0.000 HD
ATOM     25  H   UNL     1       7.766   4.542  17.409  0.00  0.00    +0.000 HD
ENDBRANCH  16  21
ENDBRANCH   1  16
TORSDOF 4
ENDMDL
