MODEL 1
REMARK VINA RESULT:      -7.7      0.000      0.000
REMARK  Name = 
REMARK  4 active torsions:
REMARK  status: ('A' for Active; 'I' for Inactive)
REMARK    1  A    between atoms: N_1  and  C_2
REMARK    2  A    between atoms: C_2  and  C_3
REMARK    3  A    between atoms: C_2  and  C_14
REMARK    4  A    between atoms: C_8  and  C_9
REMARK                            x       y       z     vdW  Elec       q    Type
REMARK                         _______ _______ _______ _____ _____    ______ ____
ROOT
ATOM      1  C   UNL     1       6.966   5.047  17.604  0.00  0.00    +0.000 C 
ATOM      2  O   UNL     1       7.705   6.008  17.404  0.00  0.00    +0.000 OA
ATOM      3  N   UNL     1       6.356   4.251  16.647  0.00  0.00    +0.000 N 
ATOM      4  C   UNL     1       6.568   4.353  15.292  0.00  0.00    +0.000 A 
ATOM      5  C   UNL     1       5.929   3.561  14.299  0.00  0.00    +0.000 A 
ATOM      6  C   UNL     1       6.436   4.014  13.104  0.00  0.00    +0.000 A 
ATOM      7  N   UNL     1       7.321   4.996  13.423  0.00  0.00    +0.000 N 
ATOM      8  N   UNL     1       7.429   5.206  14.737  0.00  0.00    +0.000 NA
ATOM      9  H   UNL     1       5.684   3.575  16.992  0.00  0.00    +0.000 HD
ATOM     10  H   UNL     1       7.883   5.564  12.799  0.00  0.00    +0.000 HD
ENDROOT
BRANCH   6  11
ATOM     11  C   UNL     1       6.087   3.528  11.712  0.00  0.00    +0.000 C 
ATOM     12  C   UNL     1       5.680   2.078  11.541  0.00  0.00    +0.000 C 
ATOM     13  C   UNL     1       4.647   3.144  11.432  0.00  0.00    +0.000 C 
ENDBRANCH   6  11
BRANCH   1  14
ATOM     14  C   UNL     1       6.642   4.598  19.053  0.00  0.00    +0.000 C 
BRANCH  14  15
ATOM     15  C   UNL     1       5.150   4.506  19.329  0.00  0.00    +0.000 A 
ATOM     16  C   UNL     1       4.560   3.259  19.592  0.00  0.00    +0.000 A 
ATOM     17  C   UNL     1       3.199   3.163  19.885  0.00  0.00    +0.000 A 
ATOM     18  C   UNL     1       2.408   4.310  19.923  0.00  0.00    +0.000 A 
ATOM     19  C   UNL     1       2.980   5.555  19.672  0.00  0.00    +0.000 A 
ATOM     20  C   UNL     1       4.341   5.655  19.383  0.00  0.00    +0.000 A 
ENDBRANCH  14  15
BRANCH  14  21
ATOM     21  N   UNL     1       7.280   5.491  20.063  0.00  0.00    +0.000 NA
ATOM     22  H   UNL     1       7.623   4.879  20.808  0.00  0.00    +0.000 HD
ATOM     23  H   UNL     1       6.530   6.021  20.511  0.00  0.00    +0.000 HD
ENDBRANCH  14  21
ENDBRANCH   1  14
TORSDOF 4
ENDMDL
MODEL 2
REMARK VINA RESULT:      -7.7      0.064      1.109
REMARK  Name = 
REMARK  4 active torsions:
REMARK  status: ('A' for Active; 'I' for Inactive)
REMARK    1  A    between atoms: N_1  and  C_2
REMARK    2  A    between atoms: C_2  and  C_3
REMARK    3  A    between atoms: C_2  and  C_14
REMARK    4  A    between atoms: C_8  and  C_9
REMARK                            x       y       z     vdW  Elec       q    Type
REMARK                         _______ _______ _______ _____ _____    ______ ____
ROOT
ATOM      1  C   UNL     1       6.960   5.070  17.599  0.00  0.00    +0.000 C 
ATOM      2  O   UNL     1       7.683   6.042  17.393  0.00  0.00    +0.000 OA
ATOM      3  N   UNL     1       6.361   4.260  16.647  0.00  0.00    +0.000 N 
ATOM      4  C   UNL     1       6.568   4.361  15.290  0.00  0.00    +0.000 A 
ATOM      5  C   UNL     1       5.940   3.554  14.302  0.00  0.00    +0.000 A 
ATOM      6  C   UNL     1       6.436   4.011  13.104  0.00  0.00    +0.000 A 
ATOM      7  N   UNL     1       7.306   5.009  13.417  0.00  0.00    +0.000 N 
ATOM      8  N   UNL     1       7.413   5.225  14.729  0.00  0.00    +0.000 NA
ATOM      9  H   UNL     1       5.702   3.574  16.996  0.00  0.00    +0.000 HD
ATOM     10  H   UNL     1       7.856   5.584  12.789  0.00  0.00    +0.000 HD
ENDROOT
BRANCH   6  11
ATOM     11  C   UNL     1       6.092   3.513  11.715  0.00  0.00    +0.000 C 
ATOM     12  C   UNL     1       5.644   2.073  11.561  0.00  0.00    +0.000 C 
ATOM     13  C   UNL     1       4.645   3.168  11.421  0.00  0.00    +0.000 C 
ENDBRANCH   6  11
BRANCH   1  14
ATOM     14  C   UNL     1       6.647   4.622  19.050  0.00  0.00    +0.000 C 
BRANCH  14  15
ATOM     15  C   UNL     1       5.158   4.534  19.340  0.00  0.00    +0.000 A 
ATOM     16  C   UNL     1       4.374   5.699  19.344  0.00  0.00    +0.000 A 
ATOM     17  C   UNL     1       2.999   5.631  19.570  0.00  0.00    +0.000 A 
ATOM     18  C   UNL     1       2.386   4.398  19.791  0.00  0.00    +0.000 A 
ATOM     19  C   UNL     1       3.149   3.233  19.782  0.00  0.00    +0.000 A 
ATOM     20  C   UNL     1       4.523   3.298  19.552  0.00  0.00    +0.000 A 
ENDBRANCH  14  15
BRANCH  14  21
ATOM     21  N   UNL     1       7.297   5.512  20.055  0.00  0.00    +0.000 NA
ATOM     22  H   UNL     1       6.606   5.659  20.795  0.00  0.00    +0.000 HD
ATOM     23  H   UNL     1       7.389   6.434  19.623  0.00  0.00    +0.000 HD
ENDBRANCH  14  21
ENDBRANCH   1  14
TORSDOF 4
ENDMDL
MODEL 3
REMARK VINA RESULT:      -7.7      2.019      6.764
REMARK  Name = 
REMARK  4 active torsions:
REMARK  status: ('A' for Active; 'I' for Inactive)
REMARK    1  A    between atoms: N_1  and  C_2
REMARK    2  A    between atoms: C_2  and  C_3
REMARK    3  A    between atoms: C_2  and  C_14
REMARK    4  A    between atoms: C_8  and  C_9
REMARK                            x       y       z     vdW  Elec       q    Type
REMARK                         _______ _______ _______ _____ _____    ______ ____
ROOT
ATOM      1  C   UNL     1       5.860   5.814  16.518  0.00  0.00    +0.000 C 
ATOM      2  O   UNL     1       5.304   6.808  16.056  0.00  0.00    +0.000 OA
ATOM      3  N   UNL     1       5.425   5.032  17.578  0.00  0.00    +0.000 N 
ATOM      4  C   UNL     1       4.224   5.194  18.229  0.00  0.00    +0.000 A 
ATOM      5  C   UNL     1       3.778   4.417  19.333  0.00  0.00    +0.000 A 
ATOM      6  C   UNL     1       2.545   4.932  19.654  0.00  0.00    +0.000 A 
ATOM      7  N   UNL     1       2.316   5.933  18.763  0.00  0.00    +0.000 N 
ATOM      8  N   UNL     1       3.307   6.097  17.884  0.00  0.00    +0.000 NA
ATOM      9  H   UNL     1       6.069   4.320  17.900  0.00  0.00    +0.000 HD
ATOM     10  H   UNL     1       1.510   6.544  18.696  0.00  0.00    +0.000 HD
ENDROOT
BRANCH   6  11
ATOM     11  C   UNL     1       1.623   4.486  20.771  0.00  0.00    +0.000 C 
ATOM     12  C   UNL     1       1.000   3.107  20.677  0.00  0.00    +0.000 C 
ATOM     13  C   UNL     1       2.085   3.353  21.667  0.00  0.00    +0.000 C 
ENDBRANCH   6  11
BRANCH   1  14
ATOM     14  C   UNL     1       7.185   5.299  15.898  0.00  0.00    +0.000 C 
BRANCH  14  15
ATOM     15  C   UNL     1       7.018   4.784  14.478  0.00  0.00    +0.000 A 
ATOM     16  C   UNL     1       6.024   3.836  14.188  0.00  0.00    +0.000 A 
ATOM     17  C   UNL     1       5.832   3.381  12.883  0.00  0.00    +0.000 A 
ATOM     18  C   UNL     1       6.628   3.869  11.848  0.00  0.00    +0.000 A 
ATOM     19  C   UNL     1       7.613   4.816  12.118  0.00  0.00    +0.000 A 
ATOM     20  C   UNL     1       7.804   5.275  13.421  0.00  0.00    +0.000 A 
ENDBRANCH  14  15
BRANCH  14  21
ATOM     21  N   UNL     1       7.814   4.241  16.740  0.00  0.00    +0.000 NA
ATOM     22  H   UNL     1       8.682   4.644  17.103  0.00  0.00    +0.000 HD
ATOM     23  H   UNL     1       8.136   3.506  16.108  0.00  0.00    +0.000 HD
ENDBRANCH  14  21
ENDBRANCH   1  14
TORSDOF 4
ENDMDL
MODEL 4
REMARK VINA RESULT:      -7.6      2.017      6.838
REMARK  Name = 
REMARK  4 active torsions:
REMARK  status: ('A' for Active; 'I' for Inactive)
REMARK    1  A    between atoms: N_1  and  C_2
REMARK    2  A    between atoms: C_2  and  C_3
REMARK    3  A    between atoms: C_2  and  C_14
REMARK    4  A    between atoms: C_8  and  C_9
REMARK                            x       y       z     vdW  Elec       q    Type
REMARK                         _______ _______ _______ _____ _____    ______ ____
ROOT
ATOM      1  C   UNL     1       5.853   5.811  16.507  0.00  0.00    +0.000 C 
ATOM      2  O   UNL     1       5.299   6.814  16.065  0.00  0.00    +0.000 OA
ATOM      3  N   UNL     1       5.433   5.026  17.570  0.00  0.00    +0.000 N 
ATOM      4  C   UNL     1       4.249   5.196  18.249  0.00  0.00    +0.000 A 
ATOM      5  C   UNL     1       3.819   4.415  19.358  0.00  0.00    +0.000 A 
ATOM      6  C   UNL     1       2.599   4.942  19.711  0.00  0.00    +0.000 A 
ATOM      7  N   UNL     1       2.362   5.952  18.832  0.00  0.00    +0.000 N 
ATOM      8  N   UNL     1       3.335   6.112  17.932  0.00  0.00    +0.000 NA
ATOM      9  H   UNL     1       6.076   4.304  17.873  0.00  0.00    +0.000 HD
ATOM     10  H   UNL     1       1.562   6.573  18.788  0.00  0.00    +0.000 HD
ENDROOT
BRANCH   6  11
ATOM     11  C   UNL     1       1.698   4.497  20.844  0.00  0.00    +0.000 C 
ATOM     12  C   UNL     1       0.969   3.177  20.704  0.00  0.00    +0.000 C 
ATOM     13  C   UNL     1       2.113   3.282  21.650  0.00  0.00    +0.000 C 
ENDBRANCH   6  11
BRANCH   1  14
ATOM     14  C   UNL     1       7.158   5.286  15.853  0.00  0.00    +0.000 C 
BRANCH  14  15
ATOM     15  C   UNL     1       6.955   4.792  14.430  0.00  0.00    +0.000 A 
ATOM     16  C   UNL     1       7.773   5.274  13.397  0.00  0.00    +0.000 A 
ATOM     17  C   UNL     1       7.624   4.802  12.091  0.00  0.00    +0.000 A 
ATOM     18  C   UNL     1       6.658   3.839  11.802  0.00  0.00    +0.000 A 
ATOM     19  C   UNL     1       5.844   3.345  12.818  0.00  0.00    +0.000 A 
ATOM     20  C   UNL     1       5.994   3.812  14.124  0.00  0.00    +0.000 A 
ENDBRANCH  14  15
BRANCH  14  21
ATOM     21  N   UNL     1       7.789   4.208  16.669  0.00  0.00    +0.000 NA
ATOM     22  H   UNL     1       7.241   3.362  16.495  0.00  0.00    +0.000 HD
ATOM     23  H   UNL     1       7.597   4.423  17.650  0.00  0.00    +0.000 HD
ENDBRANCH  14  21
ENDBRANCH   1  14
TORSDOF 4
ENDMDL
MODEL 5
REMARK VINA RESULT:      -7.6      3.491      5.853
REMARK  Name = 
REMARK  4 active torsions:
REMARK  status: ('A' for Active; 'I' for Inactive)
REMARK    1  A    between atoms: N_1  and  C_2
REMARK    2  A    between atoms: C_2  and  C_3
REMARK    3  A    between atoms: C_2  and  C_14
REMARK    4  A    between atoms: C_8  and  C_9
REMARK                            x       y       z     vdW  Elec       q    Type
REMARK                         _______ _______ _______ _____ _____    ______ ____
ROOT
ATOM      1  C   UNL     1       6.335   5.255  17.486  0.00  0.00    +0.000 C 
ATOM      2  O   UNL     1       6.895   4.657  18.402  0.00  0.00    +0.000 OA
ATOM      3  N   UNL     1       6.468   6.596  17.161  0.00  0.00    +0.000 N 
ATOM      4  C   UNL     1       7.347   7.465  17.767  0.00  0.00    +0.000 A 
ATOM      5  C   UNL     1       7.474   8.848  17.461  0.00  0.00    +0.000 A 
ATOM      6  C   UNL     1       8.454   9.309  18.308  0.00  0.00    +0.000 A 
ATOM      7  N   UNL     1       8.856   8.231  19.034  0.00  0.00    +0.000 N 
ATOM      8  N   UNL     1       8.214   7.107  18.713  0.00  0.00    +0.000 NA
ATOM      9  H   UNL     1       5.841   6.946  16.448  0.00  0.00    +0.000 HD
ATOM     10  H   UNL     1       9.559   8.191  19.763  0.00  0.00    +0.000 HD
ENDROOT
BRANCH   6  11
ATOM     11  C   UNL     1       8.982  10.725  18.420  0.00  0.00    +0.000 C 
ATOM     12  C   UNL     1      10.148  10.982  19.354  0.00  0.00    +0.000 C 
ATOM     13  C   UNL     1      10.370  11.011  17.882  0.00  0.00    +0.000 C 
ENDBRANCH   6  11
BRANCH   1  14
ATOM     14  C   UNL     1       5.372   4.499  16.533  0.00  0.00    +0.000 C 
BRANCH  14  15
ATOM     15  C   UNL     1       4.058   4.116  17.194  0.00  0.00    +0.000 A 
ATOM     16  C   UNL     1       3.751   2.763  17.411  0.00  0.00    +0.000 A 
ATOM     17  C   UNL     1       2.566   2.396  18.051  0.00  0.00    +0.000 A 
ATOM     18  C   UNL     1       1.674   3.374  18.487  0.00  0.00    +0.000 A 
ATOM     19  C   UNL     1       1.968   4.721  18.285  0.00  0.00    +0.000 A 
ATOM     20  C   UNL     1       3.153   5.090  17.650  0.00  0.00    +0.000 A 
ENDBRANCH  14  15
BRANCH  14  21
ATOM     21  N   UNL     1       6.012   3.283  15.954  0.00  0.00    +0.000 NA
ATOM     22  H   UNL     1       5.407   2.496  16.205  0.00  0.00    +0.000 HD
ATOM     23  H   UNL     1       6.866   3.110  16.488  0.00  0.00    +0.000 HD
ENDBRANCH  14  21
ENDBRANCH   1  14
TORSDOF 4
ENDMDL
MODEL 6
REMARK VINA RESULT:      -7.6      3.540      5.986
REMARK  Name = 
REMARK  4 active torsions:
REMARK  status: ('A' for Active; 'I' for Inactive)
REMARK    1  A    between atoms: N_1  and  C_2
REMARK    2  A    between atoms: C_2  and  C_3
REMARK    3  A    between atoms: C_2  and  C_14
REMARK    4  A    between atoms: C_8  and  C_9
REMARK                            x       y       z     vdW  Elec       q    Type
REMARK                         _______ _______ _______ _____ _____    ______ ____
ROOT
ATOM      1  C   UNL     1       6.380   5.310  17.489  0.00  0.00    +0.000 C 
ATOM      2  O   UNL     1       6.934   4.718  18.413  0.00  0.00    +0.000 OA
ATOM      3  N   UNL     1       6.512   6.649  17.158  0.00  0.00    +0.000 N 
ATOM      4  C   UNL     1       7.383   7.524  17.766  0.00  0.00    +0.000 A 
ATOM      5  C   UNL     1       7.510   8.905  17.454  0.00  0.00    +0.000 A 
ATOM      6  C   UNL     1       8.481   9.374  18.307  0.00  0.00    +0.000 A 
ATOM      7  N   UNL     1       8.880   8.301  19.042  0.00  0.00    +0.000 N 
ATOM      8  N   UNL     1       8.244   7.173  18.721  0.00  0.00    +0.000 NA
ATOM      9  H   UNL     1       5.890   6.994  16.437  0.00  0.00    +0.000 HD
ATOM     10  H   UNL     1       9.577   8.266  19.777  0.00  0.00    +0.000 HD
ENDROOT
BRANCH   6  11
ATOM     11  C   UNL     1       9.005  10.791  18.415  0.00  0.00    +0.000 C 
ATOM     12  C   UNL     1      10.169  11.055  19.349  0.00  0.00    +0.000 C 
ATOM     13  C   UNL     1      10.392  11.081  17.878  0.00  0.00    +0.000 C 
ENDBRANCH   6  11
BRANCH   1  14
ATOM     14  C   UNL     1       5.427   4.547  16.532  0.00  0.00    +0.000 C 
BRANCH  14  15
ATOM     15  C   UNL     1       4.110   4.161  17.185  0.00  0.00    +0.000 A 
ATOM     16  C   UNL     1       3.231   5.159  17.635  0.00  0.00    +0.000 A 
ATOM     17  C   UNL     1       2.001   4.822  18.202  0.00  0.00    +0.000 A 
ATOM     18  C   UNL     1       1.629   3.484  18.323  0.00  0.00    +0.000 A 
ATOM     19  C   UNL     1       2.487   2.483  17.874  0.00  0.00    +0.000 A 
ATOM     20  C   UNL     1       3.715   2.817  17.304  0.00  0.00    +0.000 A 
ENDBRANCH  14  15
BRANCH  14  21
ATOM     21  N   UNL     1       6.076   3.330  15.964  0.00  0.00    +0.000 NA
ATOM     22  H   UNL     1       5.599   3.140  15.078  0.00  0.00    +0.000 HD
ATOM     23  H   UNL     1       5.806   2.542  16.556  0.00  0.00    +0.000 HD
ENDBRANCH  14  21
ENDBRANCH   1  14
TORSDOF 4
ENDMDL
MODEL 7
REMARK VINA RESULT:      -7.4      4.103      6.353
REMARK  Name = 
REMARK  4 active torsions:
REMARK  status: ('A' for Active; 'I' for Inactive)
REMARK    1  A    between atoms: N_1  and  C_2
REMARK    2  A    between atoms: C_2  and  C_3
REMARK    3  A    between atoms: C_2  and  C_14
REMARK    4  A    between atoms: C_8  and  C_9
REMARK                            x       y       z     vdW  Elec       q    Type
REMARK                         _______ _______ _______ _____ _____    ______ ____
ROOT
ATOM      1  C   UNL     1       6.763   6.237  17.473  0.00  0.00    +0.000 C 
ATOM      2  O   UNL     1       7.141   5.660  18.490  0.00  0.00    +0.000 OA
ATOM      3  N   UNL     1       7.030   7.548  17.110  0.00  0.00    +0.000 N 
ATOM      4  C   UNL     1       7.864   8.397  17.801  0.00  0.00    +0.000 A 
ATOM      5  C   UNL     1       8.125   9.752  17.454  0.00  0.00    +0.000 A 
ATOM      6  C   UNL     1       8.996  10.202  18.418  0.00  0.00    +0.000 A 
ATOM      7  N   UNL     1       9.215   9.145  19.245  0.00  0.00    +0.000 N 
ATOM      8  N   UNL     1       8.556   8.043  18.883  0.00  0.00    +0.000 NA
ATOM      9  H   UNL     1       6.540   7.893  16.294  0.00  0.00    +0.000 HD
ATOM     10  H   UNL     1       9.797   9.105  20.074  0.00  0.00    +0.000 HD
ENDROOT
BRANCH   6  11
ATOM     11  C   UNL     1       9.593  11.589  18.543  0.00  0.00    +0.000 C 
ATOM     12  C   UNL     1      10.902  11.740  19.292  0.00  0.00    +0.000 C 
ATOM     13  C   UNL     1      10.888  11.876  17.810  0.00  0.00    +0.000 C 
ENDBRANCH   6  11
BRANCH   1  14
ATOM     14  C   UNL     1       5.905   5.486  16.421  0.00  0.00    +0.000 C 
BRANCH  14  15
ATOM     15  C   UNL     1       4.518   5.129  16.928  0.00  0.00    +0.000 A 
ATOM     16  C   UNL     1       4.045   3.812  16.809  0.00  0.00    +0.000 A 
ATOM     17  C   UNL     1       2.789   3.459  17.304  0.00  0.00    +0.000 A 
ATOM     18  C   UNL     1       1.989   4.415  17.928  0.00  0.00    +0.000 A 
ATOM     19  C   UNL     1       2.447   5.724  18.060  0.00  0.00    +0.000 A 
ATOM     20  C   UNL     1       3.704   6.078  17.570  0.00  0.00    +0.000 A 
ENDBRANCH  14  15
BRANCH  14  21
ATOM     21  N   UNL     1       6.589   4.254  15.930  0.00  0.00    +0.000 NA
ATOM     22  H   UNL     1       7.580   4.370  16.156  0.00  0.00    +0.000 HD
ATOM     23  H   UNL     1       6.568   4.287  14.909  0.00  0.00    +0.000 HD
ENDBRANCH  14  21
ENDBRANCH   1  14
TORSDOF 4
ENDMDL
MODEL 8
REMARK VINA RESULT:      -7.3      4.878      7.134
REMARK  Name = 
REMARK  4 active torsions:
REMARK  status: ('A' for Active; 'I' for Inactive)
REMARK    1  A    between atoms: N_1  and  C_2
REMARK    2  A    between atoms: C_2  and  C_3
REMARK    3  A    between atoms: C_2  and  C_14
REMARK    4  A    between atoms: C_8  and  C_9
REMARK                            x       y       z     vdW  Elec       q    Type
REMARK                         _______ _______ _______ _____ _____    ______ ____
ROOT
ATOM      1  C   UNL     1       7.806   7.181  18.016  0.00  0.00    +0.000 C 
ATOM      2  O   UNL     1       7.334   7.513  16.931  0.00  0.00    +0.000 OA
ATOM      3  N   UNL     1       8.531   7.978  18.889  0.00  0.00    +0.000 N 
ATOM      4  C   UNL     1       8.755   9.325  18.717  0.00  0.00    +0.000 A 
ATOM      5  C   UNL     1       9.519  10.147  19.590  0.00  0.00    +0.000 A 
ATOM      6  C   UNL     1       9.478  11.399  19.023  0.00  0.00    +0.000 A 
ATOM      7  N   UNL     1       8.718  11.276  17.903  0.00  0.00    +0.000 N 
ATOM      8  N   UNL     1       8.258  10.039  17.707  0.00  0.00    +0.000 NA
ATOM      9  H   UNL     1       8.943   7.507  19.685  0.00  0.00    +0.000 HD
ATOM     10  H   UNL     1       8.474  11.991  17.226  0.00  0.00    +0.000 HD
ENDROOT
BRANCH   6  11
ATOM     11  C   UNL     1      10.142  12.663  19.533  0.00  0.00    +0.000 C 
ATOM     12  C   UNL     1      11.560  12.565  20.058  0.00  0.00    +0.000 C 
ATOM     13  C   UNL     1      11.310  13.222  18.746  0.00  0.00    +0.000 C 
ENDBRANCH   6  11
BRANCH   1  14
ATOM     14  C   UNL     1       7.599   5.740  18.551  0.00  0.00    +0.000 C 
BRANCH  14  15
ATOM     15  C   UNL     1       6.226   5.176  18.228  0.00  0.00    +0.000 A 
ATOM     16  C   UNL     1       6.013   4.497  17.018  0.00  0.00    +0.000 A 
ATOM     17  C   UNL     1       4.767   3.940  16.723  0.00  0.00    +0.000 A 
ATOM     18  C   UNL     1       3.719   4.049  17.635  0.00  0.00    +0.000 A 
ATOM     19  C   UNL     1       3.916   4.713  18.844  0.00  0.00    +0.000 A 
ATOM     20  C   UNL     1       5.161   5.267  19.142  0.00  0.00    +0.000 A 
ENDBRANCH  14  15
BRANCH  14  21
ATOM     21  N   UNL     1       7.838   5.658  20.021  0.00  0.00    +0.000 NA
ATOM     22  H   UNL     1       7.347   6.456  20.434  0.00  0.00    +0.000 HD
ATOM     23  H   UNL     1       8.825   5.875  20.177  0.00  0.00    +0.000 HD
ENDBRANCH  14  21
ENDBRANCH   1  14
TORSDOF 4
ENDMDL
MODEL 9
REMARK VINA RESULT:      -7.3      4.564      6.902
REMARK  Name = 
REMARK  4 active torsions:
REMARK  status: ('A' for Active; 'I' for Inactive)
REMARK    1  A    between atoms: N_1  and  C_2
REMARK    2  A    between atoms: C_2  and  C_3
REMARK    3  A    between atoms: C_2  and  C_14
REMARK    4  A    between atoms: C_8  and  C_9
REMARK                            x       y       z     vdW  Elec       q    Type
REMARK                         _______ _______ _______ _____ _____    ______ ____
ROOT
ATOM      1  C   UNL     1       7.361   6.797  17.685  0.00  0.00    +0.000 C 
ATOM      2  O   UNL     1       7.734   6.278  18.735  0.00  0.00    +0.000 OA
ATOM      3  N   UNL     1       7.530   8.118  17.302  0.00  0.00    +0.000 N 
ATOM      4  C   UNL     1       8.244   9.055  18.013  0.00  0.00    +0.000 A 
ATOM      5  C   UNL     1       8.402  10.419  17.645  0.00  0.00    +0.000 A 
ATOM      6  C   UNL     1       9.175  10.968  18.641  0.00  0.00    +0.000 A 
ATOM      7  N   UNL     1       9.442   9.953  19.506  0.00  0.00    +0.000 N 
ATOM      8  N   UNL     1       8.905   8.788  19.139  0.00  0.00    +0.000 NA
ATOM      9  H   UNL     1       7.055   8.400  16.452  0.00  0.00    +0.000 HD
ATOM     10  H   UNL     1       9.980   9.984  20.365  0.00  0.00    +0.000 HD
ENDROOT
BRANCH   6  11
ATOM     11  C   UNL     1       9.637  12.406  18.761  0.00  0.00    +0.000 C 
ATOM     12  C   UNL     1      10.912  12.686  19.531  0.00  0.00    +0.000 C 
ATOM     13  C   UNL     1      10.914  12.805  18.047  0.00  0.00    +0.000 C 
ENDBRANCH   6  11
BRANCH   1  14
ATOM     14  C   UNL     1       6.633   5.949  16.609  0.00  0.00    +0.000 C 
BRANCH  14  15
ATOM     15  C   UNL     1       5.246   5.501  17.041  0.00  0.00    +0.000 A 
ATOM     16  C   UNL     1       4.358   6.424  17.615  0.00  0.00    +0.000 A 
ATOM     17  C   UNL     1       3.068   6.038  17.982  0.00  0.00    +0.000 A 
ATOM     18  C   UNL     1       2.646   4.726  17.777  0.00  0.00    +0.000 A 
ATOM     19  C   UNL     1       3.513   3.800  17.201  0.00  0.00    +0.000 A 
ATOM     20  C   UNL     1       4.801   4.184  16.830  0.00  0.00    +0.000 A 
ENDBRANCH  14  15
BRANCH  14  21
ATOM     21  N   UNL     1       7.438   4.759  16.208  0.00  0.00    +0.000 NA
ATOM     22  H   UNL     1       7.731   4.925  15.242  0.00  0.00    +0.000 HD
ATOM     23  H   UNL     1       6.791   3.971  16.132  0.00  0.00    +0.000 HD
ENDBRANCH  14  21
ENDBRANCH   1  14
TORSDOF 4
ENDMDL
