MODEL 1
REMARK VINA RESULT:      -6.3      0.000      0.000
REMARK  Name = 
REMARK  7 active torsions:
REMARK  status: ('A' for Active; 'I' for Inactive)
REMARK    1  A    between atoms: C_1  and  C_2
REMARK    2  A    between atoms: C_2  and  C_3
REMARK    3  A    between atoms: C_3  and  N_4
REMARK    4  A    between atoms: C_11  and  C_12
REMARK    5  A    between atoms: C_12  and  C_13
REMARK    6  A    between atoms: C_13  and  C_14
REMARK    7  A    between atoms: N_17  and  C_18
REMARK                            x       y       z     vdW  Elec       q    Type
REMARK                         _______ _______ _______ _____ _____    ______ ____
ROOT
ATOM      1  N   UNL     1       3.158   4.416  19.480  0.00  0.00    +0.000 N 
ATOM      2  C   UNL     1       3.085   5.732  18.968  0.00  0.00    +0.000 A 
ATOM      3  C   UNL     1       2.042   6.628  19.143  0.00  0.00    +0.000 A 
ATOM      4  C   UNL     1       2.072   7.847  18.462  0.00  0.00    +0.000 A 
ATOM      5  C   UNL     1       3.138   8.161  17.606  0.00  0.00    +0.000 A 
ATOM      6  C   UNL     1       4.199   7.270  17.447  0.00  0.00    +0.000 A 
ATOM      7  C   UNL     1       4.163   6.066  18.140  0.00  0.00    +0.000 A 
ATOM      8  C   UNL     1       5.199   4.977  18.225  0.00  0.00    +0.000 C 
ATOM      9  C   UNL     1       5.796   4.477  16.916  0.00  0.00    +0.000 C 
ATOM     10  C   UNL     1       4.791   3.497  16.344  0.00  0.00    +0.000 C 
ATOM     11  N   UNL     1       3.973   3.032  17.455  0.00  0.00    +0.000 NA
ATOM     12  C   UNL     1       2.582   2.790  17.111  0.00  0.00    +0.000 C 
ATOM     13  C   UNL     1       4.253   3.811  18.676  0.00  0.00    +0.000 C 
ENDROOT
BRANCH   1  14
ATOM     14  C   UNL     1       3.264   4.291  20.942  0.00  0.00    +0.000 C 
BRANCH  14  16
ATOM     15  C   UNL     1       1.091   3.023  20.534  0.00  0.00    +0.000 C 
ATOM     16  C   UNL     1       2.052   3.594  21.567  0.00  0.00    +0.000 C 
ENDBRANCH  14  16
ENDBRANCH   1  14
BRANCH   8  17
ATOM     17  C   UNL     1       6.299   5.319  19.271  0.00  0.00    +0.000 C 
BRANCH  17  18
ATOM     18  C   UNL     1       7.686   5.592  18.652  0.00  0.00    +0.000 C 
ATOM     19  C   UNL     1       7.889   7.063  18.300  0.00  0.00    +0.000 C 
ENDBRANCH  17  18
ENDBRANCH   8  17
TORSDOF 4
ENDMDL
MODEL 2
REMARK VINA RESULT:      -6.2      1.511      4.900
REMARK  Name = 
REMARK  7 active torsions:
REMARK  status: ('A' for Active; 'I' for Inactive)
REMARK    1  A    between atoms: C_1  and  C_2
REMARK    2  A    between atoms: C_2  and  C_3
REMARK    3  A    between atoms: C_3  and  N_4
REMARK    4  A    between atoms: C_11  and  C_12
REMARK    5  A    between atoms: C_12  and  C_13
REMARK    6  A    between atoms: C_13  and  C_14
REMARK    7  A    between atoms: N_17  and  C_18
REMARK                            x       y       z     vdW  Elec       q    Type
REMARK                         _______ _______ _______ _____ _____    ______ ____
ROOT
ATOM      1  N   UNL     1       5.020   4.061  16.386  0.00  0.00    +0.000 N 
ATOM      2  C   UNL     1       5.956   4.581  17.310  0.00  0.00    +0.000 A 
ATOM      3  C   UNL     1       7.331   4.411  17.275  0.00  0.00    +0.000 A 
ATOM      4  C   UNL     1       8.102   4.887  18.339  0.00  0.00    +0.000 A 
ATOM      5  C   UNL     1       7.495   5.522  19.432  0.00  0.00    +0.000 A 
ATOM      6  C   UNL     1       6.113   5.713  19.458  0.00  0.00    +0.000 A 
ATOM      7  C   UNL     1       5.360   5.247  18.388  0.00  0.00    +0.000 A 
ATOM      8  C   UNL     1       3.886   5.396  18.115  0.00  0.00    +0.000 C 
ATOM      9  C   UNL     1       2.928   5.049  19.247  0.00  0.00    +0.000 C 
ATOM     10  C   UNL     1       2.792   3.540  19.235  0.00  0.00    +0.000 C 
ATOM     11  N   UNL     1       3.162   3.092  17.900  0.00  0.00    +0.000 NA
ATOM     12  C   UNL     1       3.857   1.817  17.869  0.00  0.00    +0.000 C 
ATOM     13  C   UNL     1       3.729   4.202  17.111  0.00  0.00    +0.000 C 
ENDROOT
BRANCH   1  14
ATOM     14  C   UNL     1       5.077   4.610  15.023  0.00  0.00    +0.000 C 
BRANCH  14  16
ATOM     15  C   UNL     1       5.652   3.561  12.772  0.00  0.00    +0.000 C 
ATOM     16  C   UNL     1       6.150   3.942  14.159  0.00  0.00    +0.000 C 
ENDBRANCH  14  16
ENDBRANCH   1  14
BRANCH   8  17
ATOM     17  C   UNL     1       3.563   6.781  17.484  0.00  0.00    +0.000 C 
BRANCH  17  18
ATOM     18  C   UNL     1       2.314   7.463  18.081  0.00  0.00    +0.000 C 
ATOM     19  C   UNL     1       2.265   8.958  17.779  0.00  0.00    +0.000 C 
ENDBRANCH  17  18
ENDBRANCH   8  17
TORSDOF 4
ENDMDL
MODEL 3
REMARK VINA RESULT:      -6.2      1.639      4.666
REMARK  Name = 
REMARK  7 active torsions:
REMARK  status: ('A' for Active; 'I' for Inactive)
REMARK    1  A    between atoms: C_1  and  C_2
REMARK    2  A    between atoms: C_2  and  C_3
REMARK    3  A    between atoms: C_3  and  N_4
REMARK    4  A    between atoms: C_11  and  C_12
REMARK    5  A    between atoms: C_12  and  C_13
REMARK    6  A    between atoms: C_13  and  C_14
REMARK    7  A    between atoms: N_17  and  C_18
REMARK                            x       y       z     vdW  Elec       q    Type
REMARK                         _______ _______ _______ _____ _____    ______ ____
ROOT
ATOM      1  N   UNL     1       5.311   5.652  16.640  0.00  0.00    +0.000 N 
ATOM      2  C   UNL     1       4.232   6.330  17.253  0.00  0.00    +0.000 A 
ATOM      3  C   UNL     1       3.879   7.657  17.064  0.00  0.00    +0.000 A 
ATOM      4  C   UNL     1       2.859   8.207  17.846  0.00  0.00    +0.000 A 
ATOM      5  C   UNL     1       2.206   7.432  18.815  0.00  0.00    +0.000 A 
ATOM      6  C   UNL     1       2.546   6.091  18.990  0.00  0.00    +0.000 A 
ATOM      7  C   UNL     1       3.552   5.553  18.198  0.00  0.00    +0.000 A 
ATOM      8  C   UNL     1       4.052   4.135  18.113  0.00  0.00    +0.000 C 
ATOM      9  C   UNL     1       4.382   3.430  19.422  0.00  0.00    +0.000 C 
ATOM     10  C   UNL     1       5.764   3.909  19.819  0.00  0.00    +0.000 C 
ATOM     11  N   UNL     1       6.413   4.384  18.606  0.00  0.00    +0.000 NA
ATOM     12  C   UNL     1       7.284   5.530  18.804  0.00  0.00    +0.000 C 
ATOM     13  C   UNL     1       5.456   4.436  17.484  0.00  0.00    +0.000 C 
ENDROOT
BRANCH   1  14
ATOM     14  C   UNL     1       5.207   5.442  15.188  0.00  0.00    +0.000 C 
BRANCH  14  16
ATOM     15  C   UNL     1       5.953   3.746  13.437  0.00  0.00    +0.000 C 
ATOM     16  C   UNL     1       6.360   4.604  14.626  0.00  0.00    +0.000 C 
ENDBRANCH  14  16
ENDBRANCH   1  14
BRANCH   8  17
ATOM     17  C   UNL     1       3.140   3.265  17.200  0.00  0.00    +0.000 C 
BRANCH  17  18
ATOM     18  C   UNL     1       2.408   2.131  17.948  0.00  0.00    +0.000 C 
ATOM     19  C   UNL     1       1.093   2.595  18.569  0.00  0.00    +0.000 C 
ENDBRANCH  17  18
ENDBRANCH   8  17
TORSDOF 4
ENDMDL
MODEL 4
REMARK VINA RESULT:      -5.9      1.926      4.393
REMARK  Name = 
REMARK  7 active torsions:
REMARK  status: ('A' for Active; 'I' for Inactive)
REMARK    1  A    between atoms: C_1  and  C_2
REMARK    2  A    between atoms: C_2  and  C_3
REMARK    3  A    between atoms: C_3  and  N_4
REMARK    4  A    between atoms: C_11  and  C_12
REMARK    5  A    between atoms: C_12  and  C_13
REMARK    6  A    between atoms: C_13  and  C_14
REMARK    7  A    between atoms: N_17  and  C_18
REMARK                            x       y       z     vdW  Elec       q    Type
REMARK                         _______ _______ _______ _____ _____    ______ ____
ROOT
ATOM      1  N   UNL     1       4.512   6.293  17.881  0.00  0.00    +0.000 N 
ATOM      2  C   UNL     1       3.887   5.026  17.827  0.00  0.00    +0.000 A 
ATOM      3  C   UNL     1       2.753   4.636  18.522  0.00  0.00    +0.000 A 
ATOM      4  C   UNL     1       2.337   3.304  18.454  0.00  0.00    +0.000 A 
ATOM      5  C   UNL     1       3.061   2.369  17.699  0.00  0.00    +0.000 A 
ATOM      6  C   UNL     1       4.191   2.765  16.982  0.00  0.00    +0.000 A 
ATOM      7  C   UNL     1       4.585   4.095  17.049  0.00  0.00    +0.000 A 
ATOM      8  C   UNL     1       5.693   4.805  16.316  0.00  0.00    +0.000 C 
ATOM      9  C   UNL     1       7.068   4.151  16.327  0.00  0.00    +0.000 C 
ATOM     10  C   UNL     1       7.696   4.514  17.658  0.00  0.00    +0.000 C 
ATOM     11  N   UNL     1       7.019   5.713  18.132  0.00  0.00    +0.000 NA
ATOM     12  C   UNL     1       6.846   5.769  19.574  0.00  0.00    +0.000 C 
ATOM     13  C   UNL     1       5.849   6.025  17.288  0.00  0.00    +0.000 C 
ENDROOT
BRANCH   1  14
ATOM     14  C   UNL     1       3.752   7.418  17.316  0.00  0.00    +0.000 C 
BRANCH  14  16
ATOM     15  C   UNL     1       2.050   9.245  17.828  0.00  0.00    +0.000 C 
ATOM     16  C   UNL     1       2.631   7.901  18.241  0.00  0.00    +0.000 C 
ENDBRANCH  14  16
ENDBRANCH   1  14
BRANCH   8  17
ATOM     17  C   UNL     1       5.255   5.212  14.880  0.00  0.00    +0.000 C 
BRANCH  17  18
ATOM     18  C   UNL     1       6.154   4.635  13.766  0.00  0.00    +0.000 C 
ATOM     19  C   UNL     1       5.422   3.620  12.892  0.00  0.00    +0.000 C 
ENDBRANCH  17  18
ENDBRANCH   8  17
TORSDOF 4
ENDMDL
MODEL 5
REMARK VINA RESULT:      -5.9      1.503      3.662
REMARK  Name = 
REMARK  7 active torsions:
REMARK  status: ('A' for Active; 'I' for Inactive)
REMARK    1  A    between atoms: C_1  and  C_2
REMARK    2  A    between atoms: C_2  and  C_3
REMARK    3  A    between atoms: C_3  and  N_4
REMARK    4  A    between atoms: C_11  and  C_12
REMARK    5  A    between atoms: C_12  and  C_13
REMARK    6  A    between atoms: C_13  and  C_14
REMARK    7  A    between atoms: N_17  and  C_18
REMARK                            x       y       z     vdW  Elec       q    Type
REMARK                         _______ _______ _______ _____ _____    ______ ____
ROOT
ATOM      1  N   UNL     1       3.758   6.036  17.365  0.00  0.00    +0.000 N 
ATOM      2  C   UNL     1       4.797   5.543  16.542  0.00  0.00    +0.000 A 
ATOM      3  C   UNL     1       4.987   5.825  15.198  0.00  0.00    +0.000 A 
ATOM      4  C   UNL     1       5.993   5.153  14.498  0.00  0.00    +0.000 A 
ATOM      5  C   UNL     1       6.795   4.200  15.142  0.00  0.00    +0.000 A 
ATOM      6  C   UNL     1       6.619   3.932  16.500  0.00  0.00    +0.000 A 
ATOM      7  C   UNL     1       5.624   4.616  17.187  0.00  0.00    +0.000 A 
ATOM      8  C   UNL     1       5.279   4.592  18.652  0.00  0.00    +0.000 C 
ATOM      9  C   UNL     1       5.123   3.227  19.310  0.00  0.00    +0.000 C 
ATOM     10  C   UNL     1       3.728   2.749  18.959  0.00  0.00    +0.000 C 
ATOM     11  N   UNL     1       2.946   3.931  18.627  0.00  0.00    +0.000 NA
ATOM     12  C   UNL     1       1.971   3.723  17.571  0.00  0.00    +0.000 C 
ATOM     13  C   UNL     1       3.809   5.125  18.539  0.00  0.00    +0.000 C 
ENDROOT
BRANCH   1  14
ATOM     14  C   UNL     1       3.780   7.480  17.647  0.00  0.00    +0.000 C 
BRANCH  14  16
ATOM     15  C   UNL     1       1.727   8.985  17.766  0.00  0.00    +0.000 C 
ATOM     16  C   UNL     1       2.578   7.941  18.475  0.00  0.00    +0.000 C 
ENDBRANCH  14  16
ENDBRANCH   1  14
BRANCH   8  17
ATOM     17  C   UNL     1       6.214   5.528  19.471  0.00  0.00    +0.000 C 
BRANCH  17  18
ATOM     18  C   UNL     1       7.632   5.668  18.879  0.00  0.00    +0.000 C 
ATOM     19  C   UNL     1       7.871   7.040  18.253  0.00  0.00    +0.000 C 
ENDBRANCH  17  18
ENDBRANCH   8  17
TORSDOF 4
ENDMDL
MODEL 6
REMARK VINA RESULT:      -5.8      1.914      4.664
REMARK  Name = 
REMARK  7 active torsions:
REMARK  status: ('A' for Active; 'I' for Inactive)
REMARK    1  A    between atoms: C_1  and  C_2
REMARK    2  A    between atoms: C_2  and  C_3
REMARK    3  A    between atoms: C_3  and  N_4
REMARK    4  A    between atoms: C_11  and  C_12
REMARK    5  A    between atoms: C_12  and  C_13
REMARK    6  A    between atoms: C_13  and  C_14
REMARK    7  A    between atoms: N_17  and  C_18
REMARK                            x       y       z     vdW  Elec       q    Type
REMARK                         _______ _______ _______ _____ _____    ______ ____
ROOT
ATOM      1  N   UNL     1       5.547   6.372  16.414  0.00  0.00    +0.000 N 
ATOM      2  C   UNL     1       4.410   6.715  17.181  0.00  0.00    +0.000 A 
ATOM      3  C   UNL     1       3.560   7.788  16.961  0.00  0.00    +0.000 A 
ATOM      4  C   UNL     1       2.553   8.059  17.891  0.00  0.00    +0.000 A 
ATOM      5  C   UNL     1       2.406   7.264  19.036  0.00  0.00    +0.000 A 
ATOM      6  C   UNL     1       3.247   6.171  19.248  0.00  0.00    +0.000 A 
ATOM      7  C   UNL     1       4.236   5.904  18.309  0.00  0.00    +0.000 A 
ATOM      8  C   UNL     1       5.208   4.756  18.239  0.00  0.00    +0.000 C 
ATOM      9  C   UNL     1       5.988   4.424  19.503  0.00  0.00    +0.000 C 
ATOM     10  C   UNL     1       7.137   5.411  19.560  0.00  0.00    +0.000 C 
ATOM     11  N   UNL     1       7.351   5.890  18.202  0.00  0.00    +0.000 NA
ATOM     12  C   UNL     1       7.750   7.285  18.117  0.00  0.00    +0.000 C 
ATOM     13  C   UNL     1       6.273   5.430  17.306  0.00  0.00    +0.000 C 
ENDROOT
BRANCH   1  14
ATOM     14  C   UNL     1       5.291   5.917  15.038  0.00  0.00    +0.000 C 
BRANCH  14  16
ATOM     15  C   UNL     1       5.785   3.868  13.606  0.00  0.00    +0.000 C 
ATOM     16  C   UNL     1       6.351   4.935  14.532  0.00  0.00    +0.000 C 
ENDBRANCH  14  16
ENDBRANCH   1  14
BRANCH   8  17
ATOM     17  C   UNL     1       4.550   3.493  17.613  0.00  0.00    +0.000 C 
BRANCH  17  18
ATOM     18  C   UNL     1       3.807   2.605  18.634  0.00  0.00    +0.000 C 
ATOM     19  C   UNL     1       2.334   2.416  18.281  0.00  0.00    +0.000 C 
ENDBRANCH  17  18
ENDBRANCH   8  17
TORSDOF 4
ENDMDL
MODEL 7
REMARK VINA RESULT:      -5.7      1.575      3.802
REMARK  Name = 
REMARK  7 active torsions:
REMARK  status: ('A' for Active; 'I' for Inactive)
REMARK    1  A    between atoms: C_1  and  C_2
REMARK    2  A    between atoms: C_2  and  C_3
REMARK    3  A    between atoms: C_3  and  N_4
REMARK    4  A    between atoms: C_11  and  C_12
REMARK    5  A    between atoms: C_12  and  C_13
REMARK    6  A    between atoms: C_13  and  C_14
REMARK    7  A    between atoms: N_17  and  C_18
REMARK                            x       y       z     vdW  Elec       q    Type
REMARK                         _______ _______ _______ _____ _____    ______ ____
ROOT
ATOM      1  N   UNL     1       4.474   4.569  18.714  0.00  0.00    +0.000 N 
ATOM      2  C   UNL     1       5.743   5.195  18.694  0.00  0.00    +0.000 A 
ATOM      3  C   UNL     1       6.769   5.007  19.606  0.00  0.00    +0.000 A 
ATOM      4  C   UNL     1       7.916   5.801  19.512  0.00  0.00    +0.000 A 
ATOM      5  C   UNL     1       8.026   6.779  18.514  0.00  0.00    +0.000 A 
ATOM      6  C   UNL     1       7.003   6.954  17.582  0.00  0.00    +0.000 A 
ATOM      7  C   UNL     1       5.874   6.150  17.678  0.00  0.00    +0.000 A 
ATOM      8  C   UNL     1       4.678   6.061  16.768  0.00  0.00    +0.000 C 
ATOM      9  C   UNL     1       4.003   7.368  16.373  0.00  0.00    +0.000 C 
ATOM     10  C   UNL     1       3.107   7.746  17.536  0.00  0.00    +0.000 C 
ATOM     11  N   UNL     1       2.838   6.523  18.279  0.00  0.00    +0.000 NA
ATOM     12  C   UNL     1       2.739   6.708  19.716  0.00  0.00    +0.000 C 
ATOM     13  C   UNL     1       3.677   5.413  17.786  0.00  0.00    +0.000 C 
ENDROOT
BRANCH   1  14
ATOM     14  C   UNL     1       4.459   3.119  18.469  0.00  0.00    +0.000 C 
BRANCH  14  16
ATOM     15  C   UNL     1       2.110   2.135  18.543  0.00  0.00    +0.000 C 
ATOM     16  C   UNL     1       3.236   2.666  17.668  0.00  0.00    +0.000 C 
ENDBRANCH  14  16
ENDBRANCH   1  14
BRANCH   8  17
ATOM     17  C   UNL     1       4.970   5.162  15.532  0.00  0.00    +0.000 C 
BRANCH  17  18
ATOM     18  C   UNL     1       6.428   4.661  15.455  0.00  0.00    +0.000 C 
ATOM     19  C   UNL     1       7.009   4.768  14.047  0.00  0.00    +0.000 C 
ENDBRANCH  17  18
ENDBRANCH   8  17
TORSDOF 4
ENDMDL
MODEL 8
REMARK VINA RESULT:      -5.7      2.102      4.285
REMARK  Name = 
REMARK  7 active torsions:
REMARK  status: ('A' for Active; 'I' for Inactive)
REMARK    1  A    between atoms: C_1  and  C_2
REMARK    2  A    between atoms: C_2  and  C_3
REMARK    3  A    between atoms: C_3  and  N_4
REMARK    4  A    between atoms: C_11  and  C_12
REMARK    5  A    between atoms: C_12  and  C_13
REMARK    6  A    between atoms: C_13  and  C_14
REMARK    7  A    between atoms: N_17  and  C_18
REMARK                            x       y       z     vdW  Elec       q    Type
REMARK                         _______ _______ _______ _____ _____    ______ ____
ROOT
ATOM      1  N   UNL     1       4.517   6.129  17.359  0.00  0.00    +0.000 N 
ATOM      2  C   UNL     1       5.280   5.584  16.300  0.00  0.00    +0.000 A 
ATOM      3  C   UNL     1       4.786   4.968  15.160  0.00  0.00    +0.000 A 
ATOM      4  C   UNL     1       5.680   4.369  14.269  0.00  0.00    +0.000 A 
ATOM      5  C   UNL     1       7.058   4.382  14.525  0.00  0.00    +0.000 A 
ATOM      6  C   UNL     1       7.558   5.021  15.660  0.00  0.00    +0.000 A 
ATOM      7  C   UNL     1       6.660   5.624  16.531  0.00  0.00    +0.000 A 
ATOM      8  C   UNL     1       6.924   6.448  17.763  0.00  0.00    +0.000 C 
ATOM      9  C   UNL     1       7.899   5.881  18.787  0.00  0.00    +0.000 C 
ATOM     10  C   UNL     1       7.111   4.880  19.608  0.00  0.00    +0.000 C 
ATOM     11  N   UNL     1       5.706   5.234  19.472  0.00  0.00    +0.000 NA
ATOM     12  C   UNL     1       4.804   4.095  19.448  0.00  0.00    +0.000 C 
ATOM     13  C   UNL     1       5.522   6.276  18.445  0.00  0.00    +0.000 C 
ENDROOT
BRANCH   1  14
ATOM     14  C   UNL     1       3.713   7.318  17.036  0.00  0.00    +0.000 C 
BRANCH  14  16
ATOM     15  C   UNL     1       1.908   8.929  17.839  0.00  0.00    +0.000 C 
ATOM     16  C   UNL     1       2.696   7.659  18.129  0.00  0.00    +0.000 C 
ENDBRANCH  14  16
ENDBRANCH   1  14
BRANCH   8  17
ATOM     17  C   UNL     1       7.257   7.924  17.399  0.00  0.00    +0.000 C 
BRANCH  17  18
ATOM     18  C   UNL     1       8.399   8.532  18.240  0.00  0.00    +0.000 C 
ATOM     19  C   UNL     1       8.525  10.041  18.049  0.00  0.00    +0.000 C 
ENDBRANCH  17  18
ENDBRANCH   8  17
TORSDOF 4
ENDMDL
MODEL 9
REMARK VINA RESULT:      -5.6      1.842      5.073
REMARK  Name = 
REMARK  7 active torsions:
REMARK  status: ('A' for Active; 'I' for Inactive)
REMARK    1  A    between atoms: C_1  and  C_2
REMARK    2  A    between atoms: C_2  and  C_3
REMARK    3  A    between atoms: C_3  and  N_4
REMARK    4  A    between atoms: C_11  and  C_12
REMARK    5  A    between atoms: C_12  and  C_13
REMARK    6  A    between atoms: C_13  and  C_14
REMARK    7  A    between atoms: N_17  and  C_18
REMARK                            x       y       z     vdW  Elec       q    Type
REMARK                         _______ _______ _______ _____ _____    ______ ____
ROOT
ATOM      1  N   UNL     1       6.055   6.191  17.926  0.00  0.00    +0.000 N 
ATOM      2  C   UNL     1       6.055   5.365  16.778  0.00  0.00    +0.000 A 
ATOM      3  C   UNL     1       6.902   5.469  15.687  0.00  0.00    +0.000 A 
ATOM      4  C   UNL     1       6.684   4.651  14.575  0.00  0.00    +0.000 A 
ATOM      5  C   UNL     1       5.619   3.739  14.559  0.00  0.00    +0.000 A 
ATOM      6  C   UNL     1       4.779   3.617  15.666  0.00  0.00    +0.000 A 
ATOM      7  C   UNL     1       5.014   4.428  16.769  0.00  0.00    +0.000 A 
ATOM      8  C   UNL     1       4.333   4.443  18.112  0.00  0.00    +0.000 C 
ATOM      9  C   UNL     1       2.810   4.468  18.122  0.00  0.00    +0.000 C 
ATOM     10  C   UNL     1       2.413   5.912  17.887  0.00  0.00    +0.000 C 
ATOM     11  N   UNL     1       3.552   6.733  18.273  0.00  0.00    +0.000 NA
ATOM     12  C   UNL     1       3.736   7.919  17.454  0.00  0.00    +0.000 C 
ATOM     13  C   UNL     1       4.736   5.896  18.544  0.00  0.00    +0.000 C 
ENDROOT
BRANCH   1  14
ATOM     14  C   UNL     1       7.233   6.089  18.801  0.00  0.00    +0.000 C 
BRANCH  14  16
ATOM     15  C   UNL     1       7.688   8.340  17.695  0.00  0.00    +0.000 C 
ATOM     16  C   UNL     1       8.227   7.235  18.593  0.00  0.00    +0.000 C 
ENDBRANCH  14  16
ENDBRANCH   1  14
BRANCH   8  17
ATOM     17  C   UNL     1       4.901   3.340  19.050  0.00  0.00    +0.000 C 
BRANCH  17  18
ATOM     18  C   UNL     1       3.848   2.311  19.513  0.00  0.00    +0.000 C 
ATOM     19  C   UNL     1       3.729   1.127  18.557  0.00  0.00    +0.000 C 
ENDBRANCH  17  18
ENDBRANCH   8  17
TORSDOF 4
ENDMDL
