MODEL 1
REMARK VINA RESULT:      -8.2      0.000      0.000
REMARK  Name = 
REMARK  3 active torsions:
REMARK  status: ('A' for Active; 'I' for Inactive)
REMARK    1  A    between atoms: C_1  and  N_2
REMARK    2  A    between atoms: N_2  and  C_3
REMARK    3  A    between atoms: C_7  and  C_8
REMARK                            x       y       z     vdW  Elec       q    Type
REMARK                         _______ _______ _______ _____ _____    ______ ____
ROOT
ATOM      1  C   UNL     1       4.543   5.917  18.333  0.00  0.00    +0.000 C 
ATOM      2  N   UNL     1       3.572   6.965  18.022  0.00  0.00    +0.000 N 
ATOM      3  C   UNL     1       2.592   7.351  18.972  0.00  0.00    +0.000 A 
ATOM      4  C   UNL     1       2.000   8.622  18.907  0.00  0.00    +0.000 A 
ATOM      5  C   UNL     1       1.076   9.019  19.875  0.00  0.00    +0.000 A 
ATOM      6  C   UNL     1       0.731   8.147  20.910  0.00  0.00    +0.000 A 
ATOM      7  C   UNL     1       1.294   6.869  20.962  0.00  0.00    +0.000 A 
ATOM      8  C   UNL     1       2.231   6.461  19.986  0.00  0.00    +0.000 A 
ATOM      9  C   UNL     1       2.839   5.115  19.996  0.00  0.00    +0.000 C 
ATOM     10  N   UNL     1       2.415   4.253  20.869  0.00  0.00    +0.000 NA
ATOM     11  C   UNL     1       2.911   2.904  21.039  0.00  0.00    +0.000 C 
ATOM     12  C   UNL     1       3.775   2.455  19.873  0.00  0.00    +0.000 C 
ATOM     13  C   UNL     1       4.666   3.577  19.363  0.00  0.00    +0.000 C 
ATOM     14  N   UNL     1       3.903   4.796  19.074  0.00  0.00    +0.000 N 
ATOM     15  H   UNL     1       3.867   7.712  17.376  0.00  0.00    +0.000 HD
ENDROOT
BRANCH   1  22
ATOM     16  C   UNL     1       8.053   5.078  12.849  0.00  0.00    +0.000 C 
ATOM     17  N   UNL     1       6.857   4.411  13.328  0.00  0.00    +0.000 N 
ATOM     18  C   UNL     1       6.088   3.536  12.454  0.00  0.00    +0.000 C 
ATOM     19  C   UNL     1       6.382   4.679  14.639  0.00  0.00    +0.000 A 
ATOM     20  N   UNL     1       6.940   5.689  15.365  0.00  0.00    +0.000 NA
ATOM     21  C   UNL     1       6.416   6.081  16.547  0.00  0.00    +0.000 A 
ATOM     22  C   UNL     1       5.262   5.445  17.057  0.00  0.00    +0.000 A 
ATOM     23  C   UNL     1       4.787   4.337  16.342  0.00  0.00    +0.000 A 
ATOM     24  N   UNL     1       5.328   4.000  15.147  0.00  0.00    +0.000 NA
ENDBRANCH   1  22
TORSDOF 1
ENDMDL
MODEL 2
REMARK VINA RESULT:      -8.0      2.173      6.968
REMARK  Name = 
REMARK  3 active torsions:
REMARK  status: ('A' for Active; 'I' for Inactive)
REMARK    1  A    between atoms: C_1  and  N_2
REMARK    2  A    between atoms: N_2  and  C_3
REMARK    3  A    between atoms: C_7  and  C_8
REMARK                            x       y       z     vdW  Elec       q    Type
REMARK                         _______ _______ _______ _____ _____    ______ ____
ROOT
ATOM      1  C   UNL     1       2.803   6.392  17.829  0.00  0.00    +0.000 C 
ATOM      2  N   UNL     1       4.193   6.726  17.527  0.00  0.00    +0.000 N 
ATOM      3  C   UNL     1       5.023   5.816  16.824  0.00  0.00    +0.000 A 
ATOM      4  C   UNL     1       6.144   6.276  16.115  0.00  0.00    +0.000 A 
ATOM      5  C   UNL     1       6.926   5.384  15.379  0.00  0.00    +0.000 A 
ATOM      6  C   UNL     1       6.599   4.026  15.352  0.00  0.00    +0.000 A 
ATOM      7  C   UNL     1       5.502   3.558  16.081  0.00  0.00    +0.000 A 
ATOM      8  C   UNL     1       4.705   4.456  16.826  0.00  0.00    +0.000 A 
ATOM      9  C   UNL     1       3.547   4.000  17.622  0.00  0.00    +0.000 C 
ATOM     10  N   UNL     1       3.325   2.725  17.716  0.00  0.00    +0.000 NA
ATOM     11  C   UNL     1       2.229   2.105  18.428  0.00  0.00    +0.000 C 
ATOM     12  C   UNL     1       1.514   3.079  19.349  0.00  0.00    +0.000 C 
ATOM     13  C   UNL     1       1.382   4.459  18.722  0.00  0.00    +0.000 C 
ATOM     14  N   UNL     1       2.671   4.967  18.241  0.00  0.00    +0.000 N 
ATOM     15  H   UNL     1       4.426   7.721  17.385  0.00  0.00    +0.000 HD
ENDROOT
BRANCH   1  22
ATOM     16  C   UNL     1       0.079   9.490  22.936  0.00  0.00    +0.000 C 
ATOM     17  N   UNL     1       0.188   9.866  21.540  0.00  0.00    +0.000 N 
ATOM     18  C   UNL     1      -0.567  10.992  21.007  0.00  0.00    +0.000 C 
ATOM     19  C   UNL     1       0.974   9.076  20.659  0.00  0.00    +0.000 A 
ATOM     20  N   UNL     1       1.467   7.879  21.086  0.00  0.00    +0.000 NA
ATOM     21  C   UNL     1       2.081   7.026  20.237  0.00  0.00    +0.000 A 
ATOM     22  C   UNL     1       2.223   7.363  18.873  0.00  0.00    +0.000 A 
ATOM     23  C   UNL     1       1.810   8.648  18.496  0.00  0.00    +0.000 A 
ATOM     24  N   UNL     1       1.173   9.456  19.376  0.00  0.00    +0.000 NA
ENDBRANCH   1  22
TORSDOF 1
ENDMDL
MODEL 3
REMARK VINA RESULT:      -7.8      2.347      7.048
REMARK  Name = 
REMARK  3 active torsions:
REMARK  status: ('A' for Active; 'I' for Inactive)
REMARK    1  A    between atoms: C_1  and  N_2
REMARK    2  A    between atoms: N_2  and  C_3
REMARK    3  A    between atoms: C_7  and  C_8
REMARK                            x       y       z     vdW  Elec       q    Type
REMARK                         _______ _______ _______ _____ _____    ______ ____
ROOT
ATOM      1  C   UNL     1       2.371   6.602  18.522  0.00  0.00    +0.000 C 
ATOM      2  N   UNL     1       3.539   7.025  17.751  0.00  0.00    +0.000 N 
ATOM      3  C   UNL     1       4.403   6.069  17.159  0.00  0.00    +0.000 A 
ATOM      4  C   UNL     1       5.200   6.415  16.057  0.00  0.00    +0.000 A 
ATOM      5  C   UNL     1       6.008   5.457  15.443  0.00  0.00    +0.000 A 
ATOM      6  C   UNL     1       6.032   4.148  15.930  0.00  0.00    +0.000 A 
ATOM      7  C   UNL     1       5.264   3.805  17.046  0.00  0.00    +0.000 A 
ATOM      8  C   UNL     1       4.443   4.770  17.672  0.00  0.00    +0.000 A 
ATOM      9  C   UNL     1       3.628   4.453  18.862  0.00  0.00    +0.000 C 
ATOM     10  N   UNL     1       3.757   3.280  19.404  0.00  0.00    +0.000 NA
ATOM     11  C   UNL     1       3.024   2.792  20.552  0.00  0.00    +0.000 C 
ATOM     12  C   UNL     1       2.297   3.904  21.290  0.00  0.00    +0.000 C 
ATOM     13  C   UNL     1       1.698   4.922  20.332  0.00  0.00    +0.000 C 
ATOM     14  N   UNL     1       2.689   5.423  19.373  0.00  0.00    +0.000 N 
ATOM     15  H   UNL     1       3.481   7.924  17.250  0.00  0.00    +0.000 HD
ENDROOT
BRANCH   1  22
ATOM     16  C   UNL     1      -0.471  10.722  22.770  0.00  0.00    +0.000 C 
ATOM     17  N   UNL     1      -0.209  10.848  21.349  0.00  0.00    +0.000 N 
ATOM     18  C   UNL     1      -0.805  11.925  20.571  0.00  0.00    +0.000 C 
ATOM     19  C   UNL     1       0.571   9.862  20.689  0.00  0.00    +0.000 A 
ATOM     20  N   UNL     1       0.910   8.717  21.350  0.00  0.00    +0.000 NA
ATOM     21  C   UNL     1       1.510   7.687  20.714  0.00  0.00    +0.000 A 
ATOM     22  C   UNL     1       1.800   7.778  19.334  0.00  0.00    +0.000 A 
ATOM     23  C   UNL     1       1.544   9.011  18.717  0.00  0.00    +0.000 A 
ATOM     24  N   UNL     1       0.914  10.003  19.388  0.00  0.00    +0.000 NA
ENDBRANCH   1  22
TORSDOF 1
ENDMDL
MODEL 4
REMARK VINA RESULT:      -7.5      2.369      6.995
REMARK  Name = 
REMARK  3 active torsions:
REMARK  status: ('A' for Active; 'I' for Inactive)
REMARK    1  A    between atoms: C_1  and  N_2
REMARK    2  A    between atoms: N_2  and  C_3
REMARK    3  A    between atoms: C_7  and  C_8
REMARK                            x       y       z     vdW  Elec       q    Type
REMARK                         _______ _______ _______ _____ _____    ______ ____
ROOT
ATOM      1  C   UNL     1       2.917   6.672  17.897  0.00  0.00    +0.000 C 
ATOM      2  N   UNL     1       4.333   7.026  17.985  0.00  0.00    +0.000 N 
ATOM      3  C   UNL     1       5.325   6.204  17.392  0.00  0.00    +0.000 A 
ATOM      4  C   UNL     1       6.575   6.737  17.040  0.00  0.00    +0.000 A 
ATOM      5  C   UNL     1       7.528   5.938  16.406  0.00  0.00    +0.000 A 
ATOM      6  C   UNL     1       7.244   4.599  16.128  0.00  0.00    +0.000 A 
ATOM      7  C   UNL     1       6.013   4.055  16.505  0.00  0.00    +0.000 A 
ATOM      8  C   UNL     1       5.042   4.858  17.145  0.00  0.00    +0.000 A 
ATOM      9  C   UNL     1       3.735   4.319  17.573  0.00  0.00    +0.000 C 
ATOM     10  N   UNL     1       3.523   3.044  17.447  0.00  0.00    +0.000 NA
ATOM     11  C   UNL     1       2.299   2.352  17.789  0.00  0.00    +0.000 C 
ATOM     12  C   UNL     1       1.364   3.208  18.626  0.00  0.00    +0.000 C 
ATOM     13  C   UNL     1       1.361   4.658  18.167  0.00  0.00    +0.000 C 
ATOM     14  N   UNL     1       2.718   5.209  18.080  0.00  0.00    +0.000 N 
ATOM     15  H   UNL     1       4.573   8.028  18.032  0.00  0.00    +0.000 HD
ENDROOT
BRANCH   1  22
ATOM     16  C   UNL     1      -0.275  11.211  21.406  0.00  0.00    +0.000 C 
ATOM     17  N   UNL     1       0.265   9.919  21.783  0.00  0.00    +0.000 N 
ATOM     18  C   UNL     1       0.366   9.530  23.184  0.00  0.00    +0.000 C 
ATOM     19  C   UNL     1       0.779   9.053  20.782  0.00  0.00    +0.000 A 
ATOM     20  N   UNL     1       0.930   9.513  19.507  0.00  0.00    +0.000 NA
ATOM     21  C   UNL     1       1.561   8.780  18.563  0.00  0.00    +0.000 A 
ATOM     22  C   UNL     1       2.085   7.508  18.886  0.00  0.00    +0.000 A 
ATOM     23  C   UNL     1       1.808   7.021  20.171  0.00  0.00    +0.000 A 
ATOM     24  N   UNL     1       1.198   7.805  21.091  0.00  0.00    +0.000 NA
ENDBRANCH   1  22
TORSDOF 1
ENDMDL
MODEL 5
REMARK VINA RESULT:      -7.3      2.540      6.852
REMARK  Name = 
REMARK  3 active torsions:
REMARK  status: ('A' for Active; 'I' for Inactive)
REMARK    1  A    between atoms: C_1  and  N_2
REMARK    2  A    between atoms: N_2  and  C_3
REMARK    3  A    between atoms: C_7  and  C_8
REMARK                            x       y       z     vdW  Elec       q    Type
REMARK                         _______ _______ _______ _____ _____    ______ ____
ROOT
ATOM      1  C   UNL     1       2.782   6.878  18.207  0.00  0.00    +0.000 C 
ATOM      2  N   UNL     1       4.118   7.360  17.862  0.00  0.00    +0.000 N 
ATOM      3  C   UNL     1       5.189   6.452  17.662  0.00  0.00    +0.000 A 
ATOM      4  C   UNL     1       6.298   6.819  16.882  0.00  0.00    +0.000 A 
ATOM      5  C   UNL     1       7.323   5.903  16.643  0.00  0.00    +0.000 A 
ATOM      6  C   UNL     1       7.254   4.619  17.186  0.00  0.00    +0.000 A 
ATOM      7  C   UNL     1       6.168   4.259  17.989  0.00  0.00    +0.000 A 
ATOM      8  C   UNL     1       5.125   5.180  18.234  0.00  0.00    +0.000 A 
ATOM      9  C   UNL     1       3.967   4.845  19.088  0.00  0.00    +0.000 C 
ATOM     10  N   UNL     1       3.969   3.706  19.711  0.00  0.00    +0.000 NA
ATOM     11  C   UNL     1       2.913   3.205  20.564  0.00  0.00    +0.000 C 
ATOM     12  C   UNL     1       1.911   4.283  20.938  0.00  0.00    +0.000 C 
ATOM     13  C   UNL     1       1.622   5.217  19.772  0.00  0.00    +0.000 C 
ATOM     14  N   UNL     1       2.853   5.758  19.185  0.00  0.00    +0.000 N 
ATOM     15  H   UNL     1       4.185   8.234  17.318  0.00  0.00    +0.000 HD
ENDROOT
BRANCH   1  22
ATOM     16  C   UNL     1      -0.707  12.347  19.212  0.00  0.00    +0.000 C 
ATOM     17  N   UNL     1      -0.082  11.430  20.145  0.00  0.00    +0.000 N 
ATOM     18  C   UNL     1       0.046  11.768  21.556  0.00  0.00    +0.000 C 
ATOM     19  C   UNL     1       0.489  10.221  19.665  0.00  0.00    +0.000 A 
ATOM     20  N   UNL     1       0.608  10.019  18.321  0.00  0.00    +0.000 NA
ATOM     21  C   UNL     1       1.287   8.962  17.825  0.00  0.00    +0.000 A 
ATOM     22  C   UNL     1       1.896   8.035  18.700  0.00  0.00    +0.000 A 
ATOM     23  C   UNL     1       1.652   8.210  20.070  0.00  0.00    +0.000 A 
ATOM     24  N   UNL     1       0.991   9.302  20.521  0.00  0.00    +0.000 NA
ENDBRANCH   1  22
TORSDOF 1
ENDMDL
MODEL 6
REMARK VINA RESULT:      -7.2      0.592      1.352
REMARK  Name = 
REMARK  3 active torsions:
REMARK  status: ('A' for Active; 'I' for Inactive)
REMARK    1  A    between atoms: C_1  and  N_2
REMARK    2  A    between atoms: N_2  and  C_3
REMARK    3  A    between atoms: C_7  and  C_8
REMARK                            x       y       z     vdW  Elec       q    Type
REMARK                         _______ _______ _______ _____ _____    ______ ____
ROOT
ATOM      1  C   UNL     1       4.031   6.190  18.350  0.00  0.00    +0.000 C 
ATOM      2  N   UNL     1       3.055   7.262  18.161  0.00  0.00    +0.000 N 
ATOM      3  C   UNL     1       2.183   7.644  19.212  0.00  0.00    +0.000 A 
ATOM      4  C   UNL     1       1.613   8.927  19.235  0.00  0.00    +0.000 A 
ATOM      5  C   UNL     1       0.799   9.317  20.300  0.00  0.00    +0.000 A 
ATOM      6  C   UNL     1       0.541   8.427  21.344  0.00  0.00    +0.000 A 
ATOM      7  C   UNL     1       1.081   7.138  21.312  0.00  0.00    +0.000 A 
ATOM      8  C   UNL     1       1.907   6.737  20.238  0.00  0.00    +0.000 A 
ATOM      9  C   UNL     1       2.485   5.379  20.158  0.00  0.00    +0.000 C 
ATOM     10  N   UNL     1       2.132   4.505  21.050  0.00  0.00    +0.000 NA
ATOM     11  C   UNL     1       2.615   3.143  21.139  0.00  0.00    +0.000 C 
ATOM     12  C   UNL     1       3.349   2.707  19.883  0.00  0.00    +0.000 C 
ATOM     13  C   UNL     1       4.208   3.824  19.311  0.00  0.00    +0.000 C 
ATOM     14  N   UNL     1       3.445   5.063  19.127  0.00  0.00    +0.000 N 
ATOM     15  H   UNL     1       3.299   8.020  17.505  0.00  0.00    +0.000 HD
ENDROOT
BRANCH   1  22
ATOM     16  C   UNL     1       6.243   3.093  13.001  0.00  0.00    +0.000 C 
ATOM     17  N   UNL     1       6.603   4.373  13.580  0.00  0.00    +0.000 N 
ATOM     18  C   UNL     1       7.778   5.100  13.117  0.00  0.00    +0.000 C 
ATOM     19  C   UNL     1       5.851   4.888  14.669  0.00  0.00    +0.000 A 
ATOM     20  N   UNL     1       4.921   4.098  15.278  0.00  0.00    +0.000 NA
ATOM     21  C   UNL     1       4.300   4.487  16.413  0.00  0.00    +0.000 A 
ATOM     22  C   UNL     1       4.609   5.736  16.999  0.00  0.00    +0.000 A 
ATOM     23  C   UNL     1       5.482   6.567  16.282  0.00  0.00    +0.000 A 
ATOM     24  N   UNL     1       6.102   6.121  15.165  0.00  0.00    +0.000 NA
ENDBRANCH   1  22
TORSDOF 1
ENDMDL
MODEL 7
REMARK VINA RESULT:      -7.2      2.461      6.941
REMARK  Name = 
REMARK  3 active torsions:
REMARK  status: ('A' for Active; 'I' for Inactive)
REMARK    1  A    between atoms: C_1  and  N_2
REMARK    2  A    between atoms: N_2  and  C_3
REMARK    3  A    between atoms: C_7  and  C_8
REMARK                            x       y       z     vdW  Elec       q    Type
REMARK                         _______ _______ _______ _____ _____    ______ ____
ROOT
ATOM      1  C   UNL     1       2.816   6.495  19.109  0.00  0.00    +0.000 C 
ATOM      2  N   UNL     1       1.850   5.422  19.340  0.00  0.00    +0.000 N 
ATOM      3  C   UNL     1       2.177   4.075  19.045  0.00  0.00    +0.000 A 
ATOM      4  C   UNL     1       1.504   3.022  19.685  0.00  0.00    +0.000 A 
ATOM      5  C   UNL     1       1.867   1.698  19.433  0.00  0.00    +0.000 A 
ATOM      6  C   UNL     1       2.897   1.415  18.534  0.00  0.00    +0.000 A 
ATOM      7  C   UNL     1       3.550   2.458  17.870  0.00  0.00    +0.000 A 
ATOM      8  C   UNL     1       3.189   3.801  18.122  0.00  0.00    +0.000 A 
ATOM      9  C   UNL     1       3.843   4.931  17.431  0.00  0.00    +0.000 C 
ATOM     10  N   UNL     1       4.699   4.668  16.491  0.00  0.00    +0.000 NA
ATOM     11  C   UNL     1       5.448   5.645  15.731  0.00  0.00    +0.000 C 
ATOM     12  C   UNL     1       4.907   7.053  15.905  0.00  0.00    +0.000 C 
ATOM     13  C   UNL     1       4.470   7.319  17.338  0.00  0.00    +0.000 C 
ATOM     14  N   UNL     1       3.552   6.287  17.832  0.00  0.00    +0.000 N 
ATOM     15  H   UNL     1       1.176   5.545  20.111  0.00  0.00    +0.000 HD
ENDROOT
BRANCH   1  22
ATOM     16  C   UNL     1       0.626  12.645  18.418  0.00  0.00    +0.000 C 
ATOM     17  N   UNL     1       0.689  11.780  19.580  0.00  0.00    +0.000 N 
ATOM     18  C   UNL     1       0.451  12.305  20.918  0.00  0.00    +0.000 C 
ATOM     19  C   UNL     1       1.068  10.420  19.423  0.00  0.00    +0.000 A 
ATOM     20  N   UNL     1       1.546   9.989  18.221  0.00  0.00    +0.000 NA
ATOM     21  C   UNL     1       2.067   8.751  18.072  0.00  0.00    +0.000 A 
ATOM     22  C   UNL     1       2.129   7.870  19.176  0.00  0.00    +0.000 A 
ATOM     23  C   UNL     1       1.524   8.306  20.363  0.00  0.00    +0.000 A 
ATOM     24  N   UNL     1       1.042   9.566  20.472  0.00  0.00    +0.000 NA
ENDBRANCH   1  22
TORSDOF 1
ENDMDL
MODEL 8
REMARK VINA RESULT:      -7.1      2.456      7.009
REMARK  Name = 
REMARK  3 active torsions:
REMARK  status: ('A' for Active; 'I' for Inactive)
REMARK    1  A    between atoms: C_1  and  N_2
REMARK    2  A    between atoms: N_2  and  C_3
REMARK    3  A    between atoms: C_7  and  C_8
REMARK                            x       y       z     vdW  Elec       q    Type
REMARK                         _______ _______ _______ _____ _____    ______ ____
ROOT
ATOM      1  C   UNL     1       2.794   6.463  19.146  0.00  0.00    +0.000 C 
ATOM      2  N   UNL     1       1.863   5.358  19.371  0.00  0.00    +0.000 N 
ATOM      3  C   UNL     1       2.230   4.024  19.060  0.00  0.00    +0.000 A 
ATOM      4  C   UNL     1       1.594   2.944  19.693  0.00  0.00    +0.000 A 
ATOM      5  C   UNL     1       1.996   1.635  19.425  0.00  0.00    +0.000 A 
ATOM      6  C   UNL     1       3.030   1.394  18.517  0.00  0.00    +0.000 A 
ATOM      7  C   UNL     1       3.646   2.463  17.861  0.00  0.00    +0.000 A 
ATOM      8  C   UNL     1       3.245   3.792  18.129  0.00  0.00    +0.000 A 
ATOM      9  C   UNL     1       3.860   4.949  17.447  0.00  0.00    +0.000 C 
ATOM     10  N   UNL     1       4.719   4.723  16.500  0.00  0.00    +0.000 NA
ATOM     11  C   UNL     1       5.433   5.730  15.746  0.00  0.00    +0.000 C 
ATOM     12  C   UNL     1       4.849   7.119  15.938  0.00  0.00    +0.000 C 
ATOM     13  C   UNL     1       4.412   7.356  17.375  0.00  0.00    +0.000 C 
ATOM     14  N   UNL     1       3.529   6.291  17.863  0.00  0.00    +0.000 N 
ATOM     15  H   UNL     1       1.189   5.452  20.146  0.00  0.00    +0.000 HD
ENDROOT
BRANCH   1  22
ATOM     16  C   UNL     1      -0.717  11.810  20.621  0.00  0.00    +0.000 C 
ATOM     17  N   UNL     1      -0.341  11.239  19.342  0.00  0.00    +0.000 N 
ATOM     18  C   UNL     1      -0.946  11.711  18.104  0.00  0.00    +0.000 C 
ATOM     19  C   UNL     1       0.567  10.148  19.301  0.00  0.00    +0.000 A 
ATOM     20  N   UNL     1       0.932   9.531  20.461  0.00  0.00    +0.000 NA
ATOM     21  C   UNL     1       1.663   8.394  20.456  0.00  0.00    +0.000 A 
ATOM     22  C   UNL     1       2.065   7.815  19.231  0.00  0.00    +0.000 A 
ATOM     23  C   UNL     1       1.772   8.539  18.067  0.00  0.00    +0.000 A 
ATOM     24  N   UNL     1       1.011   9.658  18.121  0.00  0.00    +0.000 NA
ENDBRANCH   1  22
TORSDOF 1
ENDMDL
MODEL 9
REMARK VINA RESULT:      -6.9      3.950      6.882
REMARK  Name = 
REMARK  3 active torsions:
REMARK  status: ('A' for Active; 'I' for Inactive)
REMARK    1  A    between atoms: C_1  and  N_2
REMARK    2  A    between atoms: N_2  and  C_3
REMARK    3  A    between atoms: C_7  and  C_8
REMARK                            x       y       z     vdW  Elec       q    Type
REMARK                         _______ _______ _______ _____ _____    ______ ____
ROOT
ATOM      1  C   UNL     1       0.380  10.016  18.244  0.00  0.00    +0.000 C 
ATOM      2  N   UNL     1      -0.675   9.513  17.366  0.00  0.00    +0.000 N 
ATOM      3  C   UNL     1      -1.909  10.200  17.246  0.00  0.00    +0.000 A 
ATOM      4  C   UNL     1      -2.707  10.038  16.101  0.00  0.00    +0.000 A 
ATOM      5  C   UNL     1      -3.894  10.758  15.963  0.00  0.00    +0.000 A 
ATOM      6  C   UNL     1      -4.298  11.638  16.968  0.00  0.00    +0.000 A 
ATOM      7  C   UNL     1      -3.525  11.781  18.124  0.00  0.00    +0.000 A 
ATOM      8  C   UNL     1      -2.320  11.056  18.270  0.00  0.00    +0.000 A 
ATOM      9  C   UNL     1      -1.481  11.166  19.481  0.00  0.00    +0.000 C 
ATOM     10  N   UNL     1      -1.924  11.870  20.477  0.00  0.00    +0.000 NA
ATOM     11  C   UNL     1      -1.229  12.106  21.724  0.00  0.00    +0.000 C 
ATOM     12  C   UNL     1      -0.040  11.178  21.908  0.00  0.00    +0.000 C 
ATOM     13  C   UNL     1       0.710  10.953  20.604  0.00  0.00    +0.000 C 
ATOM     14  N   UNL     1      -0.186  10.529  19.522  0.00  0.00    +0.000 N 
ATOM     15  H   UNL     1      -0.387   8.991  16.525  0.00  0.00    +0.000 HD
ENDROOT
BRANCH   1  22
ATOM     16  C   UNL     1       5.148   5.513  17.951  0.00  0.00    +0.000 C 
ATOM     17  N   UNL     1       4.063   5.693  18.896  0.00  0.00    +0.000 N 
ATOM     18  C   UNL     1       3.738   4.659  19.869  0.00  0.00    +0.000 C 
ATOM     19  C   UNL     1       3.251   6.856  18.819  0.00  0.00    +0.000 A 
ATOM     20  N   UNL     1       3.378   7.698  17.754  0.00  0.00    +0.000 NA
ATOM     21  C   UNL     1       2.521   8.724  17.559  0.00  0.00    +0.000 A 
ATOM     22  C   UNL     1       1.461   8.944  18.467  0.00  0.00    +0.000 A 
ATOM     23  C   UNL     1       1.433   8.132  19.610  0.00  0.00    +0.000 A 
ATOM     24  N   UNL     1       2.295   7.098  19.746  0.00  0.00    +0.000 NA
ENDBRANCH   1  22
TORSDOF 1
ENDMDL
