MODEL 1
REMARK VINA RESULT:      -7.2      0.000      0.000
REMARK  Name = 
REMARK  10 active torsions:
REMARK  status: ('A' for Active; 'I' for Inactive)
REMARK    1  A    between atoms: C_1  and  O_2
REMARK    2  A    between atoms: O_2  and  C_3
REMARK    3  A    between atoms: C_6  and  C_7
REMARK    4  A    between atoms: C_7  and  C_8
REMARK    5  A    between atoms: C_10  and  C_11
REMARK    6  A    between atoms: C_13  and  C_14
REMARK    7  A    between atoms: C_14  and  O_15
REMARK    8  A    between atoms: C_16  and  O_17
REMARK    9  A    between atoms: C_18  and  O_19
REMARK   10  A    between atoms: C_20  and  O_21
REMARK                            x       y       z     vdW  Elec       q    Type
REMARK                         _______ _______ _______ _____ _____    ______ ____
ROOT
ATOM      1  C   UNL     1       4.873   4.621  19.349  0.00  0.00    +0.000 A 
ATOM      2  C   UNL     1       4.314   5.926  19.260  0.00  0.00    +0.000 A 
ATOM      3  C   UNL     1       2.989   6.192  19.637  0.00  0.00    +0.000 A 
ATOM      4  C   UNL     1       2.217   5.073  19.924  0.00  0.00    +0.000 A 
ATOM      5  C   UNL     1       2.815   3.848  20.267  0.00  0.00    +0.000 A 
ATOM      6  C   UNL     1       4.152   3.617  20.013  0.00  0.00    +0.000 A 
ATOM      7 CL   UNL     1       4.841   2.091  20.420  0.00  0.00    +0.000 Cl
ATOM      8  C   UNL     1       1.759   2.903  20.757  0.00  0.00    +0.000 C 
ATOM      9  C   UNL     1       0.650   3.336  19.804  0.00  0.00    +0.000 C 
ATOM     10  C   UNL     1       0.728   4.879  19.800  0.00  0.00    +0.000 C 
ENDROOT
BRANCH   3  11
ATOM     11  C   UNL     1       2.476   7.610  19.893  0.00  0.00    +0.000 C 
ATOM     12  O   UNL     1       1.530   7.601  20.971  0.00  0.00    +0.000 OA
ATOM     13  C   UNL     1       0.996   8.903  21.276  0.00  0.00    +0.000 C 
ATOM     14  C   UNL     1       0.249   9.503  20.081  0.00  0.00    +0.000 C 
ATOM     15  C   UNL     1       1.155   9.519  18.851  0.00  0.00    +0.000 C 
ATOM     16  C   UNL     1       1.795   8.164  18.599  0.00  0.00    +0.000 C 
BRANCH  14  17
ATOM     17  O   UNL     1      -0.150  10.847  20.397  0.00  0.00    +0.000 OA
ATOM     18  H   UNL     1      -0.188  11.350  19.561  0.00  0.00    +0.000 HD
ENDBRANCH  14  17
BRANCH  15  19
ATOM     19  O   UNL     1       0.406   9.970  17.715  0.00  0.00    +0.000 OA
ATOM     20  H   UNL     1      -0.191  10.684  18.004  0.00  0.00    +0.000 HD
ENDBRANCH  15  19
BRANCH  16  21
ATOM     21  O   UNL     1       2.710   8.253  17.495  0.00  0.00    +0.000 OA
ATOM     22  H   UNL     1       3.597   8.011  17.807  0.00  0.00    +0.000 HD
ENDBRANCH  16  21
BRANCH  13  23
ATOM     23  C   UNL     1       0.062   8.768  22.482  0.00  0.00    +0.000 C 
BRANCH  23  24
ATOM     24  O   UNL     1       0.205   9.886  23.363  0.00  0.00    +0.000 OA
ATOM     25  H   UNL     1       1.057   9.746  23.834  0.00  0.00    +0.000 HD
ENDBRANCH  23  24
ENDBRANCH  13  23
ENDBRANCH   3  11
BRANCH   1  26
ATOM     26  C   UNL     1       6.175   4.331  18.636  0.00  0.00    +0.000 C 
BRANCH  26  30
ATOM     27  C   UNL     1       5.839   4.301  14.296  0.00  0.00    +0.000 A 
ATOM     28  C   UNL     1       7.019   4.713  14.915  0.00  0.00    +0.000 A 
ATOM     29  C   UNL     1       7.125   4.736  16.312  0.00  0.00    +0.000 A 
ATOM     30  C   UNL     1       6.046   4.347  17.117  0.00  0.00    +0.000 A 
ATOM     31  C   UNL     1       4.848   3.981  16.484  0.00  0.00    +0.000 A 
ATOM     32  C   UNL     1       4.743   3.960  15.085  0.00  0.00    +0.000 A 
BRANCH  27  34
ATOM     33  C   UNL     1       6.139   3.051  12.310  0.00  0.00    +0.000 C 
ATOM     34  O   UNL     1       5.859   4.303  12.927  0.00  0.00    +0.000 OA
ENDBRANCH  27  34
ENDBRANCH  26  30
ENDBRANCH   1  26
TORSDOF 9
ENDMDL
MODEL 2
REMARK VINA RESULT:      -7.1      1.262      1.695
REMARK  Name = 
REMARK  10 active torsions:
REMARK  status: ('A' for Active; 'I' for Inactive)
REMARK    1  A    between atoms: C_1  and  O_2
REMARK    2  A    between atoms: O_2  and  C_3
REMARK    3  A    between atoms: C_6  and  C_7
REMARK    4  A    between atoms: C_7  and  C_8
REMARK    5  A    between atoms: C_10  and  C_11
REMARK    6  A    between atoms: C_13  and  C_14
REMARK    7  A    between atoms: C_14  and  O_15
REMARK    8  A    between atoms: C_16  and  O_17
REMARK    9  A    between atoms: C_18  and  O_19
REMARK   10  A    between atoms: C_20  and  O_21
REMARK                            x       y       z     vdW  Elec       q    Type
REMARK                         _______ _______ _______ _____ _____    ______ ____
ROOT
ATOM      1  C   UNL     1       3.588   3.811  17.821  0.00  0.00    +0.000 A 
ATOM      2  C   UNL     1       3.181   5.161  18.000  0.00  0.00    +0.000 A 
ATOM      3  C   UNL     1       2.633   5.616  19.209  0.00  0.00    +0.000 A 
ATOM      4  C   UNL     1       2.351   4.627  20.142  0.00  0.00    +0.000 A 
ATOM      5  C   UNL     1       2.980   3.372  20.083  0.00  0.00    +0.000 A 
ATOM      6  C   UNL     1       3.630   2.960  18.936  0.00  0.00    +0.000 A 
ATOM      7 CL   UNL     1       4.364   1.401  18.891  0.00  0.00    +0.000 Cl
ATOM      8  C   UNL     1       2.675   2.606  21.335  0.00  0.00    +0.000 C 
ATOM      9  C   UNL     1       1.240   3.088  21.516  0.00  0.00    +0.000 C 
ATOM     10  C   UNL     1       1.306   4.605  21.228  0.00  0.00    +0.000 C 
ENDROOT
BRANCH   3  11
ATOM     11  C   UNL     1       2.523   7.102  19.554  0.00  0.00    +0.000 C 
ATOM     12  O   UNL     1       1.443   7.313  20.472  0.00  0.00    +0.000 OA
ATOM     13  C   UNL     1       1.271   8.693  20.849  0.00  0.00    +0.000 C 
ATOM     14  C   UNL     1       0.954   9.574  19.636  0.00  0.00    +0.000 C 
ATOM     15  C   UNL     1       2.026   9.393  18.563  0.00  0.00    +0.000 C 
ATOM     16  C   UNL     1       2.273   7.927  18.249  0.00  0.00    +0.000 C 
BRANCH  14  17
ATOM     17  O   UNL     1       0.919  10.951  20.048  0.00  0.00    +0.000 OA
ATOM     18  H   UNL     1       0.784  11.497  19.250  0.00  0.00    +0.000 HD
ENDBRANCH  14  17
BRANCH  15  19
ATOM     19  O   UNL     1       1.654  10.130  17.391  0.00  0.00    +0.000 OA
ATOM     20  H   UNL     1       2.261   9.885  16.669  0.00  0.00    +0.000 HD
ENDBRANCH  15  19
BRANCH  16  21
ATOM     21  O   UNL     1       3.353   7.803  17.309  0.00  0.00    +0.000 OA
ATOM     22  H   UNL     1       3.304   8.543  16.682  0.00  0.00    +0.000 HD
ENDBRANCH  16  21
BRANCH  13  23
ATOM     23  C   UNL     1       0.141   8.771  21.880  0.00  0.00    +0.000 C 
BRANCH  23  24
ATOM     24  O   UNL     1       0.401   9.802  22.839  0.00  0.00    +0.000 OA
ATOM     25  H   UNL     1       1.364   9.989  22.772  0.00  0.00    +0.000 HD
ENDBRANCH  23  24
ENDBRANCH  13  23
ENDBRANCH   3  11
BRANCH   1  26
ATOM     26  C   UNL     1       3.862   3.306  16.421  0.00  0.00    +0.000 C 
BRANCH  26  30
ATOM     27  C   UNL     1       7.350   5.157  14.588  0.00  0.00    +0.000 A 
ATOM     28  C   UNL     1       6.466   4.392  13.826  0.00  0.00    +0.000 A 
ATOM     29  C   UNL     1       5.350   3.785  14.415  0.00  0.00    +0.000 A 
ATOM     30  C   UNL     1       5.098   3.931  15.786  0.00  0.00    +0.000 A 
ATOM     31  C   UNL     1       6.020   4.661  16.553  0.00  0.00    +0.000 A 
ATOM     32  C   UNL     1       7.138   5.268  15.960  0.00  0.00    +0.000 A 
BRANCH  27  34
ATOM     33  C   UNL     1       8.254   5.746  12.483  0.00  0.00    +0.000 C 
ATOM     34  O   UNL     1       8.393   5.715  13.900  0.00  0.00    +0.000 OA
ENDBRANCH  27  34
ENDBRANCH  26  30
ENDBRANCH   1  26
TORSDOF 9
ENDMDL
MODEL 3
REMARK VINA RESULT:      -7.0      2.150      3.003
REMARK  Name = 
REMARK  10 active torsions:
REMARK  status: ('A' for Active; 'I' for Inactive)
REMARK    1  A    between atoms: C_1  and  O_2
REMARK    2  A    between atoms: O_2  and  C_3
REMARK    3  A    between atoms: C_6  and  C_7
REMARK    4  A    between atoms: C_7  and  C_8
REMARK    5  A    between atoms: C_10  and  C_11
REMARK    6  A    between atoms: C_13  and  C_14
REMARK    7  A    between atoms: C_14  and  O_15
REMARK    8  A    between atoms: C_16  and  O_17
REMARK    9  A    between atoms: C_18  and  O_19
REMARK   10  A    between atoms: C_20  and  O_21
REMARK                            x       y       z     vdW  Elec       q    Type
REMARK                         _______ _______ _______ _____ _____    ______ ____
ROOT
ATOM      1  C   UNL     1       4.573   4.664  19.294  0.00  0.00    +0.000 A 
ATOM      2  C   UNL     1       3.971   5.952  19.288  0.00  0.00    +0.000 A 
ATOM      3  C   UNL     1       2.679   6.168  19.791  0.00  0.00    +0.000 A 
ATOM      4  C   UNL     1       1.970   5.021  20.120  0.00  0.00    +0.000 A 
ATOM      5  C   UNL     1       2.631   3.808  20.377  0.00  0.00    +0.000 A 
ATOM      6  C   UNL     1       3.946   3.624  19.996  0.00  0.00    +0.000 A 
ATOM      7 CL   UNL     1       4.713   2.111  20.301  0.00  0.00    +0.000 Cl
ATOM      8  C   UNL     1       1.653   2.820  20.938  0.00  0.00    +0.000 C 
ATOM      9  C   UNL     1       0.449   3.238  20.101  0.00  0.00    +0.000 C 
ATOM     10  C   UNL     1       0.482   4.783  20.127  0.00  0.00    +0.000 C 
ENDROOT
BRANCH   3  11
ATOM     11  C   UNL     1       2.151   7.564  20.128  0.00  0.00    +0.000 C 
ATOM     12  O   UNL     1       1.062   7.465  21.054  0.00  0.00    +0.000 OA
ATOM     13  C   UNL     1       0.505   8.741  21.424  0.00  0.00    +0.000 C 
ATOM     14  C   UNL     1      -0.058   9.486  20.209  0.00  0.00    +0.000 C 
ATOM     15  C   UNL     1       1.014   9.609  19.128  0.00  0.00    +0.000 C 
ATOM     16  C   UNL     1       1.668   8.273  18.820  0.00  0.00    +0.000 C 
BRANCH  14  17
ATOM     17  O   UNL     1      -0.482  10.798  20.612  0.00  0.00    +0.000 OA
ATOM     18  H   UNL     1      -0.101  10.976  21.493  0.00  0.00    +0.000 HD
ENDBRANCH  14  17
BRANCH  15  19
ATOM     19  O   UNL     1       0.440  10.200  17.954  0.00  0.00    +0.000 OA
ATOM     20  H   UNL     1       0.937   9.885  17.178  0.00  0.00    +0.000 HD
ENDBRANCH  15  19
BRANCH  16  21
ATOM     21  O   UNL     1       2.732   8.455  17.872  0.00  0.00    +0.000 OA
ATOM     22  H   UNL     1       2.405   9.002  17.140  0.00  0.00    +0.000 HD
ENDBRANCH  16  21
BRANCH  13  23
ATOM     23  C   UNL     1      -0.593   8.501  22.464  0.00  0.00    +0.000 C 
BRANCH  23  24
ATOM     24  O   UNL     1      -0.588   9.536  23.453  0.00  0.00    +0.000 OA
ATOM     25  H   UNL     1      -1.453   9.995  23.361  0.00  0.00    +0.000 HD
ENDBRANCH  23  24
ENDBRANCH  13  23
ENDBRANCH   3  11
BRANCH   1  26
ATOM     26  C   UNL     1       5.812   4.430  18.458  0.00  0.00    +0.000 C 
BRANCH  26  30
ATOM     27  C   UNL     1       8.128   8.072  17.892  0.00  0.00    +0.000 A 
ATOM     28  C   UNL     1       7.091   7.745  17.018  0.00  0.00    +0.000 A 
ATOM     29  C   UNL     1       6.353   6.567  17.190  0.00  0.00    +0.000 A 
ATOM     30  C   UNL     1       6.642   5.690  18.245  0.00  0.00    +0.000 A 
ATOM     31  C   UNL     1       7.718   6.005  19.088  0.00  0.00    +0.000 A 
ATOM     32  C   UNL     1       8.458   7.185  18.914  0.00  0.00    +0.000 A 
BRANCH  27  34
ATOM     33  C   UNL     1       8.970  10.106  18.758  0.00  0.00    +0.000 C 
ATOM     34  O   UNL     1       8.766   9.256  17.634  0.00  0.00    +0.000 OA
ENDBRANCH  27  34
ENDBRANCH  26  30
ENDBRANCH   1  26
TORSDOF 9
ENDMDL
MODEL 4
REMARK VINA RESULT:      -6.9      5.643      9.029
REMARK  Name = 
REMARK  10 active torsions:
REMARK  status: ('A' for Active; 'I' for Inactive)
REMARK    1  A    between atoms: C_1  and  O_2
REMARK    2  A    between atoms: O_2  and  C_3
REMARK    3  A    between atoms: C_6  and  C_7
REMARK    4  A    between atoms: C_7  and  C_8
REMARK    5  A    between atoms: C_10  and  C_11
REMARK    6  A    between atoms: C_13  and  C_14
REMARK    7  A    between atoms: C_14  and  O_15
REMARK    8  A    between atoms: C_16  and  O_17
REMARK    9  A    between atoms: C_18  and  O_19
REMARK   10  A    between atoms: C_20  and  O_21
REMARK                            x       y       z     vdW  Elec       q    Type
REMARK                         _______ _______ _______ _____ _____    ______ ____
ROOT
ATOM      1  C   UNL     1      -1.562  11.535  19.015  0.00  0.00    +0.000 A 
ATOM      2  C   UNL     1      -2.082  12.239  20.135  0.00  0.00    +0.000 A 
ATOM      3  C   UNL     1      -3.456  12.485  20.283  0.00  0.00    +0.000 A 
ATOM      4  C   UNL     1      -4.239  12.159  19.183  0.00  0.00    +0.000 A 
ATOM      5  C   UNL     1      -3.788  11.245  18.216  0.00  0.00    +0.000 A 
ATOM      6  C   UNL     1      -2.454  10.899  18.138  0.00  0.00    +0.000 A 
ATOM      7 CL   UNL     1      -1.933   9.798  16.918  0.00  0.00    +0.000 Cl
ATOM      8  C   UNL     1      -4.918  10.903  17.293  0.00  0.00    +0.000 C 
ATOM      9  C   UNL     1      -5.567  12.283  17.257  0.00  0.00    +0.000 C 
ATOM     10  C   UNL     1      -5.546  12.755  18.728  0.00  0.00    +0.000 C 
ENDROOT
BRANCH   3  11
ATOM     11  C   UNL     1      -4.077  12.908  21.615  0.00  0.00    +0.000 C 
ATOM     12  O   UNL     1      -5.417  12.408  21.712  0.00  0.00    +0.000 OA
ATOM     13  C   UNL     1      -6.075  12.764  22.942  0.00  0.00    +0.000 C 
ATOM     14  C   UNL     1      -6.193  14.283  23.101  0.00  0.00    +0.000 C 
ATOM     15  C   UNL     1      -4.817  14.932  22.968  0.00  0.00    +0.000 C 
ATOM     16  C   UNL     1      -4.088  14.468  21.718  0.00  0.00    +0.000 C 
BRANCH  14  17
ATOM     17  O   UNL     1      -6.739  14.583  24.396  0.00  0.00    +0.000 OA
ATOM     18  H   UNL     1      -6.863  13.738  24.870  0.00  0.00    +0.000 HD
ENDBRANCH  14  17
BRANCH  15  19
ATOM     19  O   UNL     1      -4.959  16.359  23.000  0.00  0.00    +0.000 OA
ATOM     20  H   UNL     1      -5.181  16.665  22.102  0.00  0.00    +0.000 HD
ENDBRANCH  15  19
BRANCH  16  21
ATOM     21  O   UNL     1      -2.765  15.028  21.687  0.00  0.00    +0.000 OA
ATOM     22  H   UNL     1      -2.555  15.376  22.568  0.00  0.00    +0.000 HD
ENDBRANCH  16  21
BRANCH  13  23
ATOM     23  C   UNL     1      -7.461  12.113  22.950  0.00  0.00    +0.000 C 
BRANCH  23  24
ATOM     24  O   UNL     1      -7.565  11.154  24.008  0.00  0.00    +0.000 OA
ATOM     25  H   UNL     1      -7.511  11.673  24.841  0.00  0.00    +0.000 HD
ENDBRANCH  23  24
ENDBRANCH  13  23
ENDBRANCH   3  11
BRANCH   1  26
ATOM     26  C   UNL     1      -0.074  11.583  18.746  0.00  0.00    +0.000 C 
BRANCH  26  30
ATOM     27  C   UNL     1       2.012   7.856  19.586  0.00  0.00    +0.000 A 
ATOM     28  C   UNL     1       2.089   8.446  18.325  0.00  0.00    +0.000 A 
ATOM     29  C   UNL     1       1.409   9.638  18.047  0.00  0.00    +0.000 A 
ATOM     30  C   UNL     1       0.633  10.264  19.033  0.00  0.00    +0.000 A 
ATOM     31  C   UNL     1       0.522   9.636  20.283  0.00  0.00    +0.000 A 
ATOM     32  C   UNL     1       1.204   8.440  20.559  0.00  0.00    +0.000 A 
BRANCH  27  34
ATOM     33  C   UNL     1       2.125   5.518  19.238  0.00  0.00    +0.000 C 
ATOM     34  O   UNL     1       2.733   6.703  19.744  0.00  0.00    +0.000 OA
ENDBRANCH  27  34
ENDBRANCH  26  30
ENDBRANCH   1  26
TORSDOF 9
ENDMDL
MODEL 5
REMARK VINA RESULT:      -6.9      3.471      5.450
REMARK  Name = 
REMARK  10 active torsions:
REMARK  status: ('A' for Active; 'I' for Inactive)
REMARK    1  A    between atoms: C_1  and  O_2
REMARK    2  A    between atoms: O_2  and  C_3
REMARK    3  A    between atoms: C_6  and  C_7
REMARK    4  A    between atoms: C_7  and  C_8
REMARK    5  A    between atoms: C_10  and  C_11
REMARK    6  A    between atoms: C_13  and  C_14
REMARK    7  A    between atoms: C_14  and  O_15
REMARK    8  A    between atoms: C_16  and  O_17
REMARK    9  A    between atoms: C_18  and  O_19
REMARK   10  A    between atoms: C_20  and  O_21
REMARK                            x       y       z     vdW  Elec       q    Type
REMARK                         _______ _______ _______ _____ _____    ______ ____
ROOT
ATOM      1  C   UNL     1       1.507   8.638  18.861  0.00  0.00    +0.000 A 
ATOM      2  C   UNL     1       1.506  10.001  18.457  0.00  0.00    +0.000 A 
ATOM      3  C   UNL     1       1.233  11.040  19.359  0.00  0.00    +0.000 A 
ATOM      4  C   UNL     1       0.789  10.638  20.613  0.00  0.00    +0.000 A 
ATOM      5  C   UNL     1       1.040   9.340  21.089  0.00  0.00    +0.000 A 
ATOM      6  C   UNL     1       1.429   8.333  20.228  0.00  0.00    +0.000 A 
ATOM      7 CL   UNL     1       1.698   6.747  20.845  0.00  0.00    +0.000 Cl
ATOM      8  C   UNL     1       0.669   9.265  22.539  0.00  0.00    +0.000 C 
ATOM      9  C   UNL     1      -0.552  10.177  22.478  0.00  0.00    +0.000 C 
ATOM     10  C   UNL     1      -0.103  11.359  21.590  0.00  0.00    +0.000 C 
ENDROOT
BRANCH   3  11
ATOM     11  C   UNL     1       1.571  12.501  19.057  0.00  0.00    +0.000 C 
ATOM     12  O   UNL     1       2.330  13.062  20.137  0.00  0.00    +0.000 OA
ATOM     13  C   UNL     1       2.689  14.441  19.931  0.00  0.00    +0.000 C 
ATOM     14  C   UNL     1       1.452  15.334  19.794  0.00  0.00    +0.000 C 
ATOM     15  C   UNL     1       0.539  14.799  18.692  0.00  0.00    +0.000 C 
ATOM     16  C   UNL     1       0.251  13.316  18.863  0.00  0.00    +0.000 C 
BRANCH  14  17
ATOM     17  O   UNL     1       1.865  16.670  19.464  0.00  0.00    +0.000 OA
ATOM     18  H   UNL     1       1.064  17.184  19.247  0.00  0.00    +0.000 HD
ENDBRANCH  14  17
BRANCH  15  19
ATOM     19  O   UNL     1      -0.668  15.572  18.656  0.00  0.00    +0.000 OA
ATOM     20  H   UNL     1      -0.660  16.187  19.412  0.00  0.00    +0.000 HD
ENDBRANCH  15  19
BRANCH  16  21
ATOM     21  O   UNL     1      -0.528  12.838  17.753  0.00  0.00    +0.000 OA
ATOM     22  H   UNL     1      -1.305  13.411  17.651  0.00  0.00    +0.000 HD
ENDBRANCH  16  21
BRANCH  13  23
ATOM     23  C   UNL     1       3.551  14.894  21.113  0.00  0.00    +0.000 C 
BRANCH  23  24
ATOM     24  O   UNL     1       2.932  14.543  22.355  0.00  0.00    +0.000 OA
ATOM     25  H   UNL     1       2.884  15.378  22.872  0.00  0.00    +0.000 HD
ENDBRANCH  23  24
ENDBRANCH  13  23
ENDBRANCH   3  11
BRANCH   1  26
ATOM     26  C   UNL     1       1.484   7.559  17.800  0.00  0.00    +0.000 C 
BRANCH  26  30
ATOM     27  C   UNL     1       5.049   5.064  17.901  0.00  0.00    +0.000 A 
ATOM     28  C   UNL     1       5.147   6.436  17.666  0.00  0.00    +0.000 A 
ATOM     29  C   UNL     1       4.001   7.239  17.621  0.00  0.00    +0.000 A 
ATOM     30  C   UNL     1       2.729   6.680  17.807  0.00  0.00    +0.000 A 
ATOM     31  C   UNL     1       2.638   5.292  17.993  0.00  0.00    +0.000 A 
ATOM     32  C   UNL     1       3.789   4.489  18.038  0.00  0.00    +0.000 A 
BRANCH  27  34
ATOM     33  C   UNL     1       7.216   4.794  16.990  0.00  0.00    +0.000 C 
ATOM     34  O   UNL     1       6.238   4.386  17.941  0.00  0.00    +0.000 OA
ENDBRANCH  27  34
ENDBRANCH  26  30
ENDBRANCH   1  26
TORSDOF 9
ENDMDL
MODEL 6
REMARK VINA RESULT:      -6.9      5.213      8.995
REMARK  Name = 
REMARK  10 active torsions:
REMARK  status: ('A' for Active; 'I' for Inactive)
REMARK    1  A    between atoms: C_1  and  O_2
REMARK    2  A    between atoms: O_2  and  C_3
REMARK    3  A    between atoms: C_6  and  C_7
REMARK    4  A    between atoms: C_7  and  C_8
REMARK    5  A    between atoms: C_10  and  C_11
REMARK    6  A    between atoms: C_13  and  C_14
REMARK    7  A    between atoms: C_14  and  O_15
REMARK    8  A    between atoms: C_16  and  O_17
REMARK    9  A    between atoms: C_18  and  O_19
REMARK   10  A    between atoms: C_20  and  O_21
REMARK                            x       y       z     vdW  Elec       q    Type
REMARK                         _______ _______ _______ _____ _____    ______ ____
ROOT
ATOM      1  C   UNL     1      -1.663  11.809  18.992  0.00  0.00    +0.000 A 
ATOM      2  C   UNL     1      -1.943  12.741  20.028  0.00  0.00    +0.000 A 
ATOM      3  C   UNL     1      -3.256  13.107  20.361  0.00  0.00    +0.000 A 
ATOM      4  C   UNL     1      -4.239  12.642  19.497  0.00  0.00    +0.000 A 
ATOM      5  C   UNL     1      -4.007  11.537  18.661  0.00  0.00    +0.000 A 
ATOM      6  C   UNL     1      -2.723  11.088  18.421  0.00  0.00    +0.000 A 
ATOM      7 CL   UNL     1      -2.476   9.749  17.366  0.00  0.00    +0.000 Cl
ATOM      8  C   UNL     1      -5.299  11.113  18.030  0.00  0.00    +0.000 C 
ATOM      9  C   UNL     1      -5.892  12.505  17.842  0.00  0.00    +0.000 C 
ATOM     10  C   UNL     1      -5.585  13.235  19.169  0.00  0.00    +0.000 C 
ENDROOT
BRANCH   3  11
ATOM     11  C   UNL     1      -3.606  13.809  21.674  0.00  0.00    +0.000 C 
ATOM     12  O   UNL     1      -2.451  14.478  22.196  0.00  0.00    +0.000 OA
ATOM     13  C   UNL     1      -2.697  15.166  23.437  0.00  0.00    +0.000 C 
ATOM     14  C   UNL     1      -3.142  14.200  24.540  0.00  0.00    +0.000 C 
ATOM     15  C   UNL     1      -4.351  13.392  24.072  0.00  0.00    +0.000 C 
ATOM     16  C   UNL     1      -4.118  12.756  22.711  0.00  0.00    +0.000 C 
BRANCH  14  17
ATOM     17  O   UNL     1      -3.496  14.951  25.713  0.00  0.00    +0.000 OA
ATOM     18  H   UNL     1      -2.795  15.613  25.864  0.00  0.00    +0.000 HD
ENDBRANCH  14  17
BRANCH  15  19
ATOM     19  O   UNL     1      -4.682  12.412  25.065  0.00  0.00    +0.000 OA
ATOM     20  H   UNL     1      -4.885  12.875  25.898  0.00  0.00    +0.000 HD
ENDBRANCH  15  19
BRANCH  16  21
ATOM     21  O   UNL     1      -5.313  12.091  22.271  0.00  0.00    +0.000 OA
ATOM     22  H   UNL     1      -5.116  11.148  22.149  0.00  0.00    +0.000 HD
ENDBRANCH  16  21
BRANCH  13  23
ATOM     23  C   UNL     1      -1.413  15.893  23.845  0.00  0.00    +0.000 C 
BRANCH  23  24
ATOM     24  O   UNL     1      -0.746  15.191  24.899  0.00  0.00    +0.000 OA
ATOM     25  H   UNL     1      -0.890  14.236  24.714  0.00  0.00    +0.000 HD
ENDBRANCH  23  24
ENDBRANCH  13  23
ENDBRANCH   3  11
BRANCH   1  26
ATOM     26  C   UNL     1      -0.249  11.701  18.465  0.00  0.00    +0.000 C 
BRANCH  26  30
ATOM     27  C   UNL     1       1.717   8.023  19.715  0.00  0.00    +0.000 A 
ATOM     28  C   UNL     1       1.000   8.794  20.631  0.00  0.00    +0.000 A 
ATOM     29  C   UNL     1       0.377   9.984  20.234  0.00  0.00    +0.000 A 
ATOM     30  C   UNL     1       0.463  10.428  18.907  0.00  0.00    +0.000 A 
ATOM     31  C   UNL     1       1.228   9.671  18.006  0.00  0.00    +0.000 A 
ATOM     32  C   UNL     1       1.851   8.479  18.406  0.00  0.00    +0.000 A 
BRANCH  27  34
ATOM     33  C   UNL     1       3.091   6.140  19.313  0.00  0.00    +0.000 C 
ATOM     34  O   UNL     1       2.266   6.873  20.214  0.00  0.00    +0.000 OA
ENDBRANCH  27  34
ENDBRANCH  26  30
ENDBRANCH   1  26
TORSDOF 9
ENDMDL
MODEL 7
REMARK VINA RESULT:      -6.5      5.557      9.370
REMARK  Name = 
REMARK  10 active torsions:
REMARK  status: ('A' for Active; 'I' for Inactive)
REMARK    1  A    between atoms: C_1  and  O_2
REMARK    2  A    between atoms: O_2  and  C_3
REMARK    3  A    between atoms: C_6  and  C_7
REMARK    4  A    between atoms: C_7  and  C_8
REMARK    5  A    between atoms: C_10  and  C_11
REMARK    6  A    between atoms: C_13  and  C_14
REMARK    7  A    between atoms: C_14  and  O_15
REMARK    8  A    between atoms: C_16  and  O_17
REMARK    9  A    between atoms: C_18  and  O_19
REMARK   10  A    between atoms: C_20  and  O_21
REMARK                            x       y       z     vdW  Elec       q    Type
REMARK                         _______ _______ _______ _____ _____    ______ ____
ROOT
ATOM      1  C   UNL     1      -2.256  11.707  18.795  0.00  0.00    +0.000 A 
ATOM      2  C   UNL     1      -2.455  12.666  19.825  0.00  0.00    +0.000 A 
ATOM      3  C   UNL     1      -3.737  13.090  20.205  0.00  0.00    +0.000 A 
ATOM      4  C   UNL     1      -4.774  12.651  19.391  0.00  0.00    +0.000 A 
ATOM      5  C   UNL     1      -4.620  11.524  18.566  0.00  0.00    +0.000 A 
ATOM      6  C   UNL     1      -3.367  11.020  18.282  0.00  0.00    +0.000 A 
ATOM      7 CL   UNL     1      -3.218   9.655  17.241  0.00  0.00    +0.000 Cl
ATOM      8  C   UNL     1      -5.954  11.143  17.997  0.00  0.00    +0.000 C 
ATOM      9  C   UNL     1      -6.498  12.555  17.808  0.00  0.00    +0.000 C 
ATOM     10  C   UNL     1      -6.107  13.293  19.108  0.00  0.00    +0.000 C 
ENDROOT
BRANCH   3  11
ATOM     11  C   UNL     1      -4.004  13.827  21.518  0.00  0.00    +0.000 C 
ATOM     12  O   UNL     1      -2.831  14.545  21.924  0.00  0.00    +0.000 OA
ATOM     13  C   UNL     1      -2.999  15.269  23.158  0.00  0.00    +0.000 C 
ATOM     14  C   UNL     1      -3.327  14.330  24.324  0.00  0.00    +0.000 C 
ATOM     15  C   UNL     1      -4.544  13.473  23.980  0.00  0.00    +0.000 C 
ATOM     16  C   UNL     1      -4.399  12.798  22.627  0.00  0.00    +0.000 C 
BRANCH  14  17
ATOM     17  O   UNL     1      -3.608  15.111  25.497  0.00  0.00    +0.000 OA
ATOM     18  H   UNL     1      -4.579  15.181  25.581  0.00  0.00    +0.000 HD
ENDBRANCH  14  17
BRANCH  15  19
ATOM     19  O   UNL     1      -4.765  12.519  25.028  0.00  0.00    +0.000 OA
ATOM     20  H   UNL     1      -4.337  12.849  25.839  0.00  0.00    +0.000 HD
ENDBRANCH  15  19
BRANCH  16  21
ATOM     21  O   UNL     1      -5.605  12.085  22.305  0.00  0.00    +0.000 OA
ATOM     22  H   UNL     1      -5.755  12.146  21.348  0.00  0.00    +0.000 HD
ENDBRANCH  16  21
BRANCH  13  23
ATOM     23  C   UNL     1      -1.709  16.045  23.439  0.00  0.00    +0.000 C 
BRANCH  23  24
ATOM     24  O   UNL     1      -1.974  17.192  24.252  0.00  0.00    +0.000 OA
ATOM     25  H   UNL     1      -2.204  16.840  25.141  0.00  0.00    +0.000 HD
ENDBRANCH  23  24
ENDBRANCH  13  23
ENDBRANCH   3  11
BRANCH   1  26
ATOM     26  C   UNL     1      -0.870  11.533  18.212  0.00  0.00    +0.000 C 
BRANCH  26  30
ATOM     27  C   UNL     1       1.441   8.357  20.089  0.00  0.00    +0.000 A 
ATOM     28  C   UNL     1       1.667   8.711  18.758  0.00  0.00    +0.000 A 
ATOM     29  C   UNL     1       0.916   9.724  18.148  0.00  0.00    +0.000 A 
ATOM     30  C   UNL     1      -0.081  10.403  18.862  0.00  0.00    +0.000 A 
ATOM     31  C   UNL     1      -0.334  10.005  20.184  0.00  0.00    +0.000 A 
ATOM     32  C   UNL     1       0.420   8.989  20.793  0.00  0.00    +0.000 A 
BRANCH  27  34
ATOM     33  C   UNL     1       1.765   6.037  20.418  0.00  0.00    +0.000 C 
ATOM     34  O   UNL     1       2.248   7.367  20.581  0.00  0.00    +0.000 OA
ENDBRANCH  27  34
ENDBRANCH  26  30
ENDBRANCH   1  26
TORSDOF 9
ENDMDL
MODEL 8
REMARK VINA RESULT:      -6.5      1.559      2.679
REMARK  Name = 
REMARK  10 active torsions:
REMARK  status: ('A' for Active; 'I' for Inactive)
REMARK    1  A    between atoms: C_1  and  O_2
REMARK    2  A    between atoms: O_2  and  C_3
REMARK    3  A    between atoms: C_6  and  C_7
REMARK    4  A    between atoms: C_7  and  C_8
REMARK    5  A    between atoms: C_10  and  C_11
REMARK    6  A    between atoms: C_13  and  C_14
REMARK    7  A    between atoms: C_14  and  O_15
REMARK    8  A    between atoms: C_16  and  O_17
REMARK    9  A    between atoms: C_18  and  O_19
REMARK   10  A    between atoms: C_20  and  O_21
REMARK                            x       y       z     vdW  Elec       q    Type
REMARK                         _______ _______ _______ _____ _____    ______ ____
ROOT
ATOM      1  C   UNL     1       4.962   6.036  17.295  0.00  0.00    +0.000 A 
ATOM      2  C   UNL     1       3.863   6.889  17.587  0.00  0.00    +0.000 A 
ATOM      3  C   UNL     1       2.724   6.426  18.261  0.00  0.00    +0.000 A 
ATOM      4  C   UNL     1       2.667   5.052  18.456  0.00  0.00    +0.000 A 
ATOM      5  C   UNL     1       3.830   4.264  18.417  0.00  0.00    +0.000 A 
ATOM      6  C   UNL     1       4.997   4.754  17.865  0.00  0.00    +0.000 A 
ATOM      7 CL   UNL     1       6.395   3.748  17.807  0.00  0.00    +0.000 Cl
ATOM      8  C   UNL     1       3.509   2.881  18.897  0.00  0.00    +0.000 C 
ATOM      9  C   UNL     1       2.114   2.781  18.288  0.00  0.00    +0.000 C 
ATOM     10  C   UNL     1       1.466   4.151  18.587  0.00  0.00    +0.000 C 
ENDROOT
BRANCH   3  11
ATOM     11  C   UNL     1       1.704   7.371  18.899  0.00  0.00    +0.000 C 
ATOM     12  O   UNL     1       1.770   8.658  18.271  0.00  0.00    +0.000 OA
ATOM     13  C   UNL     1       0.838   9.611  18.817  0.00  0.00    +0.000 C 
ATOM     14  C   UNL     1       1.099   9.869  20.305  0.00  0.00    +0.000 C 
ATOM     15  C   UNL     1       1.099   8.548  21.073  0.00  0.00    +0.000 C 
ATOM     16  C   UNL     1       2.006   7.515  20.427  0.00  0.00    +0.000 C 
BRANCH  14  17
ATOM     17  O   UNL     1       0.068  10.723  20.826  0.00  0.00    +0.000 OA
ATOM     18  H   UNL     1      -0.776  10.456  20.415  0.00  0.00    +0.000 HD
ENDBRANCH  14  17
BRANCH  15  19
ATOM     19  O   UNL     1       1.461   8.792  22.438  0.00  0.00    +0.000 OA
ATOM     20  H   UNL     1       1.713   9.729  22.526  0.00  0.00    +0.000 HD
ENDBRANCH  15  19
BRANCH  16  21
ATOM     21  O   UNL     1       1.898   6.264  21.125  0.00  0.00    +0.000 OA
ATOM     22  H   UNL     1       1.617   6.441  22.037  0.00  0.00    +0.000 HD
ENDBRANCH  16  21
BRANCH  13  23
ATOM     23  C   UNL     1       0.958  10.911  18.017  0.00  0.00    +0.000 C 
BRANCH  23  24
ATOM     24  O   UNL     1      -0.237  11.691  18.135  0.00  0.00    +0.000 OA
ATOM     25  H   UNL     1      -0.904  11.241  17.570  0.00  0.00    +0.000 HD
ENDBRANCH  23  24
ENDBRANCH  13  23
ENDBRANCH   3  11
BRANCH   1  26
ATOM     26  C   UNL     1       6.003   6.495  16.298  0.00  0.00    +0.000 C 
BRANCH  26  30
ATOM     27  C   UNL     1       6.412   3.797  12.907  0.00  0.00    +0.000 A 
ATOM     28  C   UNL     1       7.449   4.661  13.258  0.00  0.00    +0.000 A 
ATOM     29  C   UNL     1       7.316   5.540  14.340  0.00  0.00    +0.000 A 
ATOM     30  C   UNL     1       6.134   5.570  15.094  0.00  0.00    +0.000 A 
ATOM     31  C   UNL     1       5.079   4.732  14.702  0.00  0.00    +0.000 A 
ATOM     32  C   UNL     1       5.215   3.852  13.616  0.00  0.00    +0.000 A 
BRANCH  27  34
ATOM     33  C   UNL     1       5.643   2.029  11.535  0.00  0.00    +0.000 C 
ATOM     34  O   UNL     1       6.664   2.973  11.843  0.00  0.00    +0.000 OA
ENDBRANCH  27  34
ENDBRANCH  26  30
ENDBRANCH   1  26
TORSDOF 9
ENDMDL
MODEL 9
REMARK VINA RESULT:      -6.5      3.337      4.740
REMARK  Name = 
REMARK  10 active torsions:
REMARK  status: ('A' for Active; 'I' for Inactive)
REMARK    1  A    between atoms: C_1  and  O_2
REMARK    2  A    between atoms: O_2  and  C_3
REMARK    3  A    between atoms: C_6  and  C_7
REMARK    4  A    between atoms: C_7  and  C_8
REMARK    5  A    between atoms: C_10  and  C_11
REMARK    6  A    between atoms: C_13  and  C_14
REMARK    7  A    between atoms: C_14  and  O_15
REMARK    8  A    between atoms: C_16  and  O_17
REMARK    9  A    between atoms: C_18  and  O_19
REMARK   10  A    between atoms: C_20  and  O_21
REMARK                            x       y       z     vdW  Elec       q    Type
REMARK                         _______ _______ _______ _____ _____    ______ ____
ROOT
ATOM      1  C   UNL     1       5.307   6.440  17.300  0.00  0.00    +0.000 A 
ATOM      2  C   UNL     1       4.177   7.244  17.615  0.00  0.00    +0.000 A 
ATOM      3  C   UNL     1       2.966   6.682  18.045  0.00  0.00    +0.000 A 
ATOM      4  C   UNL     1       2.891   5.297  17.964  0.00  0.00    +0.000 A 
ATOM      5  C   UNL     1       4.054   4.510  17.915  0.00  0.00    +0.000 A 
ATOM      6  C   UNL     1       5.278   5.073  17.613  0.00  0.00    +0.000 A 
ATOM      7 CL   UNL     1       6.676   4.070  17.532  0.00  0.00    +0.000 Cl
ATOM      8  C   UNL     1       3.682   3.067  18.078  0.00  0.00    +0.000 C 
ATOM      9  C   UNL     1       2.373   3.112  17.297  0.00  0.00    +0.000 C 
ATOM     10  C   UNL     1       1.687   4.412  17.773  0.00  0.00    +0.000 C 
ENDROOT
BRANCH   3  11
ATOM     11  C   UNL     1       1.872   7.507  18.725  0.00  0.00    +0.000 C 
ATOM     12  O   UNL     1       1.885   8.849  18.220  0.00  0.00    +0.000 OA
ATOM     13  C   UNL     1       0.881   9.695  18.812  0.00  0.00    +0.000 C 
ATOM     14  C   UNL     1       1.075   9.827  20.327  0.00  0.00    +0.000 C 
ATOM     15  C   UNL     1       1.124   8.443  20.971  0.00  0.00    +0.000 C 
ATOM     16  C   UNL     1       2.112   7.525  20.270  0.00  0.00    +0.000 C 
BRANCH  14  17
ATOM     17  O   UNL     1      -0.021  10.573  20.881  0.00  0.00    +0.000 OA
ATOM     18  H   UNL     1      -0.690  10.685  20.180  0.00  0.00    +0.000 HD
ENDBRANCH  14  17
BRANCH  15  19
ATOM     19  O   UNL     1       1.424   8.578  22.366  0.00  0.00    +0.000 OA
ATOM     20  H   UNL     1       1.333   9.517  22.610  0.00  0.00    +0.000 HD
ENDBRANCH  15  19
BRANCH  16  21
ATOM     21  O   UNL     1       2.052   6.210  20.847  0.00  0.00    +0.000 OA
ATOM     22  H   UNL     1       2.943   5.958  21.138  0.00  0.00    +0.000 HD
ENDBRANCH  16  21
BRANCH  13  23
ATOM     23  C   UNL     1       0.954  11.069  18.139  0.00  0.00    +0.000 C 
BRANCH  23  24
ATOM     24  O   UNL     1       2.213  11.245  17.481  0.00  0.00    +0.000 OA
ATOM     25  H   UNL     1       2.440  10.366  17.104  0.00  0.00    +0.000 HD
ENDBRANCH  23  24
ENDBRANCH  13  23
ENDBRANCH   3  11
BRANCH   1  26
ATOM     26  C   UNL     1       6.460   7.062  16.543  0.00  0.00    +0.000 C 
BRANCH  26  30
ATOM     27  C   UNL     1       8.950   9.569  19.087  0.00  0.00    +0.000 A 
ATOM     28  C   UNL     1       8.211  10.126  18.042  0.00  0.00    +0.000 A 
ATOM     29  C   UNL     1       7.419   9.320  17.214  0.00  0.00    +0.000 A 
ATOM     30  C   UNL     1       7.354   7.934  17.416  0.00  0.00    +0.000 A 
ATOM     31  C   UNL     1       8.139   7.379  18.438  0.00  0.00    +0.000 A 
ATOM     32  C   UNL     1       8.932   8.188  19.267  0.00  0.00    +0.000 A 
BRANCH  27  34
ATOM     33  C   UNL     1      10.392  11.444  19.108  0.00  0.00    +0.000 C 
ATOM     34  O   UNL     1       9.671  10.457  19.839  0.00  0.00    +0.000 OA
ENDBRANCH  27  34
ENDBRANCH  26  30
ENDBRANCH   1  26
TORSDOF 9
ENDMDL
