MODEL 1
REMARK VINA RESULT:      -7.4      0.000      0.000
REMARK  Name = 
REMARK  7 active torsions:
REMARK  status: ('A' for Active; 'I' for Inactive)
REMARK    1  A    between atoms: C_1  and  C_2
REMARK    2  A    between atoms: C_2  and  C_3
REMARK    3  A    between atoms: C_6  and  N_7
REMARK    4  A    between atoms: C_8  and  C_10
REMARK    5  A    between atoms: C_10  and  N_11
REMARK    6  A    between atoms: C_12  and  S_13
REMARK    7  A    between atoms: S_13  and  C_14
REMARK                            x       y       z     vdW  Elec       q    Type
REMARK                         _______ _______ _______ _____ _____    ______ ____
ROOT
ATOM      1  N   UNL     1       5.436   5.213  16.911  0.00  0.00    +0.000 N 
ATOM      2  C   UNL     1       6.062   4.934  18.131  0.00  0.00    +0.000 C 
ATOM      3  O   UNL     1       7.181   4.433  18.245  0.00  0.00    +0.000 OA
ATOM      4  H   UNL     1       4.529   5.666  16.941  0.00  0.00    +0.000 HD
ENDROOT
BRANCH   1   8
ATOM      5  C   UNL     1       6.667   4.032  12.954  0.00  0.00    +0.000 A 
ATOM      6  C   UNL     1       7.480   4.867  13.731  0.00  0.00    +0.000 A 
ATOM      7  C   UNL     1       7.096   5.258  15.026  0.00  0.00    +0.000 A 
ATOM      8  C   UNL     1       5.888   4.850  15.606  0.00  0.00    +0.000 A 
ATOM      9  C   UNL     1       5.095   3.974  14.843  0.00  0.00    +0.000 A 
ATOM     10  C   UNL     1       5.479   3.575  13.533  0.00  0.00    +0.000 A 
BRANCH   5  12
ATOM     11  C   UNL     1       7.140   2.197  11.235  0.00  0.00    +0.000 C 
ATOM     12  C   UNL     1       7.042   3.690  11.531  0.00  0.00    +0.000 C 
ENDBRANCH   5  12
ENDBRANCH   1   8
BRANCH   2  13
ATOM     13  C   UNL     1       5.309   5.358  19.413  0.00  0.00    +0.000 C 
BRANCH  13  14
ATOM     14  N   UNL     1       3.854   5.268  19.358  0.00  0.00    +0.000 N 
ATOM     15  C   UNL     1       2.987   6.314  19.492  0.00  0.00    +0.000 A 
ATOM     16  N   UNL     1       1.999   5.959  20.283  0.00  0.00    +0.000 NA
ATOM     17  C   UNL     1       1.903   4.616  20.035  0.00  0.00    +0.000 A 
ATOM     18  C   UNL     1       0.810   3.772  20.270  0.00  0.00    +0.000 A 
ATOM     19  C   UNL     1       0.752   2.572  19.558  0.00  0.00    +0.000 A 
ATOM     20  C   UNL     1       1.817   2.186  18.737  0.00  0.00    +0.000 A 
ATOM     21  C   UNL     1       3.013   2.927  18.656  0.00  0.00    +0.000 A 
ATOM     22  C   UNL     1       3.019   4.160  19.310  0.00  0.00    +0.000 A 
BRANCH  15  23
ATOM     23  S   UNL     1       2.837   7.433  18.160  0.00  0.00    +0.000 S 
ATOM     24  C   UNL     1       1.747   8.651  18.931  0.00  0.00    +0.000 C 
ENDBRANCH  15  23
ENDBRANCH  13  14
ENDBRANCH   2  13
TORSDOF 5
ENDMDL
MODEL 2
REMARK VINA RESULT:      -7.2      3.204      8.060
REMARK  Name = 
REMARK  7 active torsions:
REMARK  status: ('A' for Active; 'I' for Inactive)
REMARK    1  A    between atoms: C_1  and  C_2
REMARK    2  A    between atoms: C_2  and  C_3
REMARK    3  A    between atoms: C_6  and  N_7
REMARK    4  A    between atoms: C_8  and  C_10
REMARK    5  A    between atoms: C_10  and  N_11
REMARK    6  A    between atoms: C_12  and  S_13
REMARK    7  A    between atoms: S_13  and  C_14
REMARK                            x       y       z     vdW  Elec       q    Type
REMARK                         _______ _______ _______ _____ _____    ______ ____
ROOT
ATOM      1  N   UNL     1       2.244   8.014  19.939  0.00  0.00    +0.000 N 
ATOM      2  C   UNL     1       2.342   7.800  18.560  0.00  0.00    +0.000 C 
ATOM      3  O   UNL     1       1.679   8.397  17.710  0.00  0.00    +0.000 OA
ATOM      4  H   UNL     1       2.871   7.492  20.542  0.00  0.00    +0.000 HD
ENDROOT
BRANCH   1   8
ATOM      5  C   UNL     1      -0.596  10.399  22.134  0.00  0.00    +0.000 A 
ATOM      6  C   UNL     1      -0.461  10.553  20.748  0.00  0.00    +0.000 A 
ATOM      7  C   UNL     1       0.457   9.779  20.016  0.00  0.00    +0.000 A 
ATOM      8  C   UNL     1       1.289   8.828  20.621  0.00  0.00    +0.000 A 
ATOM      9  C   UNL     1       1.118   8.643  22.005  0.00  0.00    +0.000 A 
ATOM     10  C   UNL     1       0.191   9.422  22.751  0.00  0.00    +0.000 A 
BRANCH   5  12
ATOM     11  C   UNL     1      -1.121  12.768  22.946  0.00  0.00    +0.000 C 
ATOM     12  C   UNL     1      -1.518  11.296  22.927  0.00  0.00    +0.000 C 
ENDBRANCH   5  12
ENDBRANCH   1   8
BRANCH   2  13
ATOM     13  C   UNL     1       3.412   6.791  18.087  0.00  0.00    +0.000 C 
BRANCH  13  14
ATOM     14  N   UNL     1       3.076   5.380  18.247  0.00  0.00    +0.000 N 
ATOM     15  C   UNL     1       3.209   4.417  17.290  0.00  0.00    +0.000 A 
ATOM     16  N   UNL     1       2.134   3.661  17.283  0.00  0.00    +0.000 NA
ATOM     17  C   UNL     1       1.743   3.709  18.593  0.00  0.00    +0.000 A 
ATOM     18  C   UNL     1       0.913   2.813  19.279  0.00  0.00    +0.000 A 
ATOM     19  C   UNL     1       0.996   2.787  20.673  0.00  0.00    +0.000 A 
ATOM     20  C   UNL     1       1.794   3.717  21.349  0.00  0.00    +0.000 A 
ATOM     21  C   UNL     1       2.469   4.758  20.681  0.00  0.00    +0.000 A 
ATOM     22  C   UNL     1       2.439   4.716  19.286  0.00  0.00    +0.000 A 
BRANCH  15  23
ATOM     23  S   UNL     1       4.818   3.856  16.906  0.00  0.00    +0.000 S 
ATOM     24  C   UNL     1       5.212   5.010  15.571  0.00  0.00    +0.000 C 
ENDBRANCH  15  23
ENDBRANCH  13  14
ENDBRANCH   2  13
TORSDOF 5
ENDMDL
MODEL 3
REMARK VINA RESULT:      -7.2      0.248      1.026
REMARK  Name = 
REMARK  7 active torsions:
REMARK  status: ('A' for Active; 'I' for Inactive)
REMARK    1  A    between atoms: C_1  and  C_2
REMARK    2  A    between atoms: C_2  and  C_3
REMARK    3  A    between atoms: C_6  and  N_7
REMARK    4  A    between atoms: C_8  and  C_10
REMARK    5  A    between atoms: C_10  and  N_11
REMARK    6  A    between atoms: C_12  and  S_13
REMARK    7  A    between atoms: S_13  and  C_14
REMARK                            x       y       z     vdW  Elec       q    Type
REMARK                         _______ _______ _______ _____ _____    ______ ____
ROOT
ATOM      1  N   UNL     1       5.435   5.303  16.629  0.00  0.00    +0.000 N 
ATOM      2  C   UNL     1       5.992   4.935  17.859  0.00  0.00    +0.000 C 
ATOM      3  O   UNL     1       7.000   4.241  17.991  0.00  0.00    +0.000 OA
ATOM      4  H   UNL     1       4.625   5.914  16.644  0.00  0.00    +0.000 HD
ENDROOT
BRANCH   1   8
ATOM      5  C   UNL     1       6.737   3.999  12.734  0.00  0.00    +0.000 A 
ATOM      6  C   UNL     1       5.503   3.580  13.247  0.00  0.00    +0.000 A 
ATOM      7  C   UNL     1       5.060   4.000  14.514  0.00  0.00    +0.000 A 
ATOM      8  C   UNL     1       5.822   4.843  15.334  0.00  0.00    +0.000 A 
ATOM      9  C   UNL     1       7.039   5.299  14.797  0.00  0.00    +0.000 A 
ATOM     10  C   UNL     1       7.491   4.878  13.516  0.00  0.00    +0.000 A 
BRANCH   5  12
ATOM     11  C   UNL     1       7.151   1.959  11.246  0.00  0.00    +0.000 C 
ATOM     12  C   UNL     1       7.247   3.471  11.413  0.00  0.00    +0.000 C 
ENDBRANCH   5  12
ENDBRANCH   1   8
BRANCH   2  13
ATOM     13  C   UNL     1       5.320   5.510  19.127  0.00  0.00    +0.000 C 
BRANCH  13  14
ATOM     14  N   UNL     1       3.864   5.424  19.173  0.00  0.00    +0.000 N 
ATOM     15  C   UNL     1       3.012   6.468  19.391  0.00  0.00    +0.000 A 
ATOM     16  N   UNL     1       2.081   6.098  20.241  0.00  0.00    +0.000 NA
ATOM     17  C   UNL     1       1.964   4.762  19.972  0.00  0.00    +0.000 A 
ATOM     18  C   UNL     1       0.887   3.915  20.266  0.00  0.00    +0.000 A 
ATOM     19  C   UNL     1       0.774   2.730  19.534  0.00  0.00    +0.000 A 
ATOM     20  C   UNL     1       1.777   2.360  18.632  0.00  0.00    +0.000 A 
ATOM     21  C   UNL     1       2.967   3.100  18.483  0.00  0.00    +0.000 A 
ATOM     22  C   UNL     1       3.024   4.319  19.161  0.00  0.00    +0.000 A 
BRANCH  15  23
ATOM     23  S   UNL     1       2.773   7.617  18.097  0.00  0.00    +0.000 S 
ATOM     24  C   UNL     1       1.638   8.751  18.928  0.00  0.00    +0.000 C 
ENDBRANCH  15  23
ENDBRANCH  13  14
ENDBRANCH   2  13
TORSDOF 5
ENDMDL
MODEL 4
REMARK VINA RESULT:      -7.1      3.918      6.186
REMARK  Name = 
REMARK  7 active torsions:
REMARK  status: ('A' for Active; 'I' for Inactive)
REMARK    1  A    between atoms: C_1  and  C_2
REMARK    2  A    between atoms: C_2  and  C_3
REMARK    3  A    between atoms: C_6  and  N_7
REMARK    4  A    between atoms: C_8  and  C_10
REMARK    5  A    between atoms: C_10  and  N_11
REMARK    6  A    between atoms: C_12  and  S_13
REMARK    7  A    between atoms: S_13  and  C_14
REMARK                            x       y       z     vdW  Elec       q    Type
REMARK                         _______ _______ _______ _____ _____    ______ ____
ROOT
ATOM      1  N   UNL     1       2.509   7.318  18.810  0.00  0.00    +0.000 N 
ATOM      2  C   UNL     1       1.957   8.572  18.528  0.00  0.00    +0.000 C 
ATOM      3  O   UNL     1       2.027   9.139  17.436  0.00  0.00    +0.000 OA
ATOM      4  H   UNL     1       2.352   6.932  19.735  0.00  0.00    +0.000 HD
ENDROOT
BRANCH   1   8
ATOM      5  C   UNL     1       4.990   4.838  16.308  0.00  0.00    +0.000 A 
ATOM      6  C   UNL     1       5.224   6.216  16.395  0.00  0.00    +0.000 A 
ATOM      7  C   UNL     1       4.427   7.040  17.211  0.00  0.00    +0.000 A 
ATOM      8  C   UNL     1       3.358   6.539  17.967  0.00  0.00    +0.000 A 
ATOM      9  C   UNL     1       3.156   5.148  17.913  0.00  0.00    +0.000 A 
ATOM     10  C   UNL     1       3.959   4.311  17.090  0.00  0.00    +0.000 A 
BRANCH   5  12
ATOM     11  C   UNL     1       7.008   4.656  14.745  0.00  0.00    +0.000 C 
ATOM     12  C   UNL     1       5.791   3.974  15.360  0.00  0.00    +0.000 C 
ENDBRANCH   5  12
ENDBRANCH   1   8
BRANCH   2  13
ATOM     13  C   UNL     1       1.146   9.245  19.659  0.00  0.00    +0.000 C 
BRANCH  13  14
ATOM     14  N   UNL     1       0.312  10.375  19.262  0.00  0.00    +0.000 N 
ATOM     15  C   UNL     1       0.489  11.670  19.653  0.00  0.00    +0.000 A 
ATOM     16  N   UNL     1      -0.675  12.188  19.978  0.00  0.00    +0.000 NA
ATOM     17  C   UNL     1      -1.529  11.509  19.152  0.00  0.00    +0.000 A 
ATOM     18  C   UNL     1      -2.820  11.880  18.755  0.00  0.00    +0.000 A 
ATOM     19  C   UNL     1      -3.335  11.298  17.595  0.00  0.00    +0.000 A 
ATOM     20  C   UNL     1      -2.622  10.290  16.935  0.00  0.00    +0.000 A 
ATOM     21  C   UNL     1      -1.419   9.762  17.444  0.00  0.00    +0.000 A 
ATOM     22  C   UNL     1      -0.883  10.411  18.557  0.00  0.00    +0.000 A 
BRANCH  15  23
ATOM     23  S   UNL     1       1.812  12.568  18.950  0.00  0.00    +0.000 S 
ATOM     24  C   UNL     1       1.001  14.173  18.763  0.00  0.00    +0.000 C 
ENDBRANCH  15  23
ENDBRANCH  13  14
ENDBRANCH   2  13
TORSDOF 5
ENDMDL
MODEL 5
REMARK VINA RESULT:      -7.1      3.983      6.354
REMARK  Name = 
REMARK  7 active torsions:
REMARK  status: ('A' for Active; 'I' for Inactive)
REMARK    1  A    between atoms: C_1  and  C_2
REMARK    2  A    between atoms: C_2  and  C_3
REMARK    3  A    between atoms: C_6  and  N_7
REMARK    4  A    between atoms: C_8  and  C_10
REMARK    5  A    between atoms: C_10  and  N_11
REMARK    6  A    between atoms: C_12  and  S_13
REMARK    7  A    between atoms: S_13  and  C_14
REMARK                            x       y       z     vdW  Elec       q    Type
REMARK                         _______ _______ _______ _____ _____    ______ ____
ROOT
ATOM      1  N   UNL     1       2.284   7.443  18.881  0.00  0.00    +0.000 N 
ATOM      2  C   UNL     1       1.860   8.726  18.519  0.00  0.00    +0.000 C 
ATOM      3  O   UNL     1       2.018   9.227  17.405  0.00  0.00    +0.000 OA
ATOM      4  H   UNL     1       2.061   7.121  19.818  0.00  0.00    +0.000 HD
ENDROOT
BRANCH   1   8
ATOM      5  C   UNL     1       4.793   4.863  16.511  0.00  0.00    +0.000 A 
ATOM      6  C   UNL     1       3.673   4.348  17.177  0.00  0.00    +0.000 A 
ATOM      7  C   UNL     1       2.841   5.177  17.950  0.00  0.00    +0.000 A 
ATOM      8  C   UNL     1       3.084   6.548  18.109  0.00  0.00    +0.000 A 
ATOM      9  C   UNL     1       4.182   7.070  17.403  0.00  0.00    +0.000 A 
ATOM     10  C   UNL     1       5.027   6.238  16.619  0.00  0.00    +0.000 A 
BRANCH   5  12
ATOM     11  C   UNL     1       5.835   4.231  14.262  0.00  0.00    +0.000 C 
ATOM     12  C   UNL     1       5.734   3.952  15.757  0.00  0.00    +0.000 C 
ENDBRANCH   5  12
ENDBRANCH   1   8
BRANCH   2  13
ATOM     13  C   UNL     1       1.078   9.527  19.585  0.00  0.00    +0.000 C 
BRANCH  13  14
ATOM     14  N   UNL     1       0.178  10.557  19.078  0.00  0.00    +0.000 N 
ATOM     15  C   UNL     1       0.254  11.890  19.361  0.00  0.00    +0.000 A 
ATOM     16  N   UNL     1      -0.951  12.349  19.617  0.00  0.00    +0.000 NA
ATOM     17  C   UNL     1      -1.734  11.544  18.836  0.00  0.00    +0.000 A 
ATOM     18  C   UNL     1      -3.037  11.788  18.383  0.00  0.00    +0.000 A 
ATOM     19  C   UNL     1      -3.480  11.075  17.266  0.00  0.00    +0.000 A 
ATOM     20  C   UNL     1      -2.683  10.070  16.708  0.00  0.00    +0.000 A 
ATOM     21  C   UNL     1      -1.459   9.673  17.284  0.00  0.00    +0.000 A 
ATOM     22  C   UNL     1      -0.998  10.449  18.348  0.00  0.00    +0.000 A 
BRANCH  15  23
ATOM     23  S   UNL     1       1.529  12.818  18.610  0.00  0.00    +0.000 S 
ATOM     24  C   UNL     1       2.391  13.375  20.098  0.00  0.00    +0.000 C 
ENDBRANCH  15  23
ENDBRANCH  13  14
ENDBRANCH   2  13
TORSDOF 5
ENDMDL
MODEL 6
REMARK VINA RESULT:      -7.1      2.730      7.709
REMARK  Name = 
REMARK  7 active torsions:
REMARK  status: ('A' for Active; 'I' for Inactive)
REMARK    1  A    between atoms: C_1  and  C_2
REMARK    2  A    between atoms: C_2  and  C_3
REMARK    3  A    between atoms: C_6  and  N_7
REMARK    4  A    between atoms: C_8  and  C_10
REMARK    5  A    between atoms: C_10  and  N_11
REMARK    6  A    between atoms: C_12  and  S_13
REMARK    7  A    between atoms: S_13  and  C_14
REMARK                            x       y       z     vdW  Elec       q    Type
REMARK                         _______ _______ _______ _____ _____    ______ ____
ROOT
ATOM      1  N   UNL     1       2.359   7.695  19.242  0.00  0.00    +0.000 N 
ATOM      2  C   UNL     1       2.417   6.489  19.949  0.00  0.00    +0.000 C 
ATOM      3  O   UNL     1       1.524   6.066  20.685  0.00  0.00    +0.000 OA
ATOM      4  H   UNL     1       3.139   7.921  18.634  0.00  0.00    +0.000 HD
ENDROOT
BRANCH   1   8
ATOM      5  C   UNL     1      -0.657  10.769  19.387  0.00  0.00    +0.000 A 
ATOM      6  C   UNL     1      -0.203  10.164  20.567  0.00  0.00    +0.000 A 
ATOM      7  C   UNL     1       0.784   9.163  20.538  0.00  0.00    +0.000 A 
ATOM      8  C   UNL     1       1.358   8.708  19.343  0.00  0.00    +0.000 A 
ATOM      9  C   UNL     1       0.934   9.350  18.165  0.00  0.00    +0.000 A 
ATOM     10  C   UNL     1      -0.064  10.363  18.189  0.00  0.00    +0.000 A 
BRANCH   5  12
ATOM     11  C   UNL     1      -2.897  11.524  18.409  0.00  0.00    +0.000 C 
ATOM     12  C   UNL     1      -1.782  11.778  19.417  0.00  0.00    +0.000 C 
ENDBRANCH   5  12
ENDBRANCH   1   8
BRANCH   2  13
ATOM     13  C   UNL     1       3.666   5.608  19.722  0.00  0.00    +0.000 C 
BRANCH  13  14
ATOM     14  N   UNL     1       3.758   4.951  18.423  0.00  0.00    +0.000 N 
ATOM     15  C   UNL     1       3.217   3.738  18.105  0.00  0.00    +0.000 A 
ATOM     16  N   UNL     1       4.096   3.038  17.424  0.00  0.00    +0.000 NA
ATOM     17  C   UNL     1       4.793   4.015  16.768  0.00  0.00    +0.000 A 
ATOM     18  C   UNL     1       5.579   3.887  15.616  0.00  0.00    +0.000 A 
ATOM     19  C   UNL     1       5.832   5.041  14.871  0.00  0.00    +0.000 A 
ATOM     20  C   UNL     1       5.412   6.290  15.341  0.00  0.00    +0.000 A 
ATOM     21  C   UNL     1       4.806   6.456  16.602  0.00  0.00    +0.000 A 
ATOM     22  C   UNL     1       4.490   5.284  17.292  0.00  0.00    +0.000 A 
BRANCH  15  23
ATOM     23  S   UNL     1       1.487   3.642  17.887  0.00  0.00    +0.000 S 
ATOM     24  C   UNL     1       1.123   2.322  19.068  0.00  0.00    +0.000 C 
ENDBRANCH  15  23
ENDBRANCH  13  14
ENDBRANCH   2  13
TORSDOF 5
ENDMDL
MODEL 7
REMARK VINA RESULT:      -6.9      3.714      8.207
REMARK  Name = 
REMARK  7 active torsions:
REMARK  status: ('A' for Active; 'I' for Inactive)
REMARK    1  A    between atoms: C_1  and  C_2
REMARK    2  A    between atoms: C_2  and  C_3
REMARK    3  A    between atoms: C_6  and  N_7
REMARK    4  A    between atoms: C_8  and  C_10
REMARK    5  A    between atoms: C_10  and  N_11
REMARK    6  A    between atoms: C_12  and  S_13
REMARK    7  A    between atoms: S_13  and  C_14
REMARK                            x       y       z     vdW  Elec       q    Type
REMARK                         _______ _______ _______ _____ _____    ______ ____
ROOT
ATOM      1  N   UNL     1       2.075   8.181  20.061  0.00  0.00    +0.000 N 
ATOM      2  C   UNL     1       2.043   7.931  18.685  0.00  0.00    +0.000 C 
ATOM      3  O   UNL     1       1.262   8.464  17.895  0.00  0.00    +0.000 OA
ATOM      4  H   UNL     1       2.790   7.713  20.608  0.00  0.00    +0.000 HD
ENDROOT
BRANCH   1   8
ATOM      5  C   UNL     1      -0.674  10.660  22.267  0.00  0.00    +0.000 A 
ATOM      6  C   UNL     1      -0.569   9.292  22.549  0.00  0.00    +0.000 A 
ATOM      7  C   UNL     1       0.327   8.469  21.842  0.00  0.00    +0.000 A 
ATOM      8  C   UNL     1       1.149   8.959  20.819  0.00  0.00    +0.000 A 
ATOM      9  C   UNL     1       1.075  10.342  20.570  0.00  0.00    +0.000 A 
ATOM     10  C   UNL     1       0.171  11.178  21.282  0.00  0.00    +0.000 A 
BRANCH   5  12
ATOM     11  C   UNL     1      -2.404  12.535  22.072  0.00  0.00    +0.000 C 
ATOM     12  C   UNL     1      -1.702  11.519  22.966  0.00  0.00    +0.000 C 
ENDBRANCH   5  12
ENDBRANCH   1   8
BRANCH   2  13
ATOM     13  C   UNL     1       3.116   6.970  18.127  0.00  0.00    +0.000 C 
BRANCH  13  14
ATOM     14  N   UNL     1       2.850   5.546  18.297  0.00  0.00    +0.000 N 
ATOM     15  C   UNL     1       2.918   4.601  17.314  0.00  0.00    +0.000 A 
ATOM     16  N   UNL     1       1.877   3.805  17.405  0.00  0.00    +0.000 NA
ATOM     17  C   UNL     1       1.622   3.821  18.749  0.00  0.00    +0.000 A 
ATOM     18  C   UNL     1       0.900   2.885  19.501  0.00  0.00    +0.000 A 
ATOM     19  C   UNL     1       1.128   2.844  20.878  0.00  0.00    +0.000 A 
ATOM     20  C   UNL     1       1.957   3.794  21.485  0.00  0.00    +0.000 A 
ATOM     21  C   UNL     1       2.521   4.868  20.769  0.00  0.00    +0.000 A 
ATOM     22  C   UNL     1       2.348   4.844  19.384  0.00  0.00    +0.000 A 
BRANCH  15  23
ATOM     23  S   UNL     1       4.499   4.106  16.758  0.00  0.00    +0.000 S 
ATOM     24  C   UNL     1       5.380   4.138  18.336  0.00  0.00    +0.000 C 
ENDBRANCH  15  23
ENDBRANCH  13  14
ENDBRANCH   2  13
TORSDOF 5
ENDMDL
MODEL 8
REMARK VINA RESULT:      -6.9      2.997      8.189
REMARK  Name = 
REMARK  7 active torsions:
REMARK  status: ('A' for Active; 'I' for Inactive)
REMARK    1  A    between atoms: C_1  and  C_2
REMARK    2  A    between atoms: C_2  and  C_3
REMARK    3  A    between atoms: C_6  and  N_7
REMARK    4  A    between atoms: C_8  and  C_10
REMARK    5  A    between atoms: C_10  and  N_11
REMARK    6  A    between atoms: C_12  and  S_13
REMARK    7  A    between atoms: S_13  and  C_14
REMARK                            x       y       z     vdW  Elec       q    Type
REMARK                         _______ _______ _______ _____ _____    ______ ____
ROOT
ATOM      1  N   UNL     1       2.418   7.373  20.311  0.00  0.00    +0.000 N 
ATOM      2  C   UNL     1       2.212   5.994  20.421  0.00  0.00    +0.000 C 
ATOM      3  O   UNL     1       1.136   5.468  20.707  0.00  0.00    +0.000 OA
ATOM      4  H   UNL     1       3.340   7.690  20.029  0.00  0.00    +0.000 HD
ENDROOT
BRANCH   1   8
ATOM      5  C   UNL     1      -0.350  10.470  21.460  0.00  0.00    +0.000 A 
ATOM      6  C   UNL     1      -0.007  10.287  20.113  0.00  0.00    +0.000 A 
ATOM      7  C   UNL     1       0.891   9.278  19.721  0.00  0.00    +0.000 A 
ATOM      8  C   UNL     1       1.497   8.413  20.641  0.00  0.00    +0.000 A 
ATOM      9  C   UNL     1       1.116   8.569  21.986  0.00  0.00    +0.000 A 
ATOM     10  C   UNL     1       0.208   9.587  22.389  0.00  0.00    +0.000 A 
BRANCH   5  12
ATOM     11  C   UNL     1      -0.538  12.956  22.035  0.00  0.00    +0.000 C 
ATOM     12  C   UNL     1      -1.243  11.612  21.884  0.00  0.00    +0.000 C 
ENDBRANCH   5  12
ENDBRANCH   1   8
BRANCH   2  13
ATOM     13  C   UNL     1       3.414   5.082  20.087  0.00  0.00    +0.000 C 
BRANCH  13  14
ATOM     14  N   UNL     1       3.542   4.677  18.691  0.00  0.00    +0.000 N 
ATOM     15  C   UNL     1       3.083   3.508  18.156  0.00  0.00    +0.000 A 
ATOM     16  N   UNL     1       4.003   3.004  17.364  0.00  0.00    +0.000 NA
ATOM     17  C   UNL     1       4.628   4.129  16.900  0.00  0.00    +0.000 A 
ATOM     18  C   UNL     1       5.412   4.265  15.747  0.00  0.00    +0.000 A 
ATOM     19  C   UNL     1       5.580   5.550  15.225  0.00  0.00    +0.000 A 
ATOM     20  C   UNL     1       5.079   6.662  15.911  0.00  0.00    +0.000 A 
ATOM     21  C   UNL     1       4.471   6.555  17.177  0.00  0.00    +0.000 A 
ATOM     22  C   UNL     1       4.241   5.259  17.643  0.00  0.00    +0.000 A 
BRANCH  15  23
ATOM     23  S   UNL     1       1.362   3.334  17.914  0.00  0.00    +0.000 S 
ATOM     24  C   UNL     1       0.987   2.245  19.308  0.00  0.00    +0.000 C 
ENDBRANCH  15  23
ENDBRANCH  13  14
ENDBRANCH   2  13
TORSDOF 5
ENDMDL
MODEL 9
REMARK VINA RESULT:      -6.8      3.634      8.168
REMARK  Name = 
REMARK  7 active torsions:
REMARK  status: ('A' for Active; 'I' for Inactive)
REMARK    1  A    between atoms: C_1  and  C_2
REMARK    2  A    between atoms: C_2  and  C_3
REMARK    3  A    between atoms: C_6  and  N_7
REMARK    4  A    between atoms: C_8  and  C_10
REMARK    5  A    between atoms: C_10  and  N_11
REMARK    6  A    between atoms: C_12  and  S_13
REMARK    7  A    between atoms: S_13  and  C_14
REMARK                            x       y       z     vdW  Elec       q    Type
REMARK                         _______ _______ _______ _____ _____    ______ ____
ROOT
ATOM      1  N   UNL     1       2.189   8.493  19.795  0.00  0.00    +0.000 N 
ATOM      2  C   UNL     1       2.088   8.152  18.441  0.00  0.00    +0.000 C 
ATOM      3  O   UNL     1       1.193   8.537  17.687  0.00  0.00    +0.000 OA
ATOM      4  H   UNL     1       2.994   8.148  20.308  0.00  0.00    +0.000 HD
ENDROOT
BRANCH   1   8
ATOM      5  C   UNL     1      -0.719  10.514  22.250  0.00  0.00    +0.000 A 
ATOM      6  C   UNL     1      -0.098  11.184  21.187  0.00  0.00    +0.000 A 
ATOM      7  C   UNL     1       0.849  10.538  20.373  0.00  0.00    +0.000 A 
ATOM      8  C   UNL     1       1.233   9.206  20.579  0.00  0.00    +0.000 A 
ATOM      9  C   UNL     1       0.574   8.522  21.617  0.00  0.00    +0.000 A 
ATOM     10  C   UNL     1      -0.385   9.170  22.443  0.00  0.00    +0.000 A 
BRANCH   5  12
ATOM     11  C   UNL     1      -2.522  12.312  22.507  0.00  0.00    +0.000 C 
ATOM     12  C   UNL     1      -1.667  11.240  23.176  0.00  0.00    +0.000 C 
ENDBRANCH   5  12
ENDBRANCH   1   8
BRANCH   2  13
ATOM     13  C   UNL     1       3.227   7.288  17.854  0.00  0.00    +0.000 C 
BRANCH  13  14
ATOM     14  N   UNL     1       3.108   5.849  18.057  0.00  0.00    +0.000 N 
ATOM     15  C   UNL     1       3.702   4.886  17.293  0.00  0.00    +0.000 A 
ATOM     16  N   UNL     1       2.833   3.932  17.044  0.00  0.00    +0.000 NA
ATOM     17  C   UNL     1       2.045   3.965  18.162  0.00  0.00    +0.000 A 
ATOM     18  C   UNL     1       1.209   2.956  18.658  0.00  0.00    +0.000 A 
ATOM     19  C   UNL     1       0.850   3.014  20.006  0.00  0.00    +0.000 A 
ATOM     20  C   UNL     1       1.219   4.115  20.788  0.00  0.00    +0.000 A 
ATOM     21  C   UNL     1       1.879   5.236  20.247  0.00  0.00    +0.000 A 
ATOM     22  C   UNL     1       2.299   5.122  18.920  0.00  0.00    +0.000 A 
BRANCH  15  23
ATOM     23  S   UNL     1       5.421   4.637  17.476  0.00  0.00    +0.000 S 
ATOM     24  C   UNL     1       5.574   4.986  19.243  0.00  0.00    +0.000 C 
ENDBRANCH  15  23
ENDBRANCH  13  14
ENDBRANCH   2  13
TORSDOF 5
ENDMDL
