MODEL 1
REMARK VINA RESULT:      -6.7      0.000      0.000
REMARK  Name = 
REMARK  7 active torsions:
REMARK  status: ('A' for Active; 'I' for Inactive)
REMARK    1  A    between atoms: C_1  and  N_2
REMARK    2  A    between atoms: N_2  and  C_3
REMARK    3  A    between atoms: C_3  and  C_4
REMARK    4  A    between atoms: C_11  and  C_13
REMARK    5  A    between atoms: C_13  and  C_14
REMARK    6  A    between atoms: C_14  and  C_15
REMARK    7  A    between atoms: C_14  and  C_19
REMARK                            x       y       z     vdW  Elec       q    Type
REMARK                         _______ _______ _______ _____ _____    ______ ____
ROOT
ATOM      1  C   UNL     1       2.322   5.637  20.526  0.00  0.00    +0.000 C 
ATOM      2  N   UNL     1       2.847   6.182  19.280  0.00  0.00    +0.000 N 
ATOM      3  C   UNL     1       4.084   5.698  18.858  0.00  0.00    +0.000 C 
ATOM      4  O   UNL     1       4.722   4.913  19.557  0.00  0.00    +0.000 OA
ENDROOT
BRANCH   2   5
ATOM      5  C   UNL     1       1.982   7.086  18.524  0.00  0.00    +0.000 C 
BRANCH   5   6
ATOM      6  C   UNL     1       1.998   8.523  19.053  0.00  0.00    +0.000 C 
ATOM      7  C   UNL     1       1.686   9.532  17.934  0.00  0.00    +0.000 C 
ATOM      8  C   UNL     1       1.513  10.880  18.617  0.00  0.00    +0.000 C 
ATOM      9  S   UNL     1       0.593  10.523  20.100  0.00  0.00    +0.000 S 
ATOM     10  O   UNL     1      -0.817  10.675  19.798  0.00  0.00    +0.000 OA
ATOM     11  O   UNL     1       1.229  11.183  21.216  0.00  0.00    +0.000 OA
ATOM     12  C   UNL     1       0.965   8.780  20.159  0.00  0.00    +0.000 C 
ENDBRANCH   5   6
ENDBRANCH   2   5
BRANCH   3  13
ATOM     13  C   UNL     1       4.641   6.224  17.538  0.00  0.00    +0.000 C 
BRANCH  13  14
ATOM     14  C   UNL     1       5.887   5.499  17.005  0.00  0.00    +0.000 C 
BRANCH  14  15
ATOM     15  C   UNL     1       5.882   5.355  15.470  0.00  0.00    +0.000 C 
ATOM     16  C   UNL     1       7.231   5.000  14.763  0.00  0.00    +0.000 C 
ATOM     17  C   UNL     1       6.424   4.164  13.754  0.00  0.00    +0.000 C 
ATOM     18  C   UNL     1       5.358   4.017  14.848  0.00  0.00    +0.000 C 
ENDBRANCH  14  15
BRANCH  14  19
ATOM     19  C   UNL     1       7.180   6.300  17.275  0.00  0.00    +0.000 C 
ATOM     20  C   UNL     1       7.210   7.859  17.389  0.00  0.00    +0.000 C 
ATOM     21  C   UNL     1       8.359   7.696  18.409  0.00  0.00    +0.000 C 
ATOM     22  C   UNL     1       7.807   6.288  18.705  0.00  0.00    +0.000 C 
ENDBRANCH  14  19
ENDBRANCH  13  14
ENDBRANCH   3  13
TORSDOF 6
ENDMDL
MODEL 2
REMARK VINA RESULT:      -6.6      1.425      1.706
REMARK  Name = 
REMARK  7 active torsions:
REMARK  status: ('A' for Active; 'I' for Inactive)
REMARK    1  A    between atoms: C_1  and  N_2
REMARK    2  A    between atoms: N_2  and  C_3
REMARK    3  A    between atoms: C_3  and  C_4
REMARK    4  A    between atoms: C_11  and  C_13
REMARK    5  A    between atoms: C_13  and  C_14
REMARK    6  A    between atoms: C_14  and  C_15
REMARK    7  A    between atoms: C_14  and  C_19
REMARK                            x       y       z     vdW  Elec       q    Type
REMARK                         _______ _______ _______ _____ _____    ______ ____
ROOT
ATOM      1  C   UNL     1       2.203   3.524  19.663  0.00  0.00    +0.000 C 
ATOM      2  N   UNL     1       3.014   4.630  19.168  0.00  0.00    +0.000 N 
ATOM      3  C   UNL     1       4.397   4.464  19.217  0.00  0.00    +0.000 C 
ATOM      4  O   UNL     1       4.889   3.461  19.732  0.00  0.00    +0.000 OA
ENDROOT
BRANCH   2   5
ATOM      5  C   UNL     1       2.312   5.755  18.552  0.00  0.00    +0.000 C 
BRANCH   5   6
ATOM      6  C   UNL     1       2.312   7.017  19.418  0.00  0.00    +0.000 C 
ATOM      7  C   UNL     1       1.679   8.205  18.673  0.00  0.00    +0.000 C 
ATOM      8  C   UNL     1       1.538   9.320  19.698  0.00  0.00    +0.000 C 
ATOM      9  S   UNL     1       0.992   8.503  21.185  0.00  0.00    +0.000 S 
ATOM     10  O   UNL     1      -0.457   8.524  21.199  0.00  0.00    +0.000 OA
ATOM     11  O   UNL     1       1.791   8.968  22.295  0.00  0.00    +0.000 OA
ATOM     12  C   UNL     1       1.522   6.864  20.725  0.00  0.00    +0.000 C 
ENDBRANCH   5   6
ENDBRANCH   2   5
BRANCH   3  13
ATOM     13  C   UNL     1       5.268   5.590  18.672  0.00  0.00    +0.000 C 
BRANCH  13  14
ATOM     14  C   UNL     1       6.585   5.152  18.009  0.00  0.00    +0.000 C 
BRANCH  14  15
ATOM     15  C   UNL     1       6.363   4.411  16.677  0.00  0.00    +0.000 C 
ATOM     16  C   UNL     1       5.154   4.851  15.786  0.00  0.00    +0.000 C 
ATOM     17  C   UNL     1       6.024   4.554  14.551  0.00  0.00    +0.000 C 
ATOM     18  C   UNL     1       7.244   4.809  15.445  0.00  0.00    +0.000 C 
ENDBRANCH  14  15
BRANCH  14  19
ATOM     19  C   UNL     1       7.451   6.362  17.594  0.00  0.00    +0.000 C 
ATOM     20  C   UNL     1       6.850   7.758  17.230  0.00  0.00    +0.000 C 
ATOM     21  C   UNL     1       8.131   8.390  17.818  0.00  0.00    +0.000 C 
ATOM     22  C   UNL     1       8.282   7.120  18.678  0.00  0.00    +0.000 C 
ENDBRANCH  14  19
ENDBRANCH  13  14
ENDBRANCH   3  13
TORSDOF 6
ENDMDL
MODEL 3
REMARK VINA RESULT:      -6.6      2.531      4.421
REMARK  Name = 
REMARK  7 active torsions:
REMARK  status: ('A' for Active; 'I' for Inactive)
REMARK    1  A    between atoms: C_1  and  N_2
REMARK    2  A    between atoms: N_2  and  C_3
REMARK    3  A    between atoms: C_3  and  C_4
REMARK    4  A    between atoms: C_11  and  C_13
REMARK    5  A    between atoms: C_13  and  C_14
REMARK    6  A    between atoms: C_14  and  C_15
REMARK    7  A    between atoms: C_14  and  C_19
REMARK                            x       y       z     vdW  Elec       q    Type
REMARK                         _______ _______ _______ _____ _____    ______ ____
ROOT
ATOM      1  C   UNL     1       1.955   9.973  17.888  0.00  0.00    +0.000 C 
ATOM      2  N   UNL     1       1.851   8.768  18.701  0.00  0.00    +0.000 N 
ATOM      3  C   UNL     1       2.684   7.705  18.355  0.00  0.00    +0.000 C 
ATOM      4  O   UNL     1       3.404   7.772  17.361  0.00  0.00    +0.000 OA
ENDROOT
BRANCH   2   5
ATOM      5  C   UNL     1       0.980   8.822  19.874  0.00  0.00    +0.000 C 
BRANCH   5   6
ATOM      6  C   UNL     1       0.511  10.239  20.216  0.00  0.00    +0.000 C 
ATOM      7  C   UNL     1      -0.962  10.448  19.826  0.00  0.00    +0.000 C 
ATOM      8  C   UNL     1      -1.367  11.794  20.409  0.00  0.00    +0.000 C 
ATOM      9  S   UNL     1      -0.612  11.834  22.023  0.00  0.00    +0.000 S 
ATOM     10  O   UNL     1      -1.571  11.312  22.977  0.00  0.00    +0.000 OA
ATOM     11  O   UNL     1       0.052  13.104  22.197  0.00  0.00    +0.000 OA
ATOM     12  C   UNL     1       0.608  10.571  21.711  0.00  0.00    +0.000 C 
ENDBRANCH   5   6
ENDBRANCH   2   5
BRANCH   3  13
ATOM     13  C   UNL     1       2.621   6.445  19.211  0.00  0.00    +0.000 C 
BRANCH  13  14
ATOM     14  C   UNL     1       2.393   5.131  18.446  0.00  0.00    +0.000 C 
BRANCH  14  15
ATOM     15  C   UNL     1       3.699   4.345  18.209  0.00  0.00    +0.000 C 
ATOM     16  C   UNL     1       4.436   4.546  16.844  0.00  0.00    +0.000 C 
ATOM     17  C   UNL     1       5.768   4.400  17.601  0.00  0.00    +0.000 C 
ATOM     18  C   UNL     1       5.021   4.885  18.851  0.00  0.00    +0.000 C 
ENDBRANCH  14  15
BRANCH  14  19
ATOM     19  C   UNL     1       1.531   4.136  19.253  0.00  0.00    +0.000 C 
ATOM     20  C   UNL     1       1.948   2.650  19.503  0.00  0.00    +0.000 C 
ATOM     21  C   UNL     1       1.225   2.744  20.864  0.00  0.00    +0.000 C 
ATOM     22  C   UNL     1       1.459   4.266  20.808  0.00  0.00    +0.000 C 
ENDBRANCH  14  19
ENDBRANCH  13  14
ENDBRANCH   3  13
TORSDOF 6
ENDMDL
MODEL 4
REMARK VINA RESULT:      -6.5      3.236      7.349
REMARK  Name = 
REMARK  7 active torsions:
REMARK  status: ('A' for Active; 'I' for Inactive)
REMARK    1  A    between atoms: C_1  and  N_2
REMARK    2  A    between atoms: N_2  and  C_3
REMARK    3  A    between atoms: C_3  and  C_4
REMARK    4  A    between atoms: C_11  and  C_13
REMARK    5  A    between atoms: C_13  and  C_14
REMARK    6  A    between atoms: C_14  and  C_15
REMARK    7  A    between atoms: C_14  and  C_19
REMARK                            x       y       z     vdW  Elec       q    Type
REMARK                         _______ _______ _______ _____ _____    ______ ____
ROOT
ATOM      1  C   UNL     1       2.787   3.091  19.464  0.00  0.00    +0.000 C 
ATOM      2  N   UNL     1       2.817   4.492  19.064  0.00  0.00    +0.000 N 
ATOM      3  C   UNL     1       2.554   5.432  20.058  0.00  0.00    +0.000 C 
ATOM      4  O   UNL     1       2.233   5.075  21.190  0.00  0.00    +0.000 OA
ENDROOT
BRANCH   2   5
ATOM      5  C   UNL     1       3.241   4.791  17.697  0.00  0.00    +0.000 C 
BRANCH   5   6
ATOM      6  C   UNL     1       4.660   4.309  17.383  0.00  0.00    +0.000 C 
ATOM      7  C   UNL     1       4.911   4.267  15.866  0.00  0.00    +0.000 C 
ATOM      8  C   UNL     1       6.397   3.992  15.691  0.00  0.00    +0.000 C 
ATOM      9  S   UNL     1       7.192   4.988  16.937  0.00  0.00    +0.000 S 
ATOM     10  O   UNL     1       7.521   6.268  16.342  0.00  0.00    +0.000 OA
ATOM     11  O   UNL     1       8.162   4.178  17.636  0.00  0.00    +0.000 OA
ATOM     12  C   UNL     1       5.756   5.207  17.972  0.00  0.00    +0.000 C 
ENDBRANCH   5   6
ENDBRANCH   2   5
BRANCH   3  13
ATOM     13  C   UNL     1       2.615   6.908  19.675  0.00  0.00    +0.000 C 
BRANCH  13  14
ATOM     14  C   UNL     1       1.328   7.713  19.921  0.00  0.00    +0.000 C 
BRANCH  14  15
ATOM     15  C   UNL     1       1.061   7.967  21.418  0.00  0.00    +0.000 C 
ATOM     16  C   UNL     1       1.521   9.334  22.023  0.00  0.00    +0.000 C 
ATOM     17  C   UNL     1       0.274   9.296  22.924  0.00  0.00    +0.000 C 
ATOM     18  C   UNL     1      -0.376   8.410  21.854  0.00  0.00    +0.000 C 
ENDBRANCH  14  15
BRANCH  14  19
ATOM     19  C   UNL     1       1.422   9.140  19.338  0.00  0.00    +0.000 C 
ATOM     20  C   UNL     1       2.034   9.451  17.933  0.00  0.00    +0.000 C 
ATOM     21  C   UNL     1       1.024  10.613  17.822  0.00  0.00    +0.000 C 
ATOM     22  C   UNL     1       0.129   9.842  18.811  0.00  0.00    +0.000 C 
ENDBRANCH  14  19
ENDBRANCH  13  14
ENDBRANCH   3  13
TORSDOF 6
ENDMDL
MODEL 5
REMARK VINA RESULT:      -6.5      2.959      4.665
REMARK  Name = 
REMARK  7 active torsions:
REMARK  status: ('A' for Active; 'I' for Inactive)
REMARK    1  A    between atoms: C_1  and  N_2
REMARK    2  A    between atoms: N_2  and  C_3
REMARK    3  A    between atoms: C_3  and  C_4
REMARK    4  A    between atoms: C_11  and  C_13
REMARK    5  A    between atoms: C_13  and  C_14
REMARK    6  A    between atoms: C_14  and  C_15
REMARK    7  A    between atoms: C_14  and  C_19
REMARK                            x       y       z     vdW  Elec       q    Type
REMARK                         _______ _______ _______ _____ _____    ______ ____
ROOT
ATOM      1  C   UNL     1       2.140   7.104  19.168  0.00  0.00    +0.000 C 
ATOM      2  N   UNL     1       2.763   6.394  18.058  0.00  0.00    +0.000 N 
ATOM      3  C   UNL     1       3.978   6.896  17.597  0.00  0.00    +0.000 C 
ATOM      4  O   UNL     1       4.444   7.934  18.063  0.00  0.00    +0.000 OA
ENDROOT
BRANCH   2   5
ATOM      5  C   UNL     1       2.127   5.156  17.611  0.00  0.00    +0.000 C 
BRANCH   5   6
ATOM      6  C   UNL     1       2.220   4.022  18.635  0.00  0.00    +0.000 C 
ATOM      7  C   UNL     1       2.563   2.684  17.957  0.00  0.00    +0.000 C 
ATOM      8  C   UNL     1       2.843   1.700  19.082  0.00  0.00    +0.000 C 
ATOM      9  S   UNL     1       3.783   2.631  20.276  0.00  0.00    +0.000 S 
ATOM     10  O   UNL     1       5.190   2.445  19.979  0.00  0.00    +0.000 OA
ATOM     11  O   UNL     1       3.225   2.406  21.589  0.00  0.00    +0.000 OA
ATOM     12  C   UNL     1       3.300   4.248  19.702  0.00  0.00    +0.000 C 
ENDBRANCH   5   6
ENDBRANCH   2   5
BRANCH   3  13
ATOM     13  C   UNL     1       4.670   6.151  16.460  0.00  0.00    +0.000 C 
BRANCH  13  14
ATOM     14  C   UNL     1       5.565   4.974  16.881  0.00  0.00    +0.000 C 
BRANCH  14  15
ATOM     15  C   UNL     1       5.983   4.088  15.692  0.00  0.00    +0.000 C 
ATOM     16  C   UNL     1       5.091   4.117  14.407  0.00  0.00    +0.000 C 
ATOM     17  C   UNL     1       6.375   3.952  13.575  0.00  0.00    +0.000 C 
ATOM     18  C   UNL     1       7.125   4.595  14.749  0.00  0.00    +0.000 C 
ENDBRANCH  14  15
BRANCH  14  19
ATOM     19  C   UNL     1       6.918   5.455  17.450  0.00  0.00    +0.000 C 
ATOM     20  C   UNL     1       7.412   6.934  17.345  0.00  0.00    +0.000 C 
ATOM     21  C   UNL     1       8.120   6.726  18.701  0.00  0.00    +0.000 C 
ATOM     22  C   UNL     1       7.089   5.619  18.994  0.00  0.00    +0.000 C 
ENDBRANCH  14  19
ENDBRANCH  13  14
ENDBRANCH   3  13
TORSDOF 6
ENDMDL
MODEL 6
REMARK VINA RESULT:      -6.5      1.244      1.806
REMARK  Name = 
REMARK  7 active torsions:
REMARK  status: ('A' for Active; 'I' for Inactive)
REMARK    1  A    between atoms: C_1  and  N_2
REMARK    2  A    between atoms: N_2  and  C_3
REMARK    3  A    between atoms: C_3  and  C_4
REMARK    4  A    between atoms: C_11  and  C_13
REMARK    5  A    between atoms: C_13  and  C_14
REMARK    6  A    between atoms: C_14  and  C_15
REMARK    7  A    between atoms: C_14  and  C_19
REMARK                            x       y       z     vdW  Elec       q    Type
REMARK                         _______ _______ _______ _____ _____    ______ ____
ROOT
ATOM      1  C   UNL     1       1.648   5.126  18.713  0.00  0.00    +0.000 C 
ATOM      2  N   UNL     1       2.811   5.710  18.057  0.00  0.00    +0.000 N 
ATOM      3  C   UNL     1       3.613   4.842  17.318  0.00  0.00    +0.000 C 
ATOM      4  O   UNL     1       3.380   3.635  17.300  0.00  0.00    +0.000 OA
ENDROOT
BRANCH   2   5
ATOM      5  C   UNL     1       2.964   7.161  18.127  0.00  0.00    +0.000 C 
BRANCH   5   6
ATOM      6  C   UNL     1       1.736   7.873  18.701  0.00  0.00    +0.000 C 
ATOM      7  C   UNL     1       1.896   8.134  20.209  0.00  0.00    +0.000 C 
ATOM      8  C   UNL     1       0.732   9.028  20.609  0.00  0.00    +0.000 C 
ATOM      9  S   UNL     1       0.580  10.198  19.274  0.00  0.00    +0.000 S 
ATOM     10  O   UNL     1       1.379  11.361  19.607  0.00  0.00    +0.000 OA
ATOM     11  O   UNL     1      -0.809  10.289  18.887  0.00  0.00    +0.000 OA
ATOM     12  C   UNL     1       1.466   9.241  18.058  0.00  0.00    +0.000 C 
ENDBRANCH   5   6
ENDBRANCH   2   5
BRANCH   3  13
ATOM     13  C   UNL     1       4.818   5.433  16.591  0.00  0.00    +0.000 C 
BRANCH  13  14
ATOM     14  C   UNL     1       6.144   4.676  16.776  0.00  0.00    +0.000 C 
BRANCH  14  15
ATOM     15  C   UNL     1       6.692   4.104  15.454  0.00  0.00    +0.000 C 
ATOM     16  C   UNL     1       5.661   3.643  14.371  0.00  0.00    +0.000 C 
ATOM     17  C   UNL     1       6.644   4.143  13.297  0.00  0.00    +0.000 C 
ATOM     18  C   UNL     1       7.193   5.105  14.359  0.00  0.00    +0.000 C 
ENDBRANCH  14  15
BRANCH  14  19
ATOM     19  C   UNL     1       7.279   5.610  17.249  0.00  0.00    +0.000 C 
ATOM     20  C   UNL     1       7.123   7.163  17.346  0.00  0.00    +0.000 C 
ATOM     21  C   UNL     1       8.094   7.120  18.546  0.00  0.00    +0.000 C 
ATOM     22  C   UNL     1       7.653   5.659  18.764  0.00  0.00    +0.000 C 
ENDBRANCH  14  19
ENDBRANCH  13  14
ENDBRANCH   3  13
TORSDOF 6
ENDMDL
MODEL 7
REMARK VINA RESULT:      -6.4      2.432      3.745
REMARK  Name = 
REMARK  7 active torsions:
REMARK  status: ('A' for Active; 'I' for Inactive)
REMARK    1  A    between atoms: C_1  and  N_2
REMARK    2  A    between atoms: N_2  and  C_3
REMARK    3  A    between atoms: C_3  and  C_4
REMARK    4  A    between atoms: C_11  and  C_13
REMARK    5  A    between atoms: C_13  and  C_14
REMARK    6  A    between atoms: C_14  and  C_15
REMARK    7  A    between atoms: C_14  and  C_19
REMARK                            x       y       z     vdW  Elec       q    Type
REMARK                         _______ _______ _______ _____ _____    ______ ____
ROOT
ATOM      1  C   UNL     1       0.794   8.967  21.130  0.00  0.00    +0.000 C 
ATOM      2  N   UNL     1       1.373   8.696  19.820  0.00  0.00    +0.000 N 
ATOM      3  C   UNL     1       2.011   7.467  19.660  0.00  0.00    +0.000 C 
ATOM      4  O   UNL     1       2.139   6.699  20.612  0.00  0.00    +0.000 OA
ENDROOT
BRANCH   2   5
ATOM      5  C   UNL     1       1.128   9.674  18.762  0.00  0.00    +0.000 C 
BRANCH   5   6
ATOM      6  C   UNL     1      -0.273  10.290  18.818  0.00  0.00    +0.000 C 
ATOM      7  C   UNL     1      -0.224  11.809  18.581  0.00  0.00    +0.000 C 
ATOM      8  C   UNL     1      -1.670  12.262  18.440  0.00  0.00    +0.000 C 
ATOM      9  S   UNL     1      -2.448  10.994  17.461  0.00  0.00    +0.000 S 
ATOM     10  O   UNL     1      -2.358  11.387  16.068  0.00  0.00    +0.000 OA
ATOM     11  O   UNL     1      -3.695  10.617  18.087  0.00  0.00    +0.000 OA
ATOM     12  C   UNL     1      -1.233   9.724  17.762  0.00  0.00    +0.000 C 
ENDBRANCH   5   6
ENDBRANCH   2   5
BRANCH   3  13
ATOM     13  C   UNL     1       2.594   7.142  18.289  0.00  0.00    +0.000 C 
BRANCH  13  14
ATOM     14  C   UNL     1       3.674   6.048  18.267  0.00  0.00    +0.000 C 
BRANCH  14  15
ATOM     15  C   UNL     1       3.173   4.728  17.649  0.00  0.00    +0.000 C 
ATOM     16  C   UNL     1       3.341   3.417  18.485  0.00  0.00    +0.000 C 
ATOM     17  C   UNL     1       2.003   2.932  17.899  0.00  0.00    +0.000 C 
ATOM     18  C   UNL     1       1.641   4.411  17.708  0.00  0.00    +0.000 C 
ENDBRANCH  14  15
BRANCH  14  19
ATOM     19  C   UNL     1       4.863   6.429  17.357  0.00  0.00    +0.000 C 
ATOM     20  C   UNL     1       6.355   6.176  17.750  0.00  0.00    +0.000 C 
ATOM     21  C   UNL     1       6.645   5.961  16.249  0.00  0.00    +0.000 C 
ATOM     22  C   UNL     1       5.163   5.573  16.086  0.00  0.00    +0.000 C 
ENDBRANCH  14  19
ENDBRANCH  13  14
ENDBRANCH   3  13
TORSDOF 6
ENDMDL
MODEL 8
REMARK VINA RESULT:      -6.4      3.350      7.108
REMARK  Name = 
REMARK  7 active torsions:
REMARK  status: ('A' for Active; 'I' for Inactive)
REMARK    1  A    between atoms: C_1  and  N_2
REMARK    2  A    between atoms: N_2  and  C_3
REMARK    3  A    between atoms: C_3  and  C_4
REMARK    4  A    between atoms: C_11  and  C_13
REMARK    5  A    between atoms: C_13  and  C_14
REMARK    6  A    between atoms: C_14  and  C_15
REMARK    7  A    between atoms: C_14  and  C_19
REMARK                            x       y       z     vdW  Elec       q    Type
REMARK                         _______ _______ _______ _____ _____    ______ ____
ROOT
ATOM      1  C   UNL     1       2.162   3.177  18.543  0.00  0.00    +0.000 C 
ATOM      2  N   UNL     1       2.475   4.589  18.729  0.00  0.00    +0.000 N 
ATOM      3  C   UNL     1       2.116   5.153  19.952  0.00  0.00    +0.000 C 
ATOM      4  O   UNL     1       1.495   4.498  20.787  0.00  0.00    +0.000 OA
ENDROOT
BRANCH   2   5
ATOM      5  C   UNL     1       3.242   5.251  17.676  0.00  0.00    +0.000 C 
BRANCH   5   6
ATOM      6  C   UNL     1       4.710   5.478  18.046  0.00  0.00    +0.000 C 
ATOM      7  C   UNL     1       5.563   4.239  17.726  0.00  0.00    +0.000 C 
ATOM      8  C   UNL     1       7.012   4.661  17.926  0.00  0.00    +0.000 C 
ATOM      9  S   UNL     1       7.105   6.301  17.237  0.00  0.00    +0.000 S 
ATOM     10  O   UNL     1       7.500   6.179  15.847  0.00  0.00    +0.000 OA
ATOM     11  O   UNL     1       7.791   7.163  18.171  0.00  0.00    +0.000 OA
ATOM     12  C   UNL     1       5.357   6.648  17.292  0.00  0.00    +0.000 C 
ENDBRANCH   5   6
ENDBRANCH   2   5
BRANCH   3  13
ATOM     13  C   UNL     1       2.464   6.620  20.187  0.00  0.00    +0.000 C 
BRANCH  13  14
ATOM     14  C   UNL     1       1.272   7.591  20.216  0.00  0.00    +0.000 C 
BRANCH  14  15
ATOM     15  C   UNL     1       0.928   8.069  21.640  0.00  0.00    +0.000 C 
ATOM     16  C   UNL     1       1.327   9.528  22.040  0.00  0.00    +0.000 C 
ATOM     17  C   UNL     1       0.040   9.595  22.880  0.00  0.00    +0.000 C 
ATOM     18  C   UNL     1      -0.538   8.531  21.938  0.00  0.00    +0.000 C 
ENDBRANCH  14  15
BRANCH  14  19
ATOM     19  C   UNL     1       1.584   8.908  19.472  0.00  0.00    +0.000 C 
ATOM     20  C   UNL     1       2.409   8.966  18.146  0.00  0.00    +0.000 C 
ATOM     21  C   UNL     1       1.541  10.176  17.736  0.00  0.00    +0.000 C 
ATOM     22  C   UNL     1       0.450   9.627  18.674  0.00  0.00    +0.000 C 
ENDBRANCH  14  19
ENDBRANCH  13  14
ENDBRANCH   3  13
TORSDOF 6
ENDMDL
MODEL 9
REMARK VINA RESULT:      -6.4      2.749      4.980
REMARK  Name = 
REMARK  7 active torsions:
REMARK  status: ('A' for Active; 'I' for Inactive)
REMARK    1  A    between atoms: C_1  and  N_2
REMARK    2  A    between atoms: N_2  and  C_3
REMARK    3  A    between atoms: C_3  and  C_4
REMARK    4  A    between atoms: C_11  and  C_13
REMARK    5  A    between atoms: C_13  and  C_14
REMARK    6  A    between atoms: C_14  and  C_15
REMARK    7  A    between atoms: C_14  and  C_19
REMARK                            x       y       z     vdW  Elec       q    Type
REMARK                         _______ _______ _______ _____ _____    ______ ____
ROOT
ATOM      1  C   UNL     1       0.946  10.382  18.567  0.00  0.00    +0.000 C 
ATOM      2  N   UNL     1       1.351   9.288  19.442  0.00  0.00    +0.000 N 
ATOM      3  C   UNL     1       1.909   8.169  18.827  0.00  0.00    +0.000 C 
ATOM      4  O   UNL     1       1.973   8.093  17.602  0.00  0.00    +0.000 OA
ENDROOT
BRANCH   2   5
ATOM      5  C   UNL     1       1.253   9.510  20.884  0.00  0.00    +0.000 C 
BRANCH   5   6
ATOM      6  C   UNL     1      -0.014  10.264  21.296  0.00  0.00    +0.000 C 
ATOM      7  C   UNL     1      -0.368   9.994  22.769  0.00  0.00    +0.000 C 
ATOM      8  C   UNL     1      -1.495  10.957  23.116  0.00  0.00    +0.000 C 
ATOM      9  S   UNL     1      -1.040  12.489  22.329  0.00  0.00    +0.000 S 
ATOM     10  O   UNL     1      -0.288  13.277  23.286  0.00  0.00    +0.000 OA
ATOM     11  O   UNL     1      -2.185  13.008  21.617  0.00  0.00    +0.000 OA
ATOM     12  C   UNL     1       0.109  11.788  21.159  0.00  0.00    +0.000 C 
ENDBRANCH   5   6
ENDBRANCH   2   5
BRANCH   3  13
ATOM     13  C   UNL     1       2.375   7.025  19.722  0.00  0.00    +0.000 C 
BRANCH  13  14
ATOM     14  C   UNL     1       2.080   5.609  19.200  0.00  0.00    +0.000 C 
BRANCH  14  15
ATOM     15  C   UNL     1       3.358   4.840  18.809  0.00  0.00    +0.000 C 
ATOM     16  C   UNL     1       3.382   4.116  17.422  0.00  0.00    +0.000 C 
ATOM     17  C   UNL     1       4.875   4.474  17.320  0.00  0.00    +0.000 C 
ATOM     18  C   UNL     1       4.578   5.651  18.257  0.00  0.00    +0.000 C 
ENDBRANCH  14  15
BRANCH  14  19
ATOM     19  C   UNL     1       1.454   4.712  20.290  0.00  0.00    +0.000 C 
ATOM     20  C   UNL     1       0.917   3.271  20.006  0.00  0.00    +0.000 C 
ATOM     21  C   UNL     1       1.347   2.898  21.441  0.00  0.00    +0.000 C 
ATOM     22  C   UNL     1       2.376   4.043  21.358  0.00  0.00    +0.000 C 
ENDBRANCH  14  19
ENDBRANCH  13  14
ENDBRANCH   3  13
TORSDOF 6
ENDMDL
