MODEL 1
REMARK VINA RESULT:      -6.3      0.000      0.000
REMARK  Name = 
REMARK  9 active torsions:
REMARK  status: ('A' for Active; 'I' for Inactive)
REMARK    1  A    between atoms: C_1  and  O_2
REMARK    2  A    between atoms: O_2  and  C_3
REMARK    3  A    between atoms: C_4  and  O_5
REMARK    4  A    between atoms: O_5  and  C_6
REMARK    5  A    between atoms: C_7  and  O_8
REMARK    6  A    between atoms: O_8  and  C_9
REMARK    7  A    between atoms: C_12  and  O_13
REMARK    8  A    between atoms: C_19  and  N_20
REMARK    9  A    between atoms: N_25  and  C_26
REMARK                            x       y       z     vdW  Elec       q    Type
REMARK                         _______ _______ _______ _____ _____    ______ ____
ROOT
ATOM      1  C   UNL     1       1.426  12.595  18.960  0.00  0.00    +0.000 A 
ATOM      2  C   UNL     1       0.874  12.553  20.257  0.00  0.00    +0.000 A 
ATOM      3  C   UNL     1       0.763  11.312  20.956  0.00  0.00    +0.000 A 
ATOM      4  C   UNL     1       1.195  10.079  20.367  0.00  0.00    +0.000 A 
ATOM      5  C   UNL     1       1.739  10.169  19.064  0.00  0.00    +0.000 A 
ATOM      6  C   UNL     1       1.869  11.398  18.384  0.00  0.00    +0.000 A 
ATOM      7  C   UNL     1       2.177   8.933  18.382  0.00  0.00    +0.000 A 
ATOM      8  O   UNL     1       2.636   8.986  17.241  0.00  0.00    +0.000 OA
ATOM      9  C   UNL     1       2.061   7.633  19.050  0.00  0.00    +0.000 A 
ATOM     10  C   UNL     1       2.478   6.486  18.346  0.00  0.00    +0.000 A 
ATOM     11  C   UNL     1       2.390   5.234  18.939  0.00  0.00    +0.000 A 
ATOM     12  C   UNL     1       1.892   5.148  20.238  0.00  0.00    +0.000 A 
ATOM     13  C   UNL     1       1.472   6.300  20.928  0.00  0.00    +0.000 A 
ATOM     14  C   UNL     1       1.544   7.585  20.353  0.00  0.00    +0.000 A 
ATOM     15  N   UNL     1       1.131   8.782  20.989  0.00  0.00    +0.000 N 
ATOM     16  C   UNL     1       0.627   8.718  22.369  0.00  0.00    +0.000 C 
ENDROOT
BRANCH  12  17
ATOM     17  N   UNL     1       1.798   3.833  20.892  0.00  0.00    +0.000 N 
ATOM     18  O   UNL     1       1.279   2.908  20.252  0.00  0.00    +0.000 OA
ATOM     19  O   UNL     1       2.246   3.728  22.042  0.00  0.00    +0.000 OA
ENDBRANCH  12  17
BRANCH   1  21
ATOM     20  C   UNL     1       2.833  14.443  18.383  0.00  0.00    +0.000 C 
ATOM     21  O   UNL     1       1.545  13.829  18.362  0.00  0.00    +0.000 OA
ENDBRANCH   1  21
BRANCH   2  22
ATOM     22  O   UNL     1       0.473  13.671  20.950  0.00  0.00    +0.000 OA
ATOM     23  C   UNL     1       1.433  14.375  21.725  0.00  0.00    +0.000 C 
ENDBRANCH   2  22
BRANCH   3  24
ATOM     24  O   UNL     1       0.087  11.230  22.158  0.00  0.00    +0.000 OA
ATOM     25  C   UNL     1      -1.290  11.590  22.203  0.00  0.00    +0.000 C 
ENDBRANCH   3  24
BRANCH   6  26
ATOM     26  O   UNL     1       2.470  11.445  17.146  0.00  0.00    +0.000 OA
ATOM     27  H   UNL     1       2.656  12.382  16.911  0.00  0.00    +0.000 HD
ENDBRANCH   6  26
TORSDOF 5
ENDMDL
MODEL 2
REMARK VINA RESULT:      -6.2      1.263      1.481
REMARK  Name = 
REMARK  9 active torsions:
REMARK  status: ('A' for Active; 'I' for Inactive)
REMARK    1  A    between atoms: C_1  and  O_2
REMARK    2  A    between atoms: O_2  and  C_3
REMARK    3  A    between atoms: C_4  and  O_5
REMARK    4  A    between atoms: O_5  and  C_6
REMARK    5  A    between atoms: C_7  and  O_8
REMARK    6  A    between atoms: O_8  and  C_9
REMARK    7  A    between atoms: C_12  and  O_13
REMARK    8  A    between atoms: C_19  and  N_20
REMARK    9  A    between atoms: N_25  and  C_26
REMARK                            x       y       z     vdW  Elec       q    Type
REMARK                         _______ _______ _______ _____ _____    ______ ____
ROOT
ATOM      1  C   UNL     1       0.237  13.535  19.704  0.00  0.00    +0.000 A 
ATOM      2  C   UNL     1      -0.145  13.227  21.025  0.00  0.00    +0.000 A 
ATOM      3  C   UNL     1       0.064  11.914  21.551  0.00  0.00    +0.000 A 
ATOM      4  C   UNL     1       0.652  10.875  20.759  0.00  0.00    +0.000 A 
ATOM      5  C   UNL     1       1.016  11.229  19.438  0.00  0.00    +0.000 A 
ATOM      6  C   UNL     1       0.831  12.532  18.929  0.00  0.00    +0.000 A 
ATOM      7  C   UNL     1       1.601  10.200  18.554  0.00  0.00    +0.000 A 
ATOM      8  O   UNL     1       1.908  10.481  17.395  0.00  0.00    +0.000 OA
ATOM      9  C   UNL     1       1.812   8.834  19.041  0.00  0.00    +0.000 A 
ATOM     10  C   UNL     1       2.356   7.888  18.149  0.00  0.00    +0.000 A 
ATOM     11  C   UNL     1       2.577   6.582  18.566  0.00  0.00    +0.000 A 
ATOM     12  C   UNL     1       2.257   6.242  19.879  0.00  0.00    +0.000 A 
ATOM     13  C   UNL     1       1.707   7.193  20.758  0.00  0.00    +0.000 A 
ATOM     14  C   UNL     1       1.466   8.525  20.364  0.00  0.00    +0.000 A 
ATOM     15  N   UNL     1       0.908   9.527  21.197  0.00  0.00    +0.000 N 
ATOM     16  C   UNL     1       0.587   9.198  22.593  0.00  0.00    +0.000 C 
ENDROOT
BRANCH  12  17
ATOM     17  N   UNL     1       2.490   4.867  20.348  0.00  0.00    +0.000 N 
ATOM     18  O   UNL     1       1.663   4.377  21.130  0.00  0.00    +0.000 OA
ATOM     19  O   UNL     1       3.499   4.279  19.931  0.00  0.00    +0.000 OA
ENDBRANCH  12  17
BRANCH   1  21
ATOM     20  C   UNL     1       1.185  15.694  19.292  0.00  0.00    +0.000 C 
ATOM     21  O   UNL     1       0.049  14.830  19.276  0.00  0.00    +0.000 OA
ENDBRANCH   1  21
BRANCH   2  22
ATOM     22  O   UNL     1      -0.669  14.148  21.901  0.00  0.00    +0.000 OA
ATOM     23  C   UNL     1       0.222  14.970  22.643  0.00  0.00    +0.000 C 
ENDBRANCH   2  22
BRANCH   3  24
ATOM     24  O   UNL     1      -0.442  11.554  22.784  0.00  0.00    +0.000 OA
ATOM     25  C   UNL     1      -1.851  11.595  22.994  0.00  0.00    +0.000 C 
ENDBRANCH   3  24
BRANCH   6  26
ATOM     26  O   UNL     1       1.266  12.848  17.661  0.00  0.00    +0.000 OA
ATOM     27  H   UNL     1       1.048  12.110  17.049  0.00  0.00    +0.000 HD
ENDBRANCH   6  26
TORSDOF 5
ENDMDL
MODEL 3
REMARK VINA RESULT:      -6.0      0.945      1.069
REMARK  Name = 
REMARK  9 active torsions:
REMARK  status: ('A' for Active; 'I' for Inactive)
REMARK    1  A    between atoms: C_1  and  O_2
REMARK    2  A    between atoms: O_2  and  C_3
REMARK    3  A    between atoms: C_4  and  O_5
REMARK    4  A    between atoms: O_5  and  C_6
REMARK    5  A    between atoms: C_7  and  O_8
REMARK    6  A    between atoms: O_8  and  C_9
REMARK    7  A    between atoms: C_12  and  O_13
REMARK    8  A    between atoms: C_19  and  N_20
REMARK    9  A    between atoms: N_25  and  C_26
REMARK                            x       y       z     vdW  Elec       q    Type
REMARK                         _______ _______ _______ _____ _____    ______ ____
ROOT
ATOM      1  C   UNL     1       0.842  12.180  18.838  0.00  0.00    +0.000 A 
ATOM      2  C   UNL     1       0.033  12.006  19.979  0.00  0.00    +0.000 A 
ATOM      3  C   UNL     1      -0.017  10.743  20.645  0.00  0.00    +0.000 A 
ATOM      4  C   UNL     1       0.737   9.618  20.176  0.00  0.00    +0.000 A 
ATOM      5  C   UNL     1       1.532   9.838  19.026  0.00  0.00    +0.000 A 
ATOM      6  C   UNL     1       1.598  11.093  18.383  0.00  0.00    +0.000 A 
ATOM      7  C   UNL     1       2.314   8.715  18.467  0.00  0.00    +0.000 A 
ATOM      8  O   UNL     1       2.997   8.879  17.456  0.00  0.00    +0.000 OA
ATOM      9  C   UNL     1       2.276   7.394  19.101  0.00  0.00    +0.000 A 
ATOM     10  C   UNL     1       3.026   6.355  18.516  0.00  0.00    +0.000 A 
ATOM     11  C   UNL     1       3.024   5.088  19.084  0.00  0.00    +0.000 A 
ATOM     12  C   UNL     1       2.274   4.881  20.240  0.00  0.00    +0.000 A 
ATOM     13  C   UNL     1       1.523   5.924  20.811  0.00  0.00    +0.000 A 
ATOM     14  C   UNL     1       1.500   7.220  20.257  0.00  0.00    +0.000 A 
ATOM     15  N   UNL     1       0.759   8.310  20.777  0.00  0.00    +0.000 N 
ATOM     16  C   UNL     1      -0.017   8.120  22.010  0.00  0.00    +0.000 C 
ENDROOT
BRANCH  12  17
ATOM     17  N   UNL     1       2.263   3.549  20.865  0.00  0.00    +0.000 N 
ATOM     18  O   UNL     1       2.241   2.561  20.118  0.00  0.00    +0.000 OA
ATOM     19  O   UNL     1       2.280   3.493  22.103  0.00  0.00    +0.000 OA
ENDBRANCH  12  17
BRANCH   1  21
ATOM     20  C   UNL     1       1.896  14.326  18.726  0.00  0.00    +0.000 C 
ATOM     21  O   UNL     1       0.878  13.434  18.272  0.00  0.00    +0.000 OA
ENDBRANCH   1  21
BRANCH   2  22
ATOM     22  O   UNL     1      -0.695  13.019  20.558  0.00  0.00    +0.000 OA
ATOM     23  C   UNL     1      -1.997  13.294  20.060  0.00  0.00    +0.000 C 
ENDBRANCH   2  22
BRANCH   3  24
ATOM     24  O   UNL     1      -0.917  10.512  21.667  0.00  0.00    +0.000 OA
ATOM     25  C   UNL     1      -0.795  11.254  22.877  0.00  0.00    +0.000 C 
ENDBRANCH   3  24
BRANCH   6  26
ATOM     26  O   UNL     1       2.440  11.278  17.309  0.00  0.00    +0.000 OA
ATOM     27  H   UNL     1       2.728  12.218  17.281  0.00  0.00    +0.000 HD
ENDBRANCH   6  26
TORSDOF 5
ENDMDL
MODEL 4
REMARK VINA RESULT:      -5.9      5.956      8.098
REMARK  Name = 
REMARK  9 active torsions:
REMARK  status: ('A' for Active; 'I' for Inactive)
REMARK    1  A    between atoms: C_1  and  O_2
REMARK    2  A    between atoms: O_2  and  C_3
REMARK    3  A    between atoms: C_4  and  O_5
REMARK    4  A    between atoms: O_5  and  C_6
REMARK    5  A    between atoms: C_7  and  O_8
REMARK    6  A    between atoms: O_8  and  C_9
REMARK    7  A    between atoms: C_12  and  O_13
REMARK    8  A    between atoms: C_19  and  N_20
REMARK    9  A    between atoms: N_25  and  C_26
REMARK                            x       y       z     vdW  Elec       q    Type
REMARK                         _______ _______ _______ _____ _____    ______ ____
ROOT
ATOM      1  C   UNL     1      -4.758  13.611  22.480  0.00  0.00    +0.000 A 
ATOM      2  C   UNL     1      -6.053  13.669  21.925  0.00  0.00    +0.000 A 
ATOM      3  C   UNL     1      -6.298  13.175  20.606  0.00  0.00    +0.000 A 
ATOM      4  C   UNL     1      -5.246  12.619  19.807  0.00  0.00    +0.000 A 
ATOM      5  C   UNL     1      -3.964  12.585  20.404  0.00  0.00    +0.000 A 
ATOM      6  C   UNL     1      -3.728  13.051  21.714  0.00  0.00    +0.000 A 
ATOM      7  C   UNL     1      -2.824  12.052  19.627  0.00  0.00    +0.000 A 
ATOM      8  O   UNL     1      -1.696  12.030  20.119  0.00  0.00    +0.000 OA
ATOM      9  C   UNL     1      -3.022  11.556  18.262  0.00  0.00    +0.000 A 
ATOM     10  C   UNL     1      -1.898  11.077  17.561  0.00  0.00    +0.000 A 
ATOM     11  C   UNL     1      -2.037  10.593  16.267  0.00  0.00    +0.000 A 
ATOM     12  C   UNL     1      -3.307  10.589  15.693  0.00  0.00    +0.000 A 
ATOM     13  C   UNL     1      -4.421  11.078  16.400  0.00  0.00    +0.000 A 
ATOM     14  C   UNL     1      -4.313  11.579  17.713  0.00  0.00    +0.000 A 
ATOM     15  N   UNL     1      -5.391  12.092  18.475  0.00  0.00    +0.000 N 
ATOM     16  C   UNL     1      -6.744  12.073  17.900  0.00  0.00    +0.000 C 
ENDROOT
BRANCH  12  17
ATOM     17  N   UNL     1      -3.481  10.074  14.326  0.00  0.00    +0.000 N 
ATOM     18  O   UNL     1      -4.639   9.886  13.924  0.00  0.00    +0.000 OA
ATOM     19  O   UNL     1      -2.461   9.861  13.655  0.00  0.00    +0.000 OA
ENDBRANCH  12  17
BRANCH   1  21
ATOM     20  C   UNL     1      -4.259  15.437  23.943  0.00  0.00    +0.000 C 
ATOM     21  O   UNL     1      -4.601  14.063  23.770  0.00  0.00    +0.000 OA
ENDBRANCH   1  21
BRANCH   2  22
ATOM     22  O   UNL     1      -7.154  14.129  22.608  0.00  0.00    +0.000 OA
ATOM     23  C   UNL     1      -7.891  13.217  23.410  0.00  0.00    +0.000 C 
ENDBRANCH   2  22
BRANCH   3  24
ATOM     24  O   UNL     1      -7.520  13.364  19.992  0.00  0.00    +0.000 OA
ATOM     25  C   UNL     1      -7.916  14.683  19.630  0.00  0.00    +0.000 C 
ENDBRANCH   3  24
BRANCH   6  26
ATOM     26  O   UNL     1      -2.477  12.931  22.278  0.00  0.00    +0.000 OA
ATOM     27  H   UNL     1      -2.560  12.950  23.258  0.00  0.00    +0.000 HD
ENDBRANCH   6  26
TORSDOF 5
ENDMDL
MODEL 5
REMARK VINA RESULT:      -5.8      1.599      2.073
REMARK  Name = 
REMARK  9 active torsions:
REMARK  status: ('A' for Active; 'I' for Inactive)
REMARK    1  A    between atoms: C_1  and  O_2
REMARK    2  A    between atoms: O_2  and  C_3
REMARK    3  A    between atoms: C_4  and  O_5
REMARK    4  A    between atoms: O_5  and  C_6
REMARK    5  A    between atoms: C_7  and  O_8
REMARK    6  A    between atoms: O_8  and  C_9
REMARK    7  A    between atoms: C_12  and  O_13
REMARK    8  A    between atoms: C_19  and  N_20
REMARK    9  A    between atoms: N_25  and  C_26
REMARK                            x       y       z     vdW  Elec       q    Type
REMARK                         _______ _______ _______ _____ _____    ______ ____
ROOT
ATOM      1  C   UNL     1       1.004  11.278  18.942  0.00  0.00    +0.000 A 
ATOM      2  C   UNL     1       0.387  10.826  20.126  0.00  0.00    +0.000 A 
ATOM      3  C   UNL     1       0.588   9.487  20.582  0.00  0.00    +0.000 A 
ATOM      4  C   UNL     1       1.408   8.563  19.855  0.00  0.00    +0.000 A 
ATOM      5  C   UNL     1       2.004   9.059  18.671  0.00  0.00    +0.000 A 
ATOM      6  C   UNL     1       1.823  10.389  18.235  0.00  0.00    +0.000 A 
ATOM      7  C   UNL     1       2.838   8.154  17.853  0.00  0.00    +0.000 A 
ATOM      8  O   UNL     1       3.351   8.559  16.810  0.00  0.00    +0.000 OA
ATOM      9  C   UNL     1       3.054   6.764  18.267  0.00  0.00    +0.000 A 
ATOM     10  C   UNL     1       3.843   5.940  17.441  0.00  0.00    +0.000 A 
ATOM     11  C   UNL     1       4.079   4.619  17.793  0.00  0.00    +0.000 A 
ATOM     12  C   UNL     1       3.526   4.140  18.980  0.00  0.00    +0.000 A 
ATOM     13  C   UNL     1       2.733   4.970  19.794  0.00  0.00    +0.000 A 
ATOM     14  C   UNL     1       2.472   6.315  19.461  0.00  0.00    +0.000 A 
ATOM     15  N   UNL     1       1.677   7.200  20.231  0.00  0.00    +0.000 N 
ATOM     16  C   UNL     1       1.105   6.724  21.500  0.00  0.00    +0.000 C 
ENDROOT
BRANCH  12  17
ATOM     17  N   UNL     1       3.768   2.746  19.381  0.00  0.00    +0.000 N 
ATOM     18  O   UNL     1       2.897   1.908  19.109  0.00  0.00    +0.000 OA
ATOM     19  O   UNL     1       4.832   2.490  19.963  0.00  0.00    +0.000 OA
ENDBRANCH  12  17
BRANCH   1  21
ATOM     20  C   UNL     1       1.734  13.552  19.083  0.00  0.00    +0.000 C 
ATOM     21  O   UNL     1       0.804  12.591  18.585  0.00  0.00    +0.000 OA
ENDBRANCH   1  21
BRANCH   2  22
ATOM     22  O   UNL     1      -0.378  11.628  20.940  0.00  0.00    +0.000 OA
ATOM     23  C   UNL     1      -1.719  11.905  20.560  0.00  0.00    +0.000 C 
ENDBRANCH   2  22
BRANCH   3  24
ATOM     24  O   UNL     1      -0.127   8.983  21.650  0.00  0.00    +0.000 OA
ATOM     25  C   UNL     1       0.123   9.498  22.955  0.00  0.00    +0.000 C 
ENDBRANCH   3  24
BRANCH   6  26
ATOM     26  O   UNL     1       2.481  10.846  17.115  0.00  0.00    +0.000 OA
ATOM     27  H   UNL     1       2.111  10.405  16.318  0.00  0.00    +0.000 HD
ENDBRANCH   6  26
TORSDOF 5
ENDMDL
MODEL 6
REMARK VINA RESULT:      -5.7      2.362      7.074
REMARK  Name = 
REMARK  9 active torsions:
REMARK  status: ('A' for Active; 'I' for Inactive)
REMARK    1  A    between atoms: C_1  and  O_2
REMARK    2  A    between atoms: O_2  and  C_3
REMARK    3  A    between atoms: C_4  and  O_5
REMARK    4  A    between atoms: O_5  and  C_6
REMARK    5  A    between atoms: C_7  and  O_8
REMARK    6  A    between atoms: O_8  and  C_9
REMARK    7  A    between atoms: C_12  and  O_13
REMARK    8  A    between atoms: C_19  and  N_20
REMARK    9  A    between atoms: N_25  and  C_26
REMARK                            x       y       z     vdW  Elec       q    Type
REMARK                         _______ _______ _______ _____ _____    ______ ____
ROOT
ATOM      1  C   UNL     1       4.652   4.744  17.683  0.00  0.00    +0.000 A 
ATOM      2  C   UNL     1       4.150   4.166  18.867  0.00  0.00    +0.000 A 
ATOM      3  C   UNL     1       3.224   4.883  19.687  0.00  0.00    +0.000 A 
ATOM      4  C   UNL     1       2.785   6.203  19.343  0.00  0.00    +0.000 A 
ATOM      5  C   UNL     1       3.318   6.744  18.149  0.00  0.00    +0.000 A 
ATOM      6  C   UNL     1       4.213   6.027  17.329  0.00  0.00    +0.000 A 
ATOM      7  C   UNL     1       2.933   8.114  17.747  0.00  0.00    +0.000 A 
ATOM      8  O   UNL     1       3.399   8.611  16.722  0.00  0.00    +0.000 OA
ATOM      9  C   UNL     1       2.005   8.897  18.568  0.00  0.00    +0.000 A 
ATOM     10  C   UNL     1       1.687  10.203  18.147  0.00  0.00    +0.000 A 
ATOM     11  C   UNL     1       0.809  10.981  18.890  0.00  0.00    +0.000 A 
ATOM     12  C   UNL     1       0.253  10.435  20.045  0.00  0.00    +0.000 A 
ATOM     13  C   UNL     1       0.584   9.131  20.459  0.00  0.00    +0.000 A 
ATOM     14  C   UNL     1       1.474   8.317  19.729  0.00  0.00    +0.000 A 
ATOM     15  N   UNL     1       1.855   7.003  20.096  0.00  0.00    +0.000 N 
ATOM     16  C   UNL     1       1.260   6.397  21.296  0.00  0.00    +0.000 C 
ENDROOT
BRANCH  12  17
ATOM     17  N   UNL     1      -0.687  11.236  20.845  0.00  0.00    +0.000 N 
ATOM     18  O   UNL     1      -1.490  11.958  20.237  0.00  0.00    +0.000 OA
ATOM     19  O   UNL     1      -0.622  11.139  22.078  0.00  0.00    +0.000 OA
ENDBRANCH  12  17
BRANCH   1  21
ATOM     20  C   UNL     1       6.887   4.337  16.934  0.00  0.00    +0.000 C 
ATOM     21  O   UNL     1       5.505   3.982  16.919  0.00  0.00    +0.000 OA
ENDBRANCH   1  21
BRANCH   2  22
ATOM     22  O   UNL     1       4.451   2.889  19.278  0.00  0.00    +0.000 OA
ATOM     23  C   UNL     1       3.761   1.800  18.683  0.00  0.00    +0.000 C 
ENDBRANCH   2  22
BRANCH   3  24
ATOM     24  O   UNL     1       2.843   4.397  20.922  0.00  0.00    +0.000 OA
ATOM     25  C   UNL     1       1.801   3.428  20.993  0.00  0.00    +0.000 C 
ENDBRANCH   3  24
BRANCH   6  26
ATOM     26  O   UNL     1       4.649   6.567  16.139  0.00  0.00    +0.000 OA
ATOM     27  H   UNL     1       5.385   6.019  15.785  0.00  0.00    +0.000 HD
ENDBRANCH   6  26
TORSDOF 5
ENDMDL
MODEL 7
REMARK VINA RESULT:      -5.7      1.897      3.893
REMARK  Name = 
REMARK  9 active torsions:
REMARK  status: ('A' for Active; 'I' for Inactive)
REMARK    1  A    between atoms: C_1  and  O_2
REMARK    2  A    between atoms: O_2  and  C_3
REMARK    3  A    between atoms: C_4  and  O_5
REMARK    4  A    between atoms: O_5  and  C_6
REMARK    5  A    between atoms: C_7  and  O_8
REMARK    6  A    between atoms: O_8  and  C_9
REMARK    7  A    between atoms: C_12  and  O_13
REMARK    8  A    between atoms: C_19  and  N_20
REMARK    9  A    between atoms: N_25  and  C_26
REMARK                            x       y       z     vdW  Elec       q    Type
REMARK                         _______ _______ _______ _____ _____    ______ ____
ROOT
ATOM      1  C   UNL     1      -0.376  12.455  22.137  0.00  0.00    +0.000 A 
ATOM      2  C   UNL     1       0.099  13.070  20.962  0.00  0.00    +0.000 A 
ATOM      3  C   UNL     1       0.748  12.295  19.951  0.00  0.00    +0.000 A 
ATOM      4  C   UNL     1       0.943  10.883  20.100  0.00  0.00    +0.000 A 
ATOM      5  C   UNL     1       0.453  10.310  21.297  0.00  0.00    +0.000 A 
ATOM      6  C   UNL     1      -0.208  11.073  22.284  0.00  0.00    +0.000 A 
ATOM      7  C   UNL     1       0.646   8.864  21.533  0.00  0.00    +0.000 A 
ATOM      8  O   UNL     1       0.244   8.348  22.577  0.00  0.00    +0.000 OA
ATOM      9  C   UNL     1       1.326   8.032  20.537  0.00  0.00    +0.000 A 
ATOM     10  C   UNL     1       1.500   6.663  20.821  0.00  0.00    +0.000 A 
ATOM     11  C   UNL     1       2.135   5.835  19.906  0.00  0.00    +0.000 A 
ATOM     12  C   UNL     1       2.582   6.390  18.709  0.00  0.00    +0.000 A 
ATOM     13  C   UNL     1       2.411   7.760  18.438  0.00  0.00    +0.000 A 
ATOM     14  C   UNL     1       1.773   8.628  19.349  0.00  0.00    +0.000 A 
ATOM     15  N   UNL     1       1.577  10.016  19.141  0.00  0.00    +0.000 N 
ATOM     16  C   UNL     1       2.017  10.617  17.874  0.00  0.00    +0.000 C 
ENDROOT
BRANCH  12  17
ATOM     17  N   UNL     1       3.250   5.531  17.718  0.00  0.00    +0.000 N 
ATOM     18  O   UNL     1       2.789   4.396  17.535  0.00  0.00    +0.000 OA
ATOM     19  O   UNL     1       4.233   5.995  17.122  0.00  0.00    +0.000 OA
ENDBRANCH  12  17
BRANCH   1  21
ATOM     20  C   UNL     1      -2.457  13.259  23.006  0.00  0.00    +0.000 C 
ATOM     21  O   UNL     1      -1.030  13.253  23.049  0.00  0.00    +0.000 OA
ENDBRANCH   1  21
BRANCH   2  22
ATOM     22  O   UNL     1      -0.074  14.404  20.676  0.00  0.00    +0.000 OA
ATOM     23  C   UNL     1      -1.220  14.801  19.936  0.00  0.00    +0.000 C 
ENDBRANCH   2  22
BRANCH   3  24
ATOM     24  O   UNL     1       1.354  12.901  18.869  0.00  0.00    +0.000 OA
ATOM     25  C   UNL     1       2.531  13.675  19.079  0.00  0.00    +0.000 C 
ENDBRANCH   3  24
BRANCH   6  26
ATOM     26  O   UNL     1      -0.731  10.459  23.400  0.00  0.00    +0.000 OA
ATOM     27  H   UNL     1      -0.043  10.423  24.102  0.00  0.00    +0.000 HD
ENDBRANCH   6  26
TORSDOF 5
ENDMDL
MODEL 8
REMARK VINA RESULT:      -5.6      8.242      9.720
REMARK  Name = 
REMARK  9 active torsions:
REMARK  status: ('A' for Active; 'I' for Inactive)
REMARK    1  A    between atoms: C_1  and  O_2
REMARK    2  A    between atoms: O_2  and  C_3
REMARK    3  A    between atoms: C_4  and  O_5
REMARK    4  A    between atoms: O_5  and  C_6
REMARK    5  A    between atoms: C_7  and  O_8
REMARK    6  A    between atoms: O_8  and  C_9
REMARK    7  A    between atoms: C_12  and  O_13
REMARK    8  A    between atoms: C_19  and  N_20
REMARK    9  A    between atoms: N_25  and  C_26
REMARK                            x       y       z     vdW  Elec       q    Type
REMARK                         _______ _______ _______ _____ _____    ______ ____
ROOT
ATOM      1  C   UNL     1      10.185  13.720  17.988  0.00  0.00    +0.000 A 
ATOM      2  C   UNL     1       9.718  15.043  18.125  0.00  0.00    +0.000 A 
ATOM      3  C   UNL     1       8.997  15.440  19.293  0.00  0.00    +0.000 A 
ATOM      4  C   UNL     1       8.718  14.514  20.351  0.00  0.00    +0.000 A 
ATOM      5  C   UNL     1       9.203  13.197  20.170  0.00  0.00    +0.000 A 
ATOM      6  C   UNL     1       9.935  12.814  19.026  0.00  0.00    +0.000 A 
ATOM      7  C   UNL     1       8.927  12.181  21.206  0.00  0.00    +0.000 A 
ATOM      8  O   UNL     1       9.323  11.024  21.060  0.00  0.00    +0.000 OA
ATOM      9  C   UNL     1       8.171  12.534  22.411  0.00  0.00    +0.000 A 
ATOM     10  C   UNL     1       7.920  11.522  23.359  0.00  0.00    +0.000 A 
ATOM     11  C   UNL     1       7.212  11.810  24.517  0.00  0.00    +0.000 A 
ATOM     12  C   UNL     1       6.769  13.116  24.716  0.00  0.00    +0.000 A 
ATOM     13  C   UNL     1       7.018  14.117  23.760  0.00  0.00    +0.000 A 
ATOM     14  C   UNL     1       7.731  13.856  22.572  0.00  0.00    +0.000 A 
ATOM     15  N   UNL     1       8.007  14.816  21.566  0.00  0.00    +0.000 N 
ATOM     16  C   UNL     1       7.573  16.205  21.768  0.00  0.00    +0.000 C 
ENDROOT
BRANCH  12  17
ATOM     17  N   UNL     1       6.023  13.449  25.941  0.00  0.00    +0.000 N 
ATOM     18  O   UNL     1       4.985  12.813  26.174  0.00  0.00    +0.000 OA
ATOM     19  O   UNL     1       6.479  14.342  26.668  0.00  0.00    +0.000 OA
ENDBRANCH  12  17
BRANCH   1  21
ATOM     20  C   UNL     1      12.333  13.454  16.967  0.00  0.00    +0.000 C 
ATOM     21  O   UNL     1      10.910  13.418  16.859  0.00  0.00    +0.000 OA
ENDBRANCH   1  21
BRANCH   2  22
ATOM     22  O   UNL     1       9.966  16.036  17.206  0.00  0.00    +0.000 OA
ATOM     23  C   UNL     1      11.102  16.869  17.392  0.00  0.00    +0.000 C 
ENDBRANCH   2  22
BRANCH   3  24
ATOM     24  O   UNL     1       8.402  16.683  19.374  0.00  0.00    +0.000 OA
ATOM     25  C   UNL     1       7.257  16.956  18.572  0.00  0.00    +0.000 C 
ENDBRANCH   3  24
BRANCH   6  26
ATOM     26  O   UNL     1      10.447  11.539  18.926  0.00  0.00    +0.000 OA
ATOM     27  H   UNL     1       9.879  11.007  18.326  0.00  0.00    +0.000 HD
ENDBRANCH   6  26
TORSDOF 5
ENDMDL
MODEL 9
REMARK VINA RESULT:      -5.6      1.654      2.100
REMARK  Name = 
REMARK  9 active torsions:
REMARK  status: ('A' for Active; 'I' for Inactive)
REMARK    1  A    between atoms: C_1  and  O_2
REMARK    2  A    between atoms: O_2  and  C_3
REMARK    3  A    between atoms: C_4  and  O_5
REMARK    4  A    between atoms: O_5  and  C_6
REMARK    5  A    between atoms: C_7  and  O_8
REMARK    6  A    between atoms: O_8  and  C_9
REMARK    7  A    between atoms: C_12  and  O_13
REMARK    8  A    between atoms: C_19  and  N_20
REMARK    9  A    between atoms: N_25  and  C_26
REMARK                            x       y       z     vdW  Elec       q    Type
REMARK                         _______ _______ _______ _____ _____    ______ ____
ROOT
ATOM      1  C   UNL     1      -0.018  12.394  19.752  0.00  0.00    +0.000 A 
ATOM      2  C   UNL     1      -0.510  11.706  20.879  0.00  0.00    +0.000 A 
ATOM      3  C   UNL     1      -0.121  10.354  21.128  0.00  0.00    +0.000 A 
ATOM      4  C   UNL     1       0.766   9.655  20.246  0.00  0.00    +0.000 A 
ATOM      5  C   UNL     1       1.232  10.384  19.127  0.00  0.00    +0.000 A 
ATOM      6  C   UNL     1       0.866  11.727  18.895  0.00  0.00    +0.000 A 
ATOM      7  C   UNL     1       2.127   9.717  18.157  0.00  0.00    +0.000 A 
ATOM      8  O   UNL     1       2.530  10.327  17.166  0.00  0.00    +0.000 OA
ATOM      9  C   UNL     1       2.535   8.324  18.358  0.00  0.00    +0.000 A 
ATOM     10  C   UNL     1       3.374   7.733  17.393  0.00  0.00    +0.000 A 
ATOM     11  C   UNL     1       3.790   6.417  17.542  0.00  0.00    +0.000 A 
ATOM     12  C   UNL     1       3.363   5.710  18.665  0.00  0.00    +0.000 A 
ATOM     13  C   UNL     1       2.519   6.308  19.618  0.00  0.00    +0.000 A 
ATOM     14  C   UNL     1       2.077   7.641  19.494  0.00  0.00    +0.000 A 
ATOM     15  N   UNL     1       1.221   8.299  20.412  0.00  0.00    +0.000 N 
ATOM     16  C   UNL     1       0.781   7.581  21.617  0.00  0.00    +0.000 C 
ENDROOT
BRANCH  12  17
ATOM     17  N   UNL     1       3.798   4.316  18.850  0.00  0.00    +0.000 N 
ATOM     18  O   UNL     1       2.984   3.419  18.588  0.00  0.00    +0.000 OA
ATOM     19  O   UNL     1       4.953   4.121  19.255  0.00  0.00    +0.000 OA
ENDBRANCH  12  17
BRANCH   1  21
ATOM     20  C   UNL     1       0.437  14.703  20.189  0.00  0.00    +0.000 C 
ATOM     21  O   UNL     1      -0.398  13.708  19.597  0.00  0.00    +0.000 OA
ENDBRANCH   1  21
BRANCH   2  22
ATOM     22  O   UNL     1      -1.324  12.281  21.827  0.00  0.00    +0.000 OA
ATOM     23  C   UNL     1      -2.687  12.519  21.503  0.00  0.00    +0.000 C 
ENDBRANCH   2  22
BRANCH   3  24
ATOM     24  O   UNL     1      -0.711   9.618  22.137  0.00  0.00    +0.000 OA
ATOM     25  C   UNL     1      -0.339   9.872  23.488  0.00  0.00    +0.000 C 
ENDBRANCH   3  24
BRANCH   6  26
ATOM     26  O   UNL     1       1.401  12.417  17.831  0.00  0.00    +0.000 OA
ATOM     27  H   UNL     1       1.635  11.783  17.117  0.00  0.00    +0.000 HD
ENDBRANCH   6  26
TORSDOF 5
ENDMDL
