MODEL 1
REMARK VINA RESULT:      -8.2      0.000      0.000
REMARK  Name = 
REMARK  6 active torsions:
REMARK  status: ('A' for Active; 'I' for Inactive)
REMARK    1  A    between atoms: C_1  and  C_2
REMARK    2  A    between atoms: C_2  and  C_3
REMARK    3  A    between atoms: C_4  and  C_5
REMARK    4  A    between atoms: C_8  and  N_9
REMARK    5  A    between atoms: C_12  and  N_13
REMARK    6  A    between atoms: N_13  and  C_14
REMARK                            x       y       z     vdW  Elec       q    Type
REMARK                         _______ _______ _______ _____ _____    ______ ____
ROOT
ATOM      1  C   UNL     1       3.128   5.657  17.818  0.00  0.00    +0.000 A 
ATOM      2  C   UNL     1       3.368   6.980  17.989  0.00  0.00    +0.000 A 
ATOM      3  N   UNL     1       4.578   7.530  17.631  0.00  0.00    +0.000 N 
ATOM      4  C   UNL     1       5.641   6.831  17.109  0.00  0.00    +0.000 A 
ATOM      5  O   UNL     1       6.698   7.386  16.846  0.00  0.00    +0.000 OA
ATOM      6  C   UNL     1       5.390   5.402  16.900  0.00  0.00    +0.000 A 
ATOM      7  C   UNL     1       6.316   4.396  16.348  0.00  0.00    +0.000 A 
ATOM      8  O   UNL     1       7.472   4.582  16.008  0.00  0.00    +0.000 OA
ATOM      9  N   UNL     1       5.681   3.177  16.281  0.00  0.00    +0.000 N 
ATOM     10  S   UNL     1       4.096   3.167  16.857  0.00  0.00    +0.000 S 
ATOM     11  C   UNL     1       4.202   4.862  17.220  0.00  0.00    +0.000 A 
ATOM     12  H   UNL     1       4.741   8.521  17.784  0.00  0.00    +0.000 HD
ATOM     13  H   UNL     1       6.174   2.358  15.953  0.00  0.00    +0.000 HD
ENDROOT
BRANCH   2  14
ATOM     14  C   UNL     1       2.402   7.914  18.578  0.00  0.00    +0.000 A 
ATOM     15  C   UNL     1       1.792   8.876  17.777  0.00  0.00    +0.000 A 
ATOM     16  C   UNL     1       0.886   9.776  18.339  0.00  0.00    +0.000 A 
ATOM     17  C   UNL     1       0.557   9.748  19.704  0.00  0.00    +0.000 A 
ATOM     18  C   UNL     1       1.154   8.752  20.485  0.00  0.00    +0.000 A 
ATOM     19  C   UNL     1       2.069   7.845  19.933  0.00  0.00    +0.000 A 
BRANCH  17  20
ATOM     20  N   UNL     1      -0.356  10.658  20.200  0.00  0.00    +0.000 N 
ATOM     21  C   UNL     1      -1.461  11.180  19.396  0.00  0.00    +0.000 C 
ATOM     22  C   UNL     1      -1.634  12.656  19.763  0.00  0.00    +0.000 C 
ATOM     23  C   UNL     1      -1.867  12.863  21.272  0.00  0.00    +0.000 C 
ATOM     24  C   UNL     1      -0.754  12.152  22.068  0.00  0.00    +0.000 C 
ATOM     25  C   UNL     1      -0.598  10.692  21.646  0.00  0.00    +0.000 C 
BRANCH  23  26
ATOM     26  N   UNL     1      -3.176  12.380  21.750  0.00  0.00    +0.000 NA
ATOM     27  C   UNL     1      -3.426  12.691  23.151  0.00  0.00    +0.000 C 
ATOM     28  H   UNL     1      -3.210  11.364  21.638  0.00  0.00    +0.000 HD
ENDBRANCH  23  26
ENDBRANCH  17  20
ENDBRANCH   2  14
BRANCH   1  30
ATOM     29  C   UNL     1       1.980   4.317  19.639  0.00  0.00    +0.000 C 
ATOM     30  C   UNL     1       1.851   4.975  18.273  0.00  0.00    +0.000 C 
ENDBRANCH   1  30
TORSDOF 4
ENDMDL
MODEL 2
REMARK VINA RESULT:      -8.1      0.483      1.042
REMARK  Name = 
REMARK  6 active torsions:
REMARK  status: ('A' for Active; 'I' for Inactive)
REMARK    1  A    between atoms: C_1  and  C_2
REMARK    2  A    between atoms: C_2  and  C_3
REMARK    3  A    between atoms: C_4  and  C_5
REMARK    4  A    between atoms: C_8  and  N_9
REMARK    5  A    between atoms: C_12  and  N_13
REMARK    6  A    between atoms: N_13  and  C_14
REMARK                            x       y       z     vdW  Elec       q    Type
REMARK                         _______ _______ _______ _____ _____    ______ ____
ROOT
ATOM      1  C   UNL     1       2.825   5.626  18.176  0.00  0.00    +0.000 A 
ATOM      2  C   UNL     1       3.038   6.962  18.108  0.00  0.00    +0.000 A 
ATOM      3  N   UNL     1       4.163   7.467  17.496  0.00  0.00    +0.000 N 
ATOM      4  C   UNL     1       5.165   6.711  16.933  0.00  0.00    +0.000 A 
ATOM      5  O   UNL     1       6.152   7.232  16.436  0.00  0.00    +0.000 OA
ATOM      6  C   UNL     1       4.938   5.263  16.981  0.00  0.00    +0.000 A 
ATOM      7  C   UNL     1       5.811   4.197  16.457  0.00  0.00    +0.000 A 
ATOM      8  O   UNL     1       6.897   4.344  15.925  0.00  0.00    +0.000 OA
ATOM      9  N   UNL     1       5.218   2.973  16.669  0.00  0.00    +0.000 N 
ATOM     10  S   UNL     1       3.734   3.030  17.469  0.00  0.00    +0.000 S 
ATOM     11  C   UNL     1       3.829   4.762  17.552  0.00  0.00    +0.000 A 
ATOM     12  H   UNL     1       4.310   8.472  17.471  0.00  0.00    +0.000 HD
ATOM     13  H   UNL     1       5.688   2.121  16.399  0.00  0.00    +0.000 HD
ENDROOT
BRANCH   2  14
ATOM     14  C   UNL     1       2.134   7.962  18.686  0.00  0.00    +0.000 A 
ATOM     15  C   UNL     1       1.900   7.973  20.060  0.00  0.00    +0.000 A 
ATOM     16  C   UNL     1       1.027   8.912  20.609  0.00  0.00    +0.000 A 
ATOM     17  C   UNL     1       0.366   9.866  19.819  0.00  0.00    +0.000 A 
ATOM     18  C   UNL     1       0.641   9.862  18.446  0.00  0.00    +0.000 A 
ATOM     19  C   UNL     1       1.512   8.920  17.882  0.00  0.00    +0.000 A 
BRANCH  17  20
ATOM     20  N   UNL     1      -0.478  10.778  20.422  0.00  0.00    +0.000 N 
ATOM     21  C   UNL     1      -1.508  11.505  19.681  0.00  0.00    +0.000 C 
ATOM     22  C   UNL     1      -1.562  12.926  20.247  0.00  0.00    +0.000 C 
ATOM     23  C   UNL     1      -1.821  12.943  21.767  0.00  0.00    +0.000 C 
ATOM     24  C   UNL     1      -0.798  12.030  22.474  0.00  0.00    +0.000 C 
ATOM     25  C   UNL     1      -0.759  10.634  21.855  0.00  0.00    +0.000 C 
BRANCH  23  26
ATOM     26  N   UNL     1      -3.180  12.519  22.150  0.00  0.00    +0.000 NA
ATOM     27  C   UNL     1      -3.409  12.555  23.589  0.00  0.00    +0.000 C 
ATOM     28  H   UNL     1      -3.327  11.560  21.828  0.00  0.00    +0.000 HD
ENDBRANCH  23  26
ENDBRANCH  17  20
ENDBRANCH   2  14
BRANCH   1  30
ATOM     29  C   UNL     1       2.006   4.548  20.321  0.00  0.00    +0.000 C 
ATOM     30  C   UNL     1       1.652   5.004  18.913  0.00  0.00    +0.000 C 
ENDBRANCH   1  30
TORSDOF 4
ENDMDL
MODEL 3
REMARK VINA RESULT:      -7.9      4.160      9.293
REMARK  Name = 
REMARK  6 active torsions:
REMARK  status: ('A' for Active; 'I' for Inactive)
REMARK    1  A    between atoms: C_1  and  C_2
REMARK    2  A    between atoms: C_2  and  C_3
REMARK    3  A    between atoms: C_4  and  C_5
REMARK    4  A    between atoms: C_8  and  N_9
REMARK    5  A    between atoms: C_12  and  N_13
REMARK    6  A    between atoms: N_13  and  C_14
REMARK                            x       y       z     vdW  Elec       q    Type
REMARK                         _______ _______ _______ _____ _____    ______ ____
ROOT
ATOM      1  C   UNL     1      -1.356  10.806  19.240  0.00  0.00    +0.000 A 
ATOM      2  C   UNL     1      -0.079  10.725  19.686  0.00  0.00    +0.000 A 
ATOM      3  N   UNL     1       0.440  11.688  20.521  0.00  0.00    +0.000 N 
ATOM      4  C   UNL     1      -0.236  12.804  20.958  0.00  0.00    +0.000 A 
ATOM      5  O   UNL     1       0.305  13.634  21.673  0.00  0.00    +0.000 OA
ATOM      6  C   UNL     1      -1.626  12.896  20.499  0.00  0.00    +0.000 A 
ATOM      7  C   UNL     1      -2.606  13.954  20.803  0.00  0.00    +0.000 A 
ATOM      8  O   UNL     1      -2.407  14.961  21.461  0.00  0.00    +0.000 OA
ATOM      9  N   UNL     1      -3.809  13.647  20.211  0.00  0.00    +0.000 N 
ATOM     10  S   UNL     1      -3.817  12.221  19.311  0.00  0.00    +0.000 S 
ATOM     11  C   UNL     1      -2.149  11.946  19.706  0.00  0.00    +0.000 A 
ATOM     12  H   UNL     1       1.405  11.614  20.830  0.00  0.00    +0.000 HD
ATOM     13  H   UNL     1      -4.595  14.278  20.287  0.00  0.00    +0.000 HD
ENDROOT
BRANCH   2  14
ATOM     14  C   UNL     1       0.849   9.652  19.310  0.00  0.00    +0.000 A 
ATOM     15  C   UNL     1       1.152   8.647  20.226  0.00  0.00    +0.000 A 
ATOM     16  C   UNL     1       2.047   7.636  19.876  0.00  0.00    +0.000 A 
ATOM     17  C   UNL     1       2.663   7.589  18.615  0.00  0.00    +0.000 A 
ATOM     18  C   UNL     1       2.318   8.588  17.697  0.00  0.00    +0.000 A 
ATOM     19  C   UNL     1       1.424   9.612  18.038  0.00  0.00    +0.000 A 
BRANCH  17  20
ATOM     20  N   UNL     1       3.532   6.555  18.323  0.00  0.00    +0.000 N 
ATOM     21  C   UNL     1       4.638   6.702  17.378  0.00  0.00    +0.000 C 
ATOM     22  C   UNL     1       4.752   5.389  16.600  0.00  0.00    +0.000 C 
ATOM     23  C   UNL     1       4.940   4.172  17.527  0.00  0.00    +0.000 C 
ATOM     24  C   UNL     1       3.831   4.165  18.599  0.00  0.00    +0.000 C 
ATOM     25  C   UNL     1       3.736   5.505  19.326  0.00  0.00    +0.000 C 
BRANCH  23  26
ATOM     26  N   UNL     1       6.252   4.125  18.199  0.00  0.00    +0.000 NA
ATOM     27  C   UNL     1       7.357   4.501  17.326  0.00  0.00    +0.000 C 
ATOM     28  H   UNL     1       6.416   3.172  18.528  0.00  0.00    +0.000 HD
ENDBRANCH  23  26
ENDBRANCH  17  20
ENDBRANCH   2  14
BRANCH   1  30
ATOM     29  C   UNL     1      -1.973  10.355  16.822  0.00  0.00    +0.000 C 
ATOM     30  C   UNL     1      -1.959   9.826  18.249  0.00  0.00    +0.000 C 
ENDBRANCH   1  30
TORSDOF 4
ENDMDL
MODEL 4
REMARK VINA RESULT:      -7.8      1.068      1.721
REMARK  Name = 
REMARK  6 active torsions:
REMARK  status: ('A' for Active; 'I' for Inactive)
REMARK    1  A    between atoms: C_1  and  C_2
REMARK    2  A    between atoms: C_2  and  C_3
REMARK    3  A    between atoms: C_4  and  C_5
REMARK    4  A    between atoms: C_8  and  N_9
REMARK    5  A    between atoms: C_12  and  N_13
REMARK    6  A    between atoms: N_13  and  C_14
REMARK                            x       y       z     vdW  Elec       q    Type
REMARK                         _______ _______ _______ _____ _____    ______ ____
ROOT
ATOM      1  C   UNL     1       2.673   5.570  18.518  0.00  0.00    +0.000 A 
ATOM      2  C   UNL     1       2.863   6.895  18.302  0.00  0.00    +0.000 A 
ATOM      3  N   UNL     1       3.875   7.338  17.482  0.00  0.00    +0.000 N 
ATOM      4  C   UNL     1       4.785   6.530  16.839  0.00  0.00    +0.000 A 
ATOM      5  O   UNL     1       5.679   7.001  16.152  0.00  0.00    +0.000 OA
ATOM      6  C   UNL     1       4.581   5.093  17.048  0.00  0.00    +0.000 A 
ATOM      7  C   UNL     1       5.371   3.981  16.490  0.00  0.00    +0.000 A 
ATOM      8  O   UNL     1       6.362   4.076  15.787  0.00  0.00    +0.000 OA
ATOM      9  N   UNL     1       4.828   2.784  16.898  0.00  0.00    +0.000 N 
ATOM     10  S   UNL     1       3.485   2.918  17.908  0.00  0.00    +0.000 S 
ATOM     11  C   UNL     1       3.577   4.651  17.825  0.00  0.00    +0.000 A 
ATOM     12  H   UNL     1       4.008   8.336  17.347  0.00  0.00    +0.000 HD
ATOM     13  H   UNL     1       5.258   1.908  16.634  0.00  0.00    +0.000 HD
ENDROOT
BRANCH   2  14
ATOM     14  C   UNL     1       2.050   7.946  18.922  0.00  0.00    +0.000 A 
ATOM     15  C   UNL     1       1.861   7.951  20.303  0.00  0.00    +0.000 A 
ATOM     16  C   UNL     1       1.074   8.940  20.892  0.00  0.00    +0.000 A 
ATOM     17  C   UNL     1       0.457   9.951  20.138  0.00  0.00    +0.000 A 
ATOM     18  C   UNL     1       0.687   9.949  18.757  0.00  0.00    +0.000 A 
ATOM     19  C   UNL     1       1.472   8.958  18.152  0.00  0.00    +0.000 A 
BRANCH  17  20
ATOM     20  N   UNL     1      -0.302  10.910  20.780  0.00  0.00    +0.000 N 
ATOM     21  C   UNL     1      -0.205  11.154  22.219  0.00  0.00    +0.000 C 
ATOM     22  C   UNL     1      -1.618  11.451  22.728  0.00  0.00    +0.000 C 
ATOM     23  C   UNL     1      -2.274  12.631  21.983  0.00  0.00    +0.000 C 
ATOM     24  C   UNL     1      -2.200  12.385  20.463  0.00  0.00    +0.000 C 
ATOM     25  C   UNL     1      -0.778  12.063  20.008  0.00  0.00    +0.000 C 
BRANCH  23  26
ATOM     26  N   UNL     1      -1.669  13.942  22.283  0.00  0.00    +0.000 NA
ATOM     27  C   UNL     1      -1.563  14.211  23.712  0.00  0.00    +0.000 C 
ATOM     28  H   UNL     1      -2.248  14.672  21.864  0.00  0.00    +0.000 HD
ENDBRANCH  23  26
ENDBRANCH  17  20
ENDBRANCH   2  14
BRANCH   1  30
ATOM     29  C   UNL     1       2.221   4.602  20.818  0.00  0.00    +0.000 C 
ATOM     30  C   UNL     1       1.633   5.022  19.478  0.00  0.00    +0.000 C 
ENDBRANCH   1  30
TORSDOF 4
ENDMDL
MODEL 5
REMARK VINA RESULT:      -7.8      0.944      1.369
REMARK  Name = 
REMARK  6 active torsions:
REMARK  status: ('A' for Active; 'I' for Inactive)
REMARK    1  A    between atoms: C_1  and  C_2
REMARK    2  A    between atoms: C_2  and  C_3
REMARK    3  A    between atoms: C_4  and  C_5
REMARK    4  A    between atoms: C_8  and  N_9
REMARK    5  A    between atoms: C_12  and  N_13
REMARK    6  A    between atoms: N_13  and  C_14
REMARK                            x       y       z     vdW  Elec       q    Type
REMARK                         _______ _______ _______ _____ _____    ______ ____
ROOT
ATOM      1  C   UNL     1       2.683   5.622  18.304  0.00  0.00    +0.000 A 
ATOM      2  C   UNL     1       2.915   6.950  18.164  0.00  0.00    +0.000 A 
ATOM      3  N   UNL     1       4.013   7.404  17.469  0.00  0.00    +0.000 N 
ATOM      4  C   UNL     1       4.968   6.604  16.886  0.00  0.00    +0.000 A 
ATOM      5  O   UNL     1       5.934   7.083  16.312  0.00  0.00    +0.000 OA
ATOM      6  C   UNL     1       4.719   5.164  17.013  0.00  0.00    +0.000 A 
ATOM      7  C   UNL     1       5.543   4.059  16.490  0.00  0.00    +0.000 A 
ATOM      8  O   UNL     1       6.600   4.161  15.894  0.00  0.00    +0.000 OA
ATOM      9  N   UNL     1       4.941   2.858  16.791  0.00  0.00    +0.000 N 
ATOM     10  S   UNL     1       3.506   2.980  17.667  0.00  0.00    +0.000 S 
ATOM     11  C   UNL     1       3.636   4.712  17.666  0.00  0.00    +0.000 A 
ATOM     12  H   UNL     1       4.175   8.404  17.390  0.00  0.00    +0.000 HD
ATOM     13  H   UNL     1       5.380   1.985  16.534  0.00  0.00    +0.000 HD
ENDROOT
BRANCH   2  14
ATOM     14  C   UNL     1       2.062   7.993  18.745  0.00  0.00    +0.000 A 
ATOM     15  C   UNL     1       1.451   8.929  17.914  0.00  0.00    +0.000 A 
ATOM     16  C   UNL     1       0.653   9.931  18.467  0.00  0.00    +0.000 A 
ATOM     17  C   UNL     1       0.436  10.034  19.850  0.00  0.00    +0.000 A 
ATOM     18  C   UNL     1       1.031   9.063  20.665  0.00  0.00    +0.000 A 
ATOM     19  C   UNL     1       1.838   8.054  20.122  0.00  0.00    +0.000 A 
BRANCH  17  20
ATOM     20  N   UNL     1      -0.373  11.042  20.337  0.00  0.00    +0.000 N 
ATOM     21  C   UNL     1      -0.204  11.609  21.674  0.00  0.00    +0.000 C 
ATOM     22  C   UNL     1      -1.602  11.887  22.233  0.00  0.00    +0.000 C 
ATOM     23  C   UNL     1      -2.429  12.807  21.314  0.00  0.00    +0.000 C 
ATOM     24  C   UNL     1      -2.435  12.235  19.882  0.00  0.00    +0.000 C 
ATOM     25  C   UNL     1      -1.021  11.945  19.380  0.00  0.00    +0.000 C 
BRANCH  23  26
ATOM     26  N   UNL     1      -1.948  14.200  21.267  0.00  0.00    +0.000 NA
ATOM     27  C   UNL     1      -1.993  14.866  22.563  0.00  0.00    +0.000 C 
ATOM     28  H   UNL     1      -2.536  14.727  20.618  0.00  0.00    +0.000 HD
ENDBRANCH  23  26
ENDBRANCH  17  20
ENDBRANCH   2  14
BRANCH   1  30
ATOM     29  C   UNL     1       1.968   4.651  20.536  0.00  0.00    +0.000 C 
ATOM     30  C   UNL     1       1.542   5.057  19.132  0.00  0.00    +0.000 C 
ENDBRANCH   1  30
TORSDOF 4
ENDMDL
MODEL 6
REMARK VINA RESULT:      -7.7      4.126      9.124
REMARK  Name = 
REMARK  6 active torsions:
REMARK  status: ('A' for Active; 'I' for Inactive)
REMARK    1  A    between atoms: C_1  and  C_2
REMARK    2  A    between atoms: C_2  and  C_3
REMARK    3  A    between atoms: C_4  and  C_5
REMARK    4  A    between atoms: C_8  and  N_9
REMARK    5  A    between atoms: C_12  and  N_13
REMARK    6  A    between atoms: N_13  and  C_14
REMARK                            x       y       z     vdW  Elec       q    Type
REMARK                         _______ _______ _______ _____ _____    ______ ____
ROOT
ATOM      1  C   UNL     1      -0.925  10.929  19.671  0.00  0.00    +0.000 A 
ATOM      2  C   UNL     1       0.354  10.681  20.046  0.00  0.00    +0.000 A 
ATOM      3  N   UNL     1       1.088  11.630  20.720  0.00  0.00    +0.000 N 
ATOM      4  C   UNL     1       0.641  12.888  21.052  0.00  0.00    +0.000 A 
ATOM      5  O   UNL     1       1.366  13.689  21.623  0.00  0.00    +0.000 OA
ATOM      6  C   UNL     1      -0.747  13.164  20.669  0.00  0.00    +0.000 A 
ATOM      7  C   UNL     1      -1.513  14.403  20.894  0.00  0.00    +0.000 A 
ATOM      8  O   UNL     1      -1.101  15.429  21.407  0.00  0.00    +0.000 OA
ATOM      9  N   UNL     1      -2.795  14.242  20.418  0.00  0.00    +0.000 N 
ATOM     10  S   UNL     1      -3.108  12.745  19.709  0.00  0.00    +0.000 S 
ATOM     11  C   UNL     1      -1.480  12.234  20.035  0.00  0.00    +0.000 A 
ATOM     12  H   UNL     1       2.050  11.427  20.977  0.00  0.00    +0.000 HD
ATOM     13  H   UNL     1      -3.458  15.003  20.462  0.00  0.00    +0.000 HD
ENDROOT
BRANCH   2  14
ATOM     14  C   UNL     1       1.060   9.429  19.754  0.00  0.00    +0.000 A 
ATOM     15  C   UNL     1       1.626   9.230  18.497  0.00  0.00    +0.000 A 
ATOM     16  C   UNL     1       2.283   8.033  18.212  0.00  0.00    +0.000 A 
ATOM     17  C   UNL     1       2.402   7.004  19.160  0.00  0.00    +0.000 A 
ATOM     18  C   UNL     1       1.857   7.237  20.429  0.00  0.00    +0.000 A 
ATOM     19  C   UNL     1       1.191   8.433  20.725  0.00  0.00    +0.000 A 
BRANCH  17  20
ATOM     20  N   UNL     1       3.075   5.845  18.823  0.00  0.00    +0.000 N 
ATOM     21  C   UNL     1       4.457   5.594  19.227  0.00  0.00    +0.000 C 
ATOM     22  C   UNL     1       5.152   4.882  18.063  0.00  0.00    +0.000 C 
ATOM     23  C   UNL     1       4.424   3.588  17.649  0.00  0.00    +0.000 C 
ATOM     24  C   UNL     1       2.935   3.894  17.391  0.00  0.00    +0.000 C 
ATOM     25  C   UNL     1       2.294   4.630  18.566  0.00  0.00    +0.000 C 
BRANCH  23  26
ATOM     26  N   UNL     1       4.523   2.500  18.639  0.00  0.00    +0.000 NA
ATOM     27  C   UNL     1       3.587   1.411  18.390  0.00  0.00    +0.000 C 
ATOM     28  H   UNL     1       4.325   2.884  19.566  0.00  0.00    +0.000 HD
ENDBRANCH  23  26
ENDBRANCH  17  20
ENDBRANCH   2  14
BRANCH   1  30
ATOM     29  C   UNL     1      -1.685  10.233  17.353  0.00  0.00    +0.000 C 
ATOM     30  C   UNL     1      -1.757   9.960  18.849  0.00  0.00    +0.000 C 
ENDBRANCH   1  30
TORSDOF 4
ENDMDL
MODEL 7
REMARK VINA RESULT:      -7.7      4.067      9.259
REMARK  Name = 
REMARK  6 active torsions:
REMARK  status: ('A' for Active; 'I' for Inactive)
REMARK    1  A    between atoms: C_1  and  C_2
REMARK    2  A    between atoms: C_2  and  C_3
REMARK    3  A    between atoms: C_4  and  C_5
REMARK    4  A    between atoms: C_8  and  N_9
REMARK    5  A    between atoms: C_12  and  N_13
REMARK    6  A    between atoms: N_13  and  C_14
REMARK                            x       y       z     vdW  Elec       q    Type
REMARK                         _______ _______ _______ _____ _____    ______ ____
ROOT
ATOM      1  C   UNL     1      -1.111  10.813  19.403  0.00  0.00    +0.000 A 
ATOM      2  C   UNL     1       0.161  10.658  19.843  0.00  0.00    +0.000 A 
ATOM      3  N   UNL     1       0.741  11.593  20.670  0.00  0.00    +0.000 N 
ATOM      4  C   UNL     1       0.136  12.750  21.103  0.00  0.00    +0.000 A 
ATOM      5  O   UNL     1       0.729  13.550  21.811  0.00  0.00    +0.000 OA
ATOM      6  C   UNL     1      -1.248  12.922  20.650  0.00  0.00    +0.000 A 
ATOM      7  C   UNL     1      -2.161  14.040  20.952  0.00  0.00    +0.000 A 
ATOM      8  O   UNL     1      -1.899  15.036  21.603  0.00  0.00    +0.000 OA
ATOM      9  N   UNL     1      -3.384  13.802  20.367  0.00  0.00    +0.000 N 
ATOM     10  S   UNL     1      -3.483  12.374  19.476  0.00  0.00    +0.000 S 
ATOM     11  C   UNL     1      -1.831  12.001  19.866  0.00  0.00    +0.000 A 
ATOM     12  H   UNL     1       1.701  11.463  20.975  0.00  0.00    +0.000 HD
ATOM     13  H   UNL     1      -4.130  14.479  20.444  0.00  0.00    +0.000 HD
ENDROOT
BRANCH   2  14
ATOM     14  C   UNL     1       1.020   9.529  19.469  0.00  0.00    +0.000 A 
ATOM     15  C   UNL     1       1.614   9.498  18.209  0.00  0.00    +0.000 A 
ATOM     16  C   UNL     1       2.417   8.417  17.846  0.00  0.00    +0.000 A 
ATOM     17  C   UNL     1       2.658   7.342  18.717  0.00  0.00    +0.000 A 
ATOM     18  C   UNL     1       2.081   7.408  19.991  0.00  0.00    +0.000 A 
ATOM     19  C   UNL     1       1.269   8.486  20.366  0.00  0.00    +0.000 A 
BRANCH  17  20
ATOM     20  N   UNL     1       3.473   6.305  18.304  0.00  0.00    +0.000 N 
ATOM     21  C   UNL     1       3.121   4.900  18.510  0.00  0.00    +0.000 C 
ATOM     22  C   UNL     1       4.411   4.152  18.855  0.00  0.00    +0.000 C 
ATOM     23  C   UNL     1       5.498   4.326  17.776  0.00  0.00    +0.000 C 
ATOM     24  C   UNL     1       5.707   5.827  17.492  0.00  0.00    +0.000 C 
ATOM     25  C   UNL     1       4.389   6.536  17.182  0.00  0.00    +0.000 C 
BRANCH  23  26
ATOM     26  N   UNL     1       5.198   3.639  16.506  0.00  0.00    +0.000 NA
ATOM     27  C   UNL     1       6.185   3.899  15.466  0.00  0.00    +0.000 C 
ATOM     28  H   UNL     1       4.288   3.958  16.169  0.00  0.00    +0.000 HD
ENDBRANCH  23  26
ENDBRANCH  17  20
ENDBRANCH   2  14
BRANCH   1  30
ATOM     29  C   UNL     1      -1.788  10.397  16.994  0.00  0.00    +0.000 C 
ATOM     30  C   UNL     1      -1.776   9.866  18.420  0.00  0.00    +0.000 C 
ENDBRANCH   1  30
TORSDOF 4
ENDMDL
MODEL 8
REMARK VINA RESULT:      -7.6      4.089      9.171
REMARK  Name = 
REMARK  6 active torsions:
REMARK  status: ('A' for Active; 'I' for Inactive)
REMARK    1  A    between atoms: C_1  and  C_2
REMARK    2  A    between atoms: C_2  and  C_3
REMARK    3  A    between atoms: C_4  and  C_5
REMARK    4  A    between atoms: C_8  and  N_9
REMARK    5  A    between atoms: C_12  and  N_13
REMARK    6  A    between atoms: N_13  and  C_14
REMARK                            x       y       z     vdW  Elec       q    Type
REMARK                         _______ _______ _______ _____ _____    ______ ____
ROOT
ATOM      1  C   UNL     1      -0.800  11.199  19.788  0.00  0.00    +0.000 A 
ATOM      2  C   UNL     1       0.510  10.903  19.975  0.00  0.00    +0.000 A 
ATOM      3  N   UNL     1       1.355  11.801  20.586  0.00  0.00    +0.000 N 
ATOM      4  C   UNL     1       0.994  13.052  21.032  0.00  0.00    +0.000 A 
ATOM      5  O   UNL     1       1.813  13.807  21.535  0.00  0.00    +0.000 OA
ATOM      6  C   UNL     1      -0.424  13.378  20.853  0.00  0.00    +0.000 A 
ATOM      7  C   UNL     1      -1.116  14.622  21.236  0.00  0.00    +0.000 A 
ATOM      8  O   UNL     1      -0.609  15.612  21.734  0.00  0.00    +0.000 OA
ATOM      9  N   UNL     1      -2.454  14.514  20.931  0.00  0.00    +0.000 N 
ATOM     10  S   UNL     1      -2.904  13.061  20.203  0.00  0.00    +0.000 S 
ATOM     11  C   UNL     1      -1.263  12.497  20.283  0.00  0.00    +0.000 A 
ATOM     12  H   UNL     1       2.336  11.564  20.701  0.00  0.00    +0.000 HD
ATOM     13  H   UNL     1      -3.083  15.287  21.099  0.00  0.00    +0.000 HD
ENDROOT
BRANCH   2  14
ATOM     14  C   UNL     1       1.133   9.651  19.534  0.00  0.00    +0.000 A 
ATOM     15  C   UNL     1       1.279   8.596  20.432  0.00  0.00    +0.000 A 
ATOM     16  C   UNL     1       1.888   7.411  20.019  0.00  0.00    +0.000 A 
ATOM     17  C   UNL     1       2.365   7.235  18.710  0.00  0.00    +0.000 A 
ATOM     18  C   UNL     1       2.177   8.294  17.813  0.00  0.00    +0.000 A 
ATOM     19  C   UNL     1       1.572   9.491  18.217  0.00  0.00    +0.000 A 
BRANCH  17  20
ATOM     20  N   UNL     1       2.948   6.034  18.357  0.00  0.00    +0.000 N 
ATOM     21  C   UNL     1       4.397   5.868  18.241  0.00  0.00    +0.000 C 
ATOM     22  C   UNL     1       4.657   4.943  17.049  0.00  0.00    +0.000 C 
ATOM     23  C   UNL     1       3.927   3.592  17.184  0.00  0.00    +0.000 C 
ATOM     24  C   UNL     1       2.431   3.839  17.463  0.00  0.00    +0.000 C 
ATOM     25  C   UNL     1       2.223   4.791  18.641  0.00  0.00    +0.000 C 
BRANCH  23  26
ATOM     26  N   UNL     1       4.471   2.719  18.241  0.00  0.00    +0.000 NA
ATOM     27  C   UNL     1       3.698   1.498  18.431  0.00  0.00    +0.000 C 
ATOM     28  H   UNL     1       4.471   3.235  19.123  0.00  0.00    +0.000 HD
ENDBRANCH  23  26
ENDBRANCH  17  20
ENDBRANCH   2  14
BRANCH   1  30
ATOM     29  C   UNL     1      -1.854  10.609  17.557  0.00  0.00    +0.000 C 
ATOM     30  C   UNL     1      -1.762  10.291  19.043  0.00  0.00    +0.000 C 
ENDBRANCH   1  30
TORSDOF 4
ENDMDL
MODEL 9
REMARK VINA RESULT:      -7.6      3.967      9.329
REMARK  Name = 
REMARK  6 active torsions:
REMARK  status: ('A' for Active; 'I' for Inactive)
REMARK    1  A    between atoms: C_1  and  C_2
REMARK    2  A    between atoms: C_2  and  C_3
REMARK    3  A    between atoms: C_4  and  C_5
REMARK    4  A    between atoms: C_8  and  N_9
REMARK    5  A    between atoms: C_12  and  N_13
REMARK    6  A    between atoms: N_13  and  C_14
REMARK                            x       y       z     vdW  Elec       q    Type
REMARK                         _______ _______ _______ _____ _____    ______ ____
ROOT
ATOM      1  C   UNL     1      -0.338  10.482  19.665  0.00  0.00    +0.000 A 
ATOM      2  C   UNL     1       0.495   9.599  20.268  0.00  0.00    +0.000 A 
ATOM      3  N   UNL     1       0.552   9.507  21.640  0.00  0.00    +0.000 N 
ATOM      4  C   UNL     1      -0.174  10.280  22.516  0.00  0.00    +0.000 A 
ATOM      5  O   UNL     1      -0.043  10.162  23.726  0.00  0.00    +0.000 OA
ATOM      6  C   UNL     1      -1.094  11.227  21.878  0.00  0.00    +0.000 A 
ATOM      7  C   UNL     1      -2.010  12.175  22.538  0.00  0.00    +0.000 A 
ATOM      8  O   UNL     1      -2.125  12.358  23.737  0.00  0.00    +0.000 OA
ATOM      9  N   UNL     1      -2.730  12.856  21.583  0.00  0.00    +0.000 N 
ATOM     10  S   UNL     1      -2.354  12.456  19.988  0.00  0.00    +0.000 S 
ATOM     11  C   UNL     1      -1.177  11.304  20.540  0.00  0.00    +0.000 A 
ATOM     12  H   UNL     1       1.196   8.849  22.069  0.00  0.00    +0.000 HD
ATOM     13  H   UNL     1      -3.390  13.572  21.851  0.00  0.00    +0.000 HD
ENDROOT
BRANCH   2  14
ATOM     14  C   UNL     1       1.404   8.708  19.539  0.00  0.00    +0.000 A 
ATOM     15  C   UNL     1       1.790   7.497  20.107  0.00  0.00    +0.000 A 
ATOM     16  C   UNL     1       2.668   6.656  19.423  0.00  0.00    +0.000 A 
ATOM     17  C   UNL     1       3.185   6.987  18.160  0.00  0.00    +0.000 A 
ATOM     18  C   UNL     1       2.757   8.193  17.590  0.00  0.00    +0.000 A 
ATOM     19  C   UNL     1       1.880   9.048  18.270  0.00  0.00    +0.000 A 
BRANCH  17  20
ATOM     20  N   UNL     1       4.041   6.108  17.526  0.00  0.00    +0.000 N 
ATOM     21  C   UNL     1       3.744   4.683  17.388  0.00  0.00    +0.000 C 
ATOM     22  C   UNL     1       5.060   3.922  17.566  0.00  0.00    +0.000 C 
ATOM     23  C   UNL     1       6.145   4.387  16.574  0.00  0.00    +0.000 C 
ATOM     24  C   UNL     1       6.297   5.919  16.657  0.00  0.00    +0.000 C 
ATOM     25  C   UNL     1       4.955   6.632  16.505  0.00  0.00    +0.000 C 
BRANCH  23  26
ATOM     26  N   UNL     1       5.880   4.009  15.174  0.00  0.00    +0.000 NA
ATOM     27  C   UNL     1       6.860   4.549  14.239  0.00  0.00    +0.000 C 
ATOM     28  H   UNL     1       4.959   4.364  14.909  0.00  0.00    +0.000 HD
ENDBRANCH  23  26
ENDBRANCH  17  20
ENDBRANCH   2  14
BRANCH   1  30
ATOM     29  C   UNL     1      -1.556   9.989  17.496  0.00  0.00    +0.000 C 
ATOM     30  C   UNL     1      -0.384  10.695  18.162  0.00  0.00    +0.000 C 
ENDBRANCH   1  30
TORSDOF 4
ENDMDL
