MODEL 1
REMARK VINA RESULT:      -6.4      0.000      0.000
REMARK  Name = 
REMARK  6 active torsions:
REMARK  status: ('A' for Active; 'I' for Inactive)
REMARK    1  A    between atoms: C_1  and  C_2
REMARK    2  A    between atoms: C_7  and  C_8
REMARK    3  A    between atoms: N_9  and  C_10
REMARK    4  A    between atoms: C_10  and  C_11
REMARK    5  A    between atoms: C_11  and  C_12
REMARK    6  A    between atoms: C_12  and  C_13
REMARK                            x       y       z     vdW  Elec       q    Type
REMARK                         _______ _______ _______ _____ _____    ______ ____
ROOT
ATOM      1  C   UNL     1       6.895   7.155  17.469  0.00  0.00    +0.000 C 
ATOM      2  C   UNL     1       6.313   5.964  16.741  0.00  0.00    +0.000 A 
ATOM      3  C   UNL     1       6.834   5.669  15.536  0.00  0.00    +0.000 A 
ATOM      4  C   UNL     1       6.325   4.510  14.763  0.00  0.00    +0.000 A 
ATOM      5  S   UNL     1       6.949   4.097  13.251  0.00  0.00    +0.000 S 
ATOM      6  C   UNL     1       5.234   3.736  15.403  0.00  0.00    +0.000 A 
ATOM      7  C   UNL     1       4.766   4.093  16.614  0.00  0.00    +0.000 A 
ATOM      8  C   UNL     1       3.662   3.245  17.206  0.00  0.00    +0.000 C 
ATOM      9  N   UNL     1       5.272   5.206  17.331  0.00  0.00    +0.000 N 
ENDROOT
BRANCH   9  10
ATOM     10  C   UNL     1       4.687   5.591  18.644  0.00  0.00    +0.000 C 
BRANCH  10  11
ATOM     11  C   UNL     1       3.418   6.429  18.459  0.00  0.00    +0.000 C 
BRANCH  11  12
ATOM     12  C   UNL     1       2.552   6.451  19.724  0.00  0.00    +0.000 C 
BRANCH  12  13
ATOM     13  C   UNL     1       2.129   5.054  20.113  0.00  0.00    +0.000 A 
ATOM     14  C   UNL     1       1.268   4.315  19.289  0.00  0.00    +0.000 A 
ATOM     15  C   UNL     1       0.824   3.050  19.683  0.00  0.00    +0.000 A 
ATOM     16  C   UNL     1       1.233   2.514  20.901  0.00  0.00    +0.000 A 
ATOM     17  C   UNL     1       2.095   3.238  21.723  0.00  0.00    +0.000 A 
ATOM     18  C   UNL     1       2.541   4.502  21.332  0.00  0.00    +0.000 A 
ENDBRANCH  12  13
ENDBRANCH  11  12
ENDBRANCH  10  11
ENDBRANCH   9  10
TORSDOF 4
ENDMDL
MODEL 2
REMARK VINA RESULT:      -6.3      0.251      2.355
REMARK  Name = 
REMARK  6 active torsions:
REMARK  status: ('A' for Active; 'I' for Inactive)
REMARK    1  A    between atoms: C_1  and  C_2
REMARK    2  A    between atoms: C_7  and  C_8
REMARK    3  A    between atoms: N_9  and  C_10
REMARK    4  A    between atoms: C_10  and  C_11
REMARK    5  A    between atoms: C_11  and  C_12
REMARK    6  A    between atoms: C_12  and  C_13
REMARK                            x       y       z     vdW  Elec       q    Type
REMARK                         _______ _______ _______ _____ _____    ______ ____
ROOT
ATOM      1  C   UNL     1       3.629   3.107  17.450  0.00  0.00    +0.000 C 
ATOM      2  C   UNL     1       4.641   4.004  16.774  0.00  0.00    +0.000 A 
ATOM      3  C   UNL     1       5.113   3.603  15.579  0.00  0.00    +0.000 A 
ATOM      4  C   UNL     1       6.102   4.432  14.847  0.00  0.00    +0.000 A 
ATOM      5  S   UNL     1       6.718   3.975  13.345  0.00  0.00    +0.000 S 
ATOM      6  C   UNL     1       6.513   5.689  15.517  0.00  0.00    +0.000 A 
ATOM      7  C   UNL     1       5.994   6.024  16.714  0.00  0.00    +0.000 A 
ATOM      8  C   UNL     1       6.454   7.328  17.326  0.00  0.00    +0.000 C 
ATOM      9  N   UNL     1       5.050   5.212  17.391  0.00  0.00    +0.000 N 
ENDROOT
BRANCH   9  10
ATOM     10  C   UNL     1       4.544   5.599  18.736  0.00  0.00    +0.000 C 
BRANCH  10  11
ATOM     11  C   UNL     1       3.264   6.434  18.625  0.00  0.00    +0.000 C 
BRANCH  11  12
ATOM     12  C   UNL     1       2.463   6.439  19.931  0.00  0.00    +0.000 C 
BRANCH  12  13
ATOM     13  C   UNL     1       2.015   5.043  20.295  0.00  0.00    +0.000 A 
ATOM     14  C   UNL     1       2.520   4.408  21.439  0.00  0.00    +0.000 A 
ATOM     15  C   UNL     1       2.157   3.092  21.737  0.00  0.00    +0.000 A 
ATOM     16  C   UNL     1       1.290   2.399  20.897  0.00  0.00    +0.000 A 
ATOM     17  C   UNL     1       0.777   3.023  19.761  0.00  0.00    +0.000 A 
ATOM     18  C   UNL     1       1.138   4.338  19.461  0.00  0.00    +0.000 A 
ENDBRANCH  12  13
ENDBRANCH  11  12
ENDBRANCH  10  11
ENDBRANCH   9  10
TORSDOF 4
ENDMDL
MODEL 3
REMARK VINA RESULT:      -6.3      0.253      1.165
REMARK  Name = 
REMARK  6 active torsions:
REMARK  status: ('A' for Active; 'I' for Inactive)
REMARK    1  A    between atoms: C_1  and  C_2
REMARK    2  A    between atoms: C_7  and  C_8
REMARK    3  A    between atoms: N_9  and  C_10
REMARK    4  A    between atoms: C_10  and  C_11
REMARK    5  A    between atoms: C_11  and  C_12
REMARK    6  A    between atoms: C_12  and  C_13
REMARK                            x       y       z     vdW  Elec       q    Type
REMARK                         _______ _______ _______ _____ _____    ______ ____
ROOT
ATOM      1  C   UNL     1       7.104   6.847  17.952  0.00  0.00    +0.000 C 
ATOM      2  C   UNL     1       6.431   5.839  17.047  0.00  0.00    +0.000 A 
ATOM      3  C   UNL     1       7.002   5.615  15.849  0.00  0.00    +0.000 A 
ATOM      4  C   UNL     1       6.408   4.634  14.908  0.00  0.00    +0.000 A 
ATOM      5  S   UNL     1       7.090   4.314  13.399  0.00  0.00    +0.000 S 
ATOM      6  C   UNL     1       5.179   3.951  15.378  0.00  0.00    +0.000 A 
ATOM      7  C   UNL     1       4.668   4.228  16.593  0.00  0.00    +0.000 A 
ATOM      8  C   UNL     1       3.420   3.479  17.004  0.00  0.00    +0.000 C 
ATOM      9  N   UNL     1       5.257   5.171  17.472  0.00  0.00    +0.000 N 
ENDROOT
BRANCH   9  10
ATOM     10  C   UNL     1       4.626   5.480  18.784  0.00  0.00    +0.000 C 
BRANCH  10  11
ATOM     11  C   UNL     1       3.421   6.412  18.612  0.00  0.00    +0.000 C 
BRANCH  11  12
ATOM     12  C   UNL     1       2.540   6.453  19.865  0.00  0.00    +0.000 C 
BRANCH  12  13
ATOM     13  C   UNL     1       2.064   5.067  20.236  0.00  0.00    +0.000 A 
ATOM     14  C   UNL     1       2.523   4.446  21.407  0.00  0.00    +0.000 A 
ATOM     15  C   UNL     1       2.135   3.140  21.714  0.00  0.00    +0.000 A 
ATOM     16  C   UNL     1       1.289   2.442  20.856  0.00  0.00    +0.000 A 
ATOM     17  C   UNL     1       0.822   3.053  19.693  0.00  0.00    +0.000 A 
ATOM     18  C   UNL     1       1.208   4.359  19.384  0.00  0.00    +0.000 A 
ENDBRANCH  12  13
ENDBRANCH  11  12
ENDBRANCH  10  11
ENDBRANCH   9  10
TORSDOF 4
ENDMDL
MODEL 4
REMARK VINA RESULT:      -6.3      0.118      2.059
REMARK  Name = 
REMARK  6 active torsions:
REMARK  status: ('A' for Active; 'I' for Inactive)
REMARK    1  A    between atoms: C_1  and  C_2
REMARK    2  A    between atoms: C_7  and  C_8
REMARK    3  A    between atoms: N_9  and  C_10
REMARK    4  A    between atoms: C_10  and  C_11
REMARK    5  A    between atoms: C_11  and  C_12
REMARK    6  A    between atoms: C_12  and  C_13
REMARK                            x       y       z     vdW  Elec       q    Type
REMARK                         _______ _______ _______ _____ _____    ______ ____
ROOT
ATOM      1  C   UNL     1       3.486   3.307  17.135  0.00  0.00    +0.000 C 
ATOM      2  C   UNL     1       4.621   4.130  16.569  0.00  0.00    +0.000 A 
ATOM      3  C   UNL     1       5.122   3.748  15.380  0.00  0.00    +0.000 A 
ATOM      4  C   UNL     1       6.230   4.509  14.754  0.00  0.00    +0.000 A 
ATOM      5  S   UNL     1       6.887   4.072  13.263  0.00  0.00    +0.000 S 
ATOM      6  C   UNL     1       6.723   5.680  15.519  0.00  0.00    +0.000 A 
ATOM      7  C   UNL     1       6.168   6.001  16.703  0.00  0.00    +0.000 A 
ATOM      8  C   UNL     1       6.718   7.217  17.416  0.00  0.00    +0.000 C 
ATOM      9  N   UNL     1       5.109   5.255  17.279  0.00  0.00    +0.000 N 
ENDROOT
BRANCH   9  10
ATOM     10  C   UNL     1       4.564   5.620  18.615  0.00  0.00    +0.000 C 
BRANCH  10  11
ATOM     11  C   UNL     1       3.311   6.492  18.480  0.00  0.00    +0.000 C 
BRANCH  11  12
ATOM     12  C   UNL     1       2.459   6.479  19.754  0.00  0.00    +0.000 C 
BRANCH  12  13
ATOM     13  C   UNL     1       2.077   5.067  20.133  0.00  0.00    +0.000 A 
ATOM     14  C   UNL     1       1.224   4.315  19.313  0.00  0.00    +0.000 A 
ATOM     15  C   UNL     1       0.818   3.035  19.699  0.00  0.00    +0.000 A 
ATOM     16  C   UNL     1       1.257   2.496  20.906  0.00  0.00    +0.000 A 
ATOM     17  C   UNL     1       2.111   3.234  21.724  0.00  0.00    +0.000 A 
ATOM     18  C   UNL     1       2.519   4.513  21.341  0.00  0.00    +0.000 A 
ENDBRANCH  12  13
ENDBRANCH  11  12
ENDBRANCH  10  11
ENDBRANCH   9  10
TORSDOF 4
ENDMDL
MODEL 5
REMARK VINA RESULT:      -6.2      1.873      3.079
REMARK  Name = 
REMARK  6 active torsions:
REMARK  status: ('A' for Active; 'I' for Inactive)
REMARK    1  A    between atoms: C_1  and  C_2
REMARK    2  A    between atoms: C_7  and  C_8
REMARK    3  A    between atoms: N_9  and  C_10
REMARK    4  A    between atoms: C_10  and  C_11
REMARK    5  A    between atoms: C_11  and  C_12
REMARK    6  A    between atoms: C_12  and  C_13
REMARK                            x       y       z     vdW  Elec       q    Type
REMARK                         _______ _______ _______ _____ _____    ______ ____
ROOT
ATOM      1  C   UNL     1       6.660   4.036  15.219  0.00  0.00    +0.000 C 
ATOM      2  C   UNL     1       6.202   5.130  16.157  0.00  0.00    +0.000 A 
ATOM      3  C   UNL     1       7.077   6.120  16.417  0.00  0.00    +0.000 A 
ATOM      4  C   UNL     1       6.701   7.235  17.319  0.00  0.00    +0.000 A 
ATOM      5  S   UNL     1       7.760   8.500  17.670  0.00  0.00    +0.000 S 
ATOM      6  C   UNL     1       5.334   7.170  17.892  0.00  0.00    +0.000 A 
ATOM      7  C   UNL     1       4.515   6.147  17.582  0.00  0.00    +0.000 A 
ATOM      8  C   UNL     1       3.133   6.160  18.196  0.00  0.00    +0.000 C 
ATOM      9  N   UNL     1       4.901   5.093  16.717  0.00  0.00    +0.000 N 
ENDROOT
BRANCH   9  10
ATOM     10  C   UNL     1       3.978   3.958  16.446  0.00  0.00    +0.000 C 
BRANCH  10  11
ATOM     11  C   UNL     1       4.251   2.785  17.394  0.00  0.00    +0.000 C 
BRANCH  11  12
ATOM     12  C   UNL     1       2.981   1.986  17.704  0.00  0.00    +0.000 C 
BRANCH  12  13
ATOM     13  C   UNL     1       2.411   2.378  19.047  0.00  0.00    +0.000 A 
ATOM     14  C   UNL     1       1.086   2.825  19.156  0.00  0.00    +0.000 A 
ATOM     15  C   UNL     1       0.582   3.251  20.388  0.00  0.00    +0.000 A 
ATOM     16  C   UNL     1       1.394   3.236  21.519  0.00  0.00    +0.000 A 
ATOM     17  C   UNL     1       2.710   2.786  21.422  0.00  0.00    +0.000 A 
ATOM     18  C   UNL     1       3.216   2.360  20.193  0.00  0.00    +0.000 A 
ENDBRANCH  12  13
ENDBRANCH  11  12
ENDBRANCH  10  11
ENDBRANCH   9  10
TORSDOF 4
ENDMDL
MODEL 6
REMARK VINA RESULT:      -6.1      1.949      3.793
REMARK  Name = 
REMARK  6 active torsions:
REMARK  status: ('A' for Active; 'I' for Inactive)
REMARK    1  A    between atoms: C_1  and  C_2
REMARK    2  A    between atoms: C_7  and  C_8
REMARK    3  A    between atoms: N_9  and  C_10
REMARK    4  A    between atoms: C_10  and  C_11
REMARK    5  A    between atoms: C_11  and  C_12
REMARK    6  A    between atoms: C_12  and  C_13
REMARK                            x       y       z     vdW  Elec       q    Type
REMARK                         _______ _______ _______ _____ _____    ______ ____
ROOT
ATOM      1  C   UNL     1       3.780   3.030  17.762  0.00  0.00    +0.000 C 
ATOM      2  C   UNL     1       4.838   3.845  17.053  0.00  0.00    +0.000 A 
ATOM      3  C   UNL     1       5.104   3.523  15.774  0.00  0.00    +0.000 A 
ATOM      4  C   UNL     1       6.121   4.281  15.006  0.00  0.00    +0.000 A 
ATOM      5  S   UNL     1       6.485   3.919  13.399  0.00  0.00    +0.000 S 
ATOM      6  C   UNL     1       6.797   5.379  15.739  0.00  0.00    +0.000 A 
ATOM      7  C   UNL     1       6.475   5.643  17.019  0.00  0.00    +0.000 A 
ATOM      8  C   UNL     1       7.199   6.787  17.693  0.00  0.00    +0.000 C 
ATOM      9  N   UNL     1       5.498   4.901  17.729  0.00  0.00    +0.000 N 
ENDROOT
BRANCH   9  10
ATOM     10  C   UNL     1       5.213   5.197  19.160  0.00  0.00    +0.000 C 
BRANCH  10  11
ATOM     11  C   UNL     1       3.793   5.746  19.337  0.00  0.00    +0.000 C 
BRANCH  11  12
ATOM     12  C   UNL     1       3.409   6.724  18.222  0.00  0.00    +0.000 C 
BRANCH  12  13
ATOM     13  C   UNL     1       2.404   7.739  18.715  0.00  0.00    +0.000 A 
ATOM     14  C   UNL     1       1.916   8.734  17.857  0.00  0.00    +0.000 A 
ATOM     15  C   UNL     1       1.039   9.712  18.332  0.00  0.00    +0.000 A 
ATOM     16  C   UNL     1       0.643   9.706  19.667  0.00  0.00    +0.000 A 
ATOM     17  C   UNL     1       1.116   8.716  20.527  0.00  0.00    +0.000 A 
ATOM     18  C   UNL     1       1.993   7.738  20.054  0.00  0.00    +0.000 A 
ENDBRANCH  12  13
ENDBRANCH  11  12
ENDBRANCH  10  11
ENDBRANCH   9  10
TORSDOF 4
ENDMDL
MODEL 7
REMARK VINA RESULT:      -6.1      1.932      3.945
REMARK  Name = 
REMARK  6 active torsions:
REMARK  status: ('A' for Active; 'I' for Inactive)
REMARK    1  A    between atoms: C_1  and  C_2
REMARK    2  A    between atoms: C_7  and  C_8
REMARK    3  A    between atoms: N_9  and  C_10
REMARK    4  A    between atoms: C_10  and  C_11
REMARK    5  A    between atoms: C_11  and  C_12
REMARK    6  A    between atoms: C_12  and  C_13
REMARK                            x       y       z     vdW  Elec       q    Type
REMARK                         _______ _______ _______ _____ _____    ______ ____
ROOT
ATOM      1  C   UNL     1       3.661   3.059  17.592  0.00  0.00    +0.000 C 
ATOM      2  C   UNL     1       4.771   3.873  16.966  0.00  0.00    +0.000 A 
ATOM      3  C   UNL     1       5.088   3.597  15.688  0.00  0.00    +0.000 A 
ATOM      4  C   UNL     1       6.159   4.359  14.999  0.00  0.00    +0.000 A 
ATOM      5  S   UNL     1       6.588   4.053  13.397  0.00  0.00    +0.000 S 
ATOM      6  C   UNL     1       6.828   5.406  15.808  0.00  0.00    +0.000 A 
ATOM      7  C   UNL     1       6.453   5.626  17.083  0.00  0.00    +0.000 A 
ATOM      8  C   UNL     1       7.174   6.721  17.836  0.00  0.00    +0.000 C 
ATOM      9  N   UNL     1       5.425   4.882  17.715  0.00  0.00    +0.000 N 
ENDROOT
BRANCH   9  10
ATOM     10  C   UNL     1       5.082   5.127  19.143  0.00  0.00    +0.000 C 
BRANCH  10  11
ATOM     11  C   UNL     1       3.678   5.726  19.278  0.00  0.00    +0.000 C 
BRANCH  11  12
ATOM     12  C   UNL     1       3.375   6.741  18.171  0.00  0.00    +0.000 C 
BRANCH  12  13
ATOM     13  C   UNL     1       2.433   7.814  18.664  0.00  0.00    +0.000 A 
ATOM     14  C   UNL     1       1.978   7.807  19.991  0.00  0.00    +0.000 A 
ATOM     15  C   UNL     1       1.054   8.760  20.428  0.00  0.00    +0.000 A 
ATOM     16  C   UNL     1       0.575   9.725  19.545  0.00  0.00    +0.000 A 
ATOM     17  C   UNL     1       1.027   9.744  18.227  0.00  0.00    +0.000 A 
ATOM     18  C   UNL     1       1.950   8.793  17.788  0.00  0.00    +0.000 A 
ENDBRANCH  12  13
ENDBRANCH  11  12
ENDBRANCH  10  11
ENDBRANCH   9  10
TORSDOF 4
ENDMDL
MODEL 8
REMARK VINA RESULT:      -6.1      2.987      6.263
REMARK  Name = 
REMARK  6 active torsions:
REMARK  status: ('A' for Active; 'I' for Inactive)
REMARK    1  A    between atoms: C_1  and  C_2
REMARK    2  A    between atoms: C_7  and  C_8
REMARK    3  A    between atoms: N_9  and  C_10
REMARK    4  A    between atoms: C_10  and  C_11
REMARK    5  A    between atoms: C_11  and  C_12
REMARK    6  A    between atoms: C_12  and  C_13
REMARK                            x       y       z     vdW  Elec       q    Type
REMARK                         _______ _______ _______ _____ _____    ______ ____
ROOT
ATOM      1  C   UNL     1       1.752   3.507  19.995  0.00  0.00    +0.000 C 
ATOM      2  C   UNL     1       1.950   4.981  19.721  0.00  0.00    +0.000 A 
ATOM      3  C   UNL     1       1.534   5.841  20.670  0.00  0.00    +0.000 A 
ATOM      4  C   UNL     1       1.702   7.303  20.482  0.00  0.00    +0.000 A 
ATOM      5  S   UNL     1       1.203   8.419  21.644  0.00  0.00    +0.000 S 
ATOM      6  C   UNL     1       2.337   7.721  19.209  0.00  0.00    +0.000 A 
ATOM      7  C   UNL     1       2.728   6.800  18.308  0.00  0.00    +0.000 A 
ATOM      8  C   UNL     1       3.380   7.306  17.041  0.00  0.00    +0.000 C 
ATOM      9  N   UNL     1       2.556   5.408  18.514  0.00  0.00    +0.000 N 
ENDROOT
BRANCH   9  10
ATOM     10  C   UNL     1       2.958   4.431  17.466  0.00  0.00    +0.000 C 
BRANCH  10  11
ATOM     11  C   UNL     1       4.305   3.782  17.804  0.00  0.00    +0.000 C 
BRANCH  11  12
ATOM     12  C   UNL     1       5.411   4.211  16.834  0.00  0.00    +0.000 C 
BRANCH  12  13
ATOM     13  C   UNL     1       6.329   5.225  17.476  0.00  0.00    +0.000 A 
ATOM     14  C   UNL     1       6.632   6.427  16.820  0.00  0.00    +0.000 A 
ATOM     15  C   UNL     1       7.534   7.333  17.384  0.00  0.00    +0.000 A 
ATOM     16  C   UNL     1       8.141   7.048  18.604  0.00  0.00    +0.000 A 
ATOM     17  C   UNL     1       7.840   5.859  19.267  0.00  0.00    +0.000 A 
ATOM     18  C   UNL     1       6.939   4.952  18.706  0.00  0.00    +0.000 A 
ENDBRANCH  12  13
ENDBRANCH  11  12
ENDBRANCH  10  11
ENDBRANCH   9  10
TORSDOF 4
ENDMDL
MODEL 9
REMARK VINA RESULT:      -6.0      1.869      3.056
REMARK  Name = 
REMARK  6 active torsions:
REMARK  status: ('A' for Active; 'I' for Inactive)
REMARK    1  A    between atoms: C_1  and  C_2
REMARK    2  A    between atoms: C_7  and  C_8
REMARK    3  A    between atoms: N_9  and  C_10
REMARK    4  A    between atoms: C_10  and  C_11
REMARK    5  A    between atoms: C_11  and  C_12
REMARK    6  A    between atoms: C_12  and  C_13
REMARK                            x       y       z     vdW  Elec       q    Type
REMARK                         _______ _______ _______ _____ _____    ______ ____
ROOT
ATOM      1  C   UNL     1       5.205   4.124  19.622  0.00  0.00    +0.000 C 
ATOM      2  C   UNL     1       5.732   4.871  18.418  0.00  0.00    +0.000 A 
ATOM      3  C   UNL     1       6.474   5.968  18.654  0.00  0.00    +0.000 A 
ATOM      4  C   UNL     1       7.036   6.750  17.526  0.00  0.00    +0.000 A 
ATOM      5  S   UNL     1       7.977   8.129  17.772  0.00  0.00    +0.000 S 
ATOM      6  C   UNL     1       6.721   6.244  16.168  0.00  0.00    +0.000 A 
ATOM      7  C   UNL     1       5.972   5.136  16.012  0.00  0.00    +0.000 A 
ATOM      8  C   UNL     1       5.706   4.675  14.596  0.00  0.00    +0.000 C 
ATOM      9  N   UNL     1       5.447   4.407  17.109  0.00  0.00    +0.000 N 
ENDROOT
BRANCH   9  10
ATOM     10  C   UNL     1       4.582   3.217  16.885  0.00  0.00    +0.000 C 
BRANCH  10  11
ATOM     11  C   UNL     1       3.109   3.621  16.761  0.00  0.00    +0.000 C 
BRANCH  11  12
ATOM     12  C   UNL     1       2.178   2.629  17.466  0.00  0.00    +0.000 C 
BRANCH  12  13
ATOM     13  C   UNL     1       1.939   3.039  18.900  0.00  0.00    +0.000 A 
ATOM     14  C   UNL     1       1.676   4.378  19.224  0.00  0.00    +0.000 A 
ATOM     15  C   UNL     1       1.522   4.767  20.557  0.00  0.00    +0.000 A 
ATOM     16  C   UNL     1       1.632   3.825  21.578  0.00  0.00    +0.000 A 
ATOM     17  C   UNL     1       1.886   2.491  21.265  0.00  0.00    +0.000 A 
ATOM     18  C   UNL     1       2.040   2.099  19.933  0.00  0.00    +0.000 A 
ENDBRANCH  12  13
ENDBRANCH  11  12
ENDBRANCH  10  11
ENDBRANCH   9  10
TORSDOF 4
ENDMDL
