MODEL 1
REMARK VINA RESULT:      -7.4      0.000      0.000
REMARK  Name = 
REMARK  11 active torsions:
REMARK  status: ('A' for Active; 'I' for Inactive)
REMARK    1  A    between atoms: C_1  and  O_2
REMARK    2  A    between atoms: O_2  and  C_3
REMARK    3  A    between atoms: C_5  and  N_6
REMARK    4  A    between atoms: C_7  and  C_8
REMARK    5  A    between atoms: C_8  and  C_10
REMARK    6  A    between atoms: C_16  and  O_17
REMARK    7  A    between atoms: O_17  and  C_18
REMARK    8  A    between atoms: C_19  and  O_20
REMARK    9  A    between atoms: O_20  and  C_21
REMARK   10  A    between atoms: C_25  and  O_26
REMARK   11  A    between atoms: O_26  and  C_27
REMARK                            x       y       z     vdW  Elec       q    Type
REMARK                         _______ _______ _______ _____ _____    ______ ____
ROOT
ATOM      1  C   UNL     1       4.015   3.298  17.886  0.00  0.00    +0.000 C 
ATOM      2  O   UNL     1       3.954   2.360  17.088  0.00  0.00    +0.000 OA
ENDROOT
BRANCH   1   3
ATOM      3  C   UNL     1       2.960   3.487  18.943  0.00  0.00    +0.000 A 
ATOM      4  N   UNL     1       2.530   2.323  19.514  0.00  0.00    +0.000 NA
ATOM      5  C   UNL     1       1.655   2.410  20.528  0.00  0.00    +0.000 A 
ATOM      6  C   UNL     1       1.184   3.610  21.020  0.00  0.00    +0.000 A 
ATOM      7  C   UNL     1       1.622   4.801  20.428  0.00  0.00    +0.000 A 
ATOM      8  C   UNL     1       1.179   6.037  20.919  0.00  0.00    +0.000 A 
ATOM      9  C   UNL     1       1.535   7.284  20.354  0.00  0.00    +0.000 A 
ATOM     10  C   UNL     1       2.340   7.278  19.217  0.00  0.00    +0.000 A 
ATOM     11  C   UNL     1       2.815   6.028  18.743  0.00  0.00    +0.000 A 
ATOM     12  C   UNL     1       2.506   4.774  19.344  0.00  0.00    +0.000 A 
BRANCH   9  13
ATOM     13  O   UNL     1       0.891   8.254  21.055  0.00  0.00    +0.000 OA
ATOM     14  C   UNL     1       1.497   9.046  22.043  0.00  0.00    +0.000 C 
ENDBRANCH   9  13
BRANCH  10  15
ATOM     15  O   UNL     1       2.596   8.259  18.303  0.00  0.00    +0.000 OA
ATOM     16  C   UNL     1       1.598   9.170  17.892  0.00  0.00    +0.000 C 
ENDBRANCH  10  15
ENDBRANCH   1   3
BRANCH   1  20
ATOM     17  C   UNL     1       7.080   6.181  17.019  0.00  0.00    +0.000 A 
ATOM     18  C   UNL     1       6.848   5.790  18.350  0.00  0.00    +0.000 A 
ATOM     19  C   UNL     1       5.853   4.863  18.705  0.00  0.00    +0.000 A 
ATOM     20  C   UNL     1       5.094   4.294  17.674  0.00  0.00    +0.000 A 
ATOM     21  C   UNL     1       5.335   4.660  16.338  0.00  0.00    +0.000 A 
ATOM     22  C   UNL     1       6.315   5.600  15.998  0.00  0.00    +0.000 A 
BRANCH  19  23
ATOM     23  N   UNL     1       5.857   4.387  20.032  0.00  0.00    +0.000 N 
ATOM     24  H   UNL     1       6.314   3.487  20.129  0.00  0.00    +0.000 HD
ATOM     25  H   UNL     1       6.242   5.049  20.698  0.00  0.00    +0.000 HD
ENDBRANCH  19  23
BRANCH  17  27
ATOM     26  C   UNL     1       8.012   8.321  17.481  0.00  0.00    +0.000 C 
ATOM     27  O   UNL     1       8.008   7.136  16.694  0.00  0.00    +0.000 OA
ENDBRANCH  17  27
BRANCH  22  28
ATOM     28  O   UNL     1       6.388   5.808  14.645  0.00  0.00    +0.000 OA
ATOM     29  C   UNL     1       6.728   4.723  13.798  0.00  0.00    +0.000 C 
ENDBRANCH  22  28
ENDBRANCH   1  20
TORSDOF 7
ENDMDL
MODEL 2
REMARK VINA RESULT:      -7.2      4.005      7.810
REMARK  Name = 
REMARK  11 active torsions:
REMARK  status: ('A' for Active; 'I' for Inactive)
REMARK    1  A    between atoms: C_1  and  O_2
REMARK    2  A    between atoms: O_2  and  C_3
REMARK    3  A    between atoms: C_5  and  N_6
REMARK    4  A    between atoms: C_7  and  C_8
REMARK    5  A    between atoms: C_8  and  C_10
REMARK    6  A    between atoms: C_16  and  O_17
REMARK    7  A    between atoms: O_17  and  C_18
REMARK    8  A    between atoms: C_19  and  O_20
REMARK    9  A    between atoms: O_20  and  C_21
REMARK   10  A    between atoms: C_25  and  O_26
REMARK   11  A    between atoms: O_26  and  C_27
REMARK                            x       y       z     vdW  Elec       q    Type
REMARK                         _______ _______ _______ _____ _____    ______ ____
ROOT
ATOM      1  C   UNL     1       1.191   9.941  18.358  0.00  0.00    +0.000 C 
ATOM      2  O   UNL     1       2.057  10.398  17.609  0.00  0.00    +0.000 OA
ENDROOT
BRANCH   1   3
ATOM      3  C   UNL     1       1.487   8.778  19.267  0.00  0.00    +0.000 A 
ATOM      4  N   UNL     1       0.815   8.815  20.456  0.00  0.00    +0.000 NA
ATOM      5  C   UNL     1       0.956   7.770  21.286  0.00  0.00    +0.000 A 
ATOM      6  C   UNL     1       1.732   6.668  20.991  0.00  0.00    +0.000 A 
ATOM      7  C   UNL     1       2.425   6.636  19.775  0.00  0.00    +0.000 A 
ATOM      8  C   UNL     1       3.204   5.521  19.436  0.00  0.00    +0.000 A 
ATOM      9  C   UNL     1       3.970   5.425  18.251  0.00  0.00    +0.000 A 
ATOM     10  C   UNL     1       3.982   6.522  17.392  0.00  0.00    +0.000 A 
ATOM     11  C   UNL     1       3.166   7.635  17.720  0.00  0.00    +0.000 A 
ATOM     12  C   UNL     1       2.347   7.712  18.883  0.00  0.00    +0.000 A 
BRANCH   9  13
ATOM     13  O   UNL     1       4.626   4.234  18.278  0.00  0.00    +0.000 OA
ATOM     14  C   UNL     1       4.436   3.254  19.265  0.00  0.00    +0.000 C 
ENDBRANCH   9  13
BRANCH  10  15
ATOM     15  O   UNL     1       4.826   6.840  16.366  0.00  0.00    +0.000 OA
ATOM     16  C   UNL     1       5.356   5.853  15.507  0.00  0.00    +0.000 C 
ENDBRANCH  10  15
ENDBRANCH   1   3
BRANCH   1  20
ATOM     17  C   UNL     1      -2.821  11.376  17.812  0.00  0.00    +0.000 A 
ATOM     18  C   UNL     1      -1.978  12.004  18.747  0.00  0.00    +0.000 A 
ATOM     19  C   UNL     1      -0.661  11.577  18.985  0.00  0.00    +0.000 A 
ATOM     20  C   UNL     1      -0.176  10.501  18.229  0.00  0.00    +0.000 A 
ATOM     21  C   UNL     1      -1.003   9.883  17.274  0.00  0.00    +0.000 A 
ATOM     22  C   UNL     1      -2.321  10.304  17.061  0.00  0.00    +0.000 A 
BRANCH  19  23
ATOM     23  N   UNL     1       0.156  12.409  19.778  0.00  0.00    +0.000 N 
ATOM     24  H   UNL     1       0.990  12.723  19.295  0.00  0.00    +0.000 HD
ATOM     25  H   UNL     1      -0.339  13.203  20.173  0.00  0.00    +0.000 HD
ENDBRANCH  19  23
BRANCH  17  27
ATOM     26  C   UNL     1      -5.122  10.934  18.231  0.00  0.00    +0.000 C 
ATOM     27  O   UNL     1      -4.126  11.759  17.639  0.00  0.00    +0.000 OA
ENDBRANCH  17  27
BRANCH  22  28
ATOM     28  O   UNL     1      -2.949   9.571  16.087  0.00  0.00    +0.000 OA
ATOM     29  C   UNL     1      -3.023  10.094  14.771  0.00  0.00    +0.000 C 
ENDBRANCH  22  28
ENDBRANCH   1  20
TORSDOF 7
ENDMDL
MODEL 3
REMARK VINA RESULT:      -7.2      7.613     12.000
REMARK  Name = 
REMARK  11 active torsions:
REMARK  status: ('A' for Active; 'I' for Inactive)
REMARK    1  A    between atoms: C_1  and  O_2
REMARK    2  A    between atoms: O_2  and  C_3
REMARK    3  A    between atoms: C_5  and  N_6
REMARK    4  A    between atoms: C_7  and  C_8
REMARK    5  A    between atoms: C_8  and  C_10
REMARK    6  A    between atoms: C_16  and  O_17
REMARK    7  A    between atoms: O_17  and  C_18
REMARK    8  A    between atoms: C_19  and  O_20
REMARK    9  A    between atoms: O_20  and  C_21
REMARK   10  A    between atoms: C_25  and  O_26
REMARK   11  A    between atoms: O_26  and  C_27
REMARK                            x       y       z     vdW  Elec       q    Type
REMARK                         _______ _______ _______ _____ _____    ______ ____
ROOT
ATOM      1  C   UNL     1      -5.478  12.420  17.656  0.00  0.00    +0.000 C 
ATOM      2  O   UNL     1      -6.042  13.173  16.859  0.00  0.00    +0.000 OA
ENDROOT
BRANCH   1   3
ATOM      3  C   UNL     1      -4.359  11.517  17.212  0.00  0.00    +0.000 A 
ATOM      4  N   UNL     1      -4.576  10.915  16.005  0.00  0.00    +0.000 NA
ATOM      5  C   UNL     1      -3.587  10.163  15.496  0.00  0.00    +0.000 A 
ATOM      6  C   UNL     1      -2.373   9.982  16.124  0.00  0.00    +0.000 A 
ATOM      7  C   UNL     1      -2.156  10.596  17.364  0.00  0.00    +0.000 A 
ATOM      8  C   UNL     1      -0.925  10.450  18.018  0.00  0.00    +0.000 A 
ATOM      9  C   UNL     1      -0.638  10.997  19.290  0.00  0.00    +0.000 A 
ATOM     10  C   UNL     1      -1.655  11.686  19.948  0.00  0.00    +0.000 A 
ATOM     11  C   UNL     1      -2.888  11.862  19.270  0.00  0.00    +0.000 A 
ATOM     12  C   UNL     1      -3.162  11.363  17.964  0.00  0.00    +0.000 A 
BRANCH   9  13
ATOM     13  O   UNL     1       0.624  10.620  19.626  0.00  0.00    +0.000 OA
ATOM     14  C   UNL     1       1.437   9.795  18.834  0.00  0.00    +0.000 C 
ENDBRANCH   9  13
BRANCH  10  15
ATOM     15  O   UNL     1      -1.778  12.053  21.257  0.00  0.00    +0.000 OA
ATOM     16  C   UNL     1      -0.878  11.596  22.245  0.00  0.00    +0.000 C 
ENDBRANCH  10  15
ENDBRANCH   1   3
BRANCH   1  20
ATOM     17  C   UNL     1      -7.139  11.976  21.594  0.00  0.00    +0.000 A 
ATOM     18  C   UNL     1      -6.603  13.215  21.199  0.00  0.00    +0.000 A 
ATOM     19  C   UNL     1      -6.033  13.426  19.932  0.00  0.00    +0.000 A 
ATOM     20  C   UNL     1      -6.035  12.354  19.029  0.00  0.00    +0.000 A 
ATOM     21  C   UNL     1      -6.591  11.118  19.405  0.00  0.00    +0.000 A 
ATOM     22  C   UNL     1      -7.138  10.915  20.678  0.00  0.00    +0.000 A 
BRANCH  19  23
ATOM     23  N   UNL     1      -5.728  14.754  19.572  0.00  0.00    +0.000 N 
ATOM     24  H   UNL     1      -5.981  15.427  20.289  0.00  0.00    +0.000 HD
ATOM     25  H   UNL     1      -4.760  14.886  19.295  0.00  0.00    +0.000 HD
ENDBRANCH  19  23
BRANCH  17  27
ATOM     26  C   UNL     1      -7.299  12.734  23.843  0.00  0.00    +0.000 C 
ATOM     27  O   UNL     1      -7.631  11.766  22.856  0.00  0.00    +0.000 OA
ENDBRANCH  17  27
BRANCH  22  28
ATOM     28  O   UNL     1      -7.627   9.644  20.836  0.00  0.00    +0.000 OA
ATOM     29  C   UNL     1      -7.199   8.625  19.946  0.00  0.00    +0.000 C 
ENDBRANCH  22  28
ENDBRANCH   1  20
TORSDOF 7
ENDMDL
MODEL 4
REMARK VINA RESULT:      -7.1      4.144      6.607
REMARK  Name = 
REMARK  11 active torsions:
REMARK  status: ('A' for Active; 'I' for Inactive)
REMARK    1  A    between atoms: C_1  and  O_2
REMARK    2  A    between atoms: O_2  and  C_3
REMARK    3  A    between atoms: C_5  and  N_6
REMARK    4  A    between atoms: C_7  and  C_8
REMARK    5  A    between atoms: C_8  and  C_10
REMARK    6  A    between atoms: C_16  and  O_17
REMARK    7  A    between atoms: O_17  and  C_18
REMARK    8  A    between atoms: C_19  and  O_20
REMARK    9  A    between atoms: O_20  and  C_21
REMARK   10  A    between atoms: C_25  and  O_26
REMARK   11  A    between atoms: O_26  and  C_27
REMARK                            x       y       z     vdW  Elec       q    Type
REMARK                         _______ _______ _______ _____ _____    ______ ____
ROOT
ATOM      1  C   UNL     1       1.645   9.584  18.494  0.00  0.00    +0.000 C 
ATOM      2  O   UNL     1       2.264  10.074  17.547  0.00  0.00    +0.000 OA
ENDROOT
BRANCH   1   3
ATOM      3  C   UNL     1       0.629  10.391  19.257  0.00  0.00    +0.000 A 
ATOM      4  N   UNL     1       1.092  10.892  20.441  0.00  0.00    +0.000 NA
ATOM      5  C   UNL     1       0.276  11.696  21.140  0.00  0.00    +0.000 A 
ATOM      6  C   UNL     1      -0.990  12.044  20.717  0.00  0.00    +0.000 A 
ATOM      7  C   UNL     1      -1.464  11.523  19.506  0.00  0.00    +0.000 A 
ATOM      8  C   UNL     1      -2.737  11.875  19.037  0.00  0.00    +0.000 A 
ATOM      9  C   UNL     1      -3.309  11.362  17.850  0.00  0.00    +0.000 A 
ATOM     10  C   UNL     1      -2.579  10.419  17.128  0.00  0.00    +0.000 A 
ATOM     11  C   UNL     1      -1.278  10.092  17.586  0.00  0.00    +0.000 A 
ATOM     12  C   UNL     1      -0.673  10.650  18.749  0.00  0.00    +0.000 A 
BRANCH   9  13
ATOM     13  O   UNL     1      -4.559  11.884  17.735  0.00  0.00    +0.000 OA
ATOM     14  C   UNL     1      -5.739  11.170  18.000  0.00  0.00    +0.000 C 
ENDBRANCH   9  13
BRANCH  10  15
ATOM     15  O   UNL     1      -2.969   9.551  16.149  0.00  0.00    +0.000 OA
ATOM     16  C   UNL     1      -3.257   9.990  14.838  0.00  0.00    +0.000 C 
ENDBRANCH  10  15
ENDBRANCH   1   3
BRANCH   1  20
ATOM     17  C   UNL     1       2.927   5.612  19.513  0.00  0.00    +0.000 A 
ATOM     18  C   UNL     1       2.108   6.330  20.404  0.00  0.00    +0.000 A 
ATOM     19  C   UNL     1       1.665   7.637  20.139  0.00  0.00    +0.000 A 
ATOM     20  C   UNL     1       2.038   8.219  18.920  0.00  0.00    +0.000 A 
ATOM     21  C   UNL     1       2.836   7.500  18.013  0.00  0.00    +0.000 A 
ATOM     22  C   UNL     1       3.289   6.206  18.297  0.00  0.00    +0.000 A 
BRANCH  19  23
ATOM     23  N   UNL     1       0.679   8.172  20.995  0.00  0.00    +0.000 N 
ATOM     24  H   UNL     1      -0.080   8.620  20.493  0.00  0.00    +0.000 HD
ATOM     25  H   UNL     1       0.311   7.497  21.658  0.00  0.00    +0.000 HD
ENDBRANCH  19  23
BRANCH  17  27
ATOM     26  C   UNL     1       2.478   3.289  19.767  0.00  0.00    +0.000 C 
ATOM     27  O   UNL     1       3.408   4.365  19.815  0.00  0.00    +0.000 OA
ENDBRANCH  17  27
BRANCH  22  28
ATOM     28  O   UNL     1       4.047   5.687  17.279  0.00  0.00    +0.000 OA
ATOM     29  C   UNL     1       5.440   5.951  17.253  0.00  0.00    +0.000 C 
ENDBRANCH  22  28
ENDBRANCH   1  20
TORSDOF 7
ENDMDL
MODEL 5
REMARK VINA RESULT:      -7.1      1.704      2.456
REMARK  Name = 
REMARK  11 active torsions:
REMARK  status: ('A' for Active; 'I' for Inactive)
REMARK    1  A    between atoms: C_1  and  O_2
REMARK    2  A    between atoms: O_2  and  C_3
REMARK    3  A    between atoms: C_5  and  N_6
REMARK    4  A    between atoms: C_7  and  C_8
REMARK    5  A    between atoms: C_8  and  C_10
REMARK    6  A    between atoms: C_16  and  O_17
REMARK    7  A    between atoms: O_17  and  C_18
REMARK    8  A    between atoms: C_19  and  O_20
REMARK    9  A    between atoms: O_20  and  C_21
REMARK   10  A    between atoms: C_25  and  O_26
REMARK   11  A    between atoms: O_26  and  C_27
REMARK                            x       y       z     vdW  Elec       q    Type
REMARK                         _______ _______ _______ _____ _____    ______ ____
ROOT
ATOM      1  C   UNL     1       4.484   4.159  17.055  0.00  0.00    +0.000 C 
ATOM      2  O   UNL     1       4.516   3.658  15.928  0.00  0.00    +0.000 OA
ENDROOT
BRANCH   1   3
ATOM      3  C   UNL     1       3.352   3.864  18.003  0.00  0.00    +0.000 A 
ATOM      4  N   UNL     1       3.042   2.537  18.103  0.00  0.00    +0.000 NA
ATOM      5  C   UNL     1       2.103   2.181  18.994  0.00  0.00    +0.000 A 
ATOM      6  C   UNL     1       1.453   3.083  19.810  0.00  0.00    +0.000 A 
ATOM      7  C   UNL     1       1.769   4.443  19.700  0.00  0.00    +0.000 A 
ATOM      8  C   UNL     1       1.142   5.383  20.530  0.00  0.00    +0.000 A 
ATOM      9  C   UNL     1       1.368   6.777  20.455  0.00  0.00    +0.000 A 
ATOM     10  C   UNL     1       2.234   7.245  19.468  0.00  0.00    +0.000 A 
ATOM     11  C   UNL     1       2.893   6.290  18.653  0.00  0.00    +0.000 A 
ATOM     12  C   UNL     1       2.713   4.881  18.764  0.00  0.00    +0.000 A 
BRANCH   9  13
ATOM     13  O   UNL     1       0.563   7.376  21.373  0.00  0.00    +0.000 OA
ATOM     14  C   UNL     1       0.550   8.756  21.627  0.00  0.00    +0.000 C 
ENDBRANCH   9  13
BRANCH  10  15
ATOM     15  O   UNL     1       2.415   8.501  18.967  0.00  0.00    +0.000 OA
ATOM     16  C   UNL     1       1.571   9.032  17.967  0.00  0.00    +0.000 C 
ENDBRANCH  10  15
ENDBRANCH   1   3
BRANCH   1  20
ATOM     17  C   UNL     1       7.570   6.913  18.215  0.00  0.00    +0.000 A 
ATOM     18  C   UNL     1       6.934   7.064  16.969  0.00  0.00    +0.000 A 
ATOM     19  C   UNL     1       5.927   6.192  16.522  0.00  0.00    +0.000 A 
ATOM     20  C   UNL     1       5.534   5.155  17.379  0.00  0.00    +0.000 A 
ATOM     21  C   UNL     1       6.147   5.010  18.636  0.00  0.00    +0.000 A 
ATOM     22  C   UNL     1       7.163   5.874  19.062  0.00  0.00    +0.000 A 
BRANCH  19  23
ATOM     23  N   UNL     1       5.215   6.565  15.364  0.00  0.00    +0.000 N 
ATOM     24  H   UNL     1       5.510   6.056  14.537  0.00  0.00    +0.000 HD
ATOM     25  H   UNL     1       4.208   6.504  15.471  0.00  0.00    +0.000 HD
ENDBRANCH  19  23
BRANCH  17  27
ATOM     26  C   UNL     1       8.490   9.107  18.268  0.00  0.00    +0.000 C 
ATOM     27  O   UNL     1       8.597   7.731  18.609  0.00  0.00    +0.000 OA
ENDBRANCH  17  27
BRANCH  22  28
ATOM     28  O   UNL     1       7.619   5.560  20.316  0.00  0.00    +0.000 OA
ATOM     29  C   UNL     1       8.905   4.977  20.457  0.00  0.00    +0.000 C 
ENDBRANCH  22  28
ENDBRANCH   1  20
TORSDOF 7
ENDMDL
MODEL 6
REMARK VINA RESULT:      -7.0      5.501      9.437
REMARK  Name = 
REMARK  11 active torsions:
REMARK  status: ('A' for Active; 'I' for Inactive)
REMARK    1  A    between atoms: C_1  and  O_2
REMARK    2  A    between atoms: O_2  and  C_3
REMARK    3  A    between atoms: C_5  and  N_6
REMARK    4  A    between atoms: C_7  and  C_8
REMARK    5  A    between atoms: C_8  and  C_10
REMARK    6  A    between atoms: C_16  and  O_17
REMARK    7  A    between atoms: O_17  and  C_18
REMARK    8  A    between atoms: C_19  and  O_20
REMARK    9  A    between atoms: O_20  and  C_21
REMARK   10  A    between atoms: C_25  and  O_26
REMARK   11  A    between atoms: O_26  and  C_27
REMARK                            x       y       z     vdW  Elec       q    Type
REMARK                         _______ _______ _______ _____ _____    ______ ____
ROOT
ATOM      1  C   UNL     1      -0.986  11.954  19.624  0.00  0.00    +0.000 C 
ATOM      2  O   UNL     1      -0.211  12.685  19.005  0.00  0.00    +0.000 OA
ENDROOT
BRANCH   1   3
ATOM      3  C   UNL     1      -0.484  11.019  20.692  0.00  0.00    +0.000 A 
ATOM      4  N   UNL     1      -0.933  11.316  21.948  0.00  0.00    +0.000 NA
ATOM      5  C   UNL     1      -0.603  10.478  22.943  0.00  0.00    +0.000 A 
ATOM      6  C   UNL     1       0.152   9.339  22.756  0.00  0.00    +0.000 A 
ATOM      7  C   UNL     1       0.615   9.040  21.468  0.00  0.00    +0.000 A 
ATOM      8  C   UNL     1       1.366   7.878  21.240  0.00  0.00    +0.000 A 
ATOM      9  C   UNL     1       1.910   7.525  19.984  0.00  0.00    +0.000 A 
ATOM     10  C   UNL     1       1.723   8.407  18.921  0.00  0.00    +0.000 A 
ATOM     11  C   UNL     1       0.934   9.564  19.146  0.00  0.00    +0.000 A 
ATOM     12  C   UNL     1       0.335   9.895  20.395  0.00  0.00    +0.000 A 
BRANCH   9  13
ATOM     13  O   UNL     1       2.607   6.369  20.146  0.00  0.00    +0.000 OA
ATOM     14  C   UNL     1       2.197   5.125  19.642  0.00  0.00    +0.000 C 
ENDBRANCH   9  13
BRANCH  10  15
ATOM     15  O   UNL     1       2.355   8.492  17.714  0.00  0.00    +0.000 OA
ATOM     16  C   UNL     1       3.545   7.781  17.446  0.00  0.00    +0.000 C 
ENDBRANCH  10  15
ENDBRANCH   1   3
BRANCH   1  20
ATOM     17  C   UNL     1      -5.015  11.781  18.144  0.00  0.00    +0.000 A 
ATOM     18  C   UNL     1      -4.744  12.453  19.350  0.00  0.00    +0.000 A 
ATOM     19  C   UNL     1      -3.453  12.535  19.898  0.00  0.00    +0.000 A 
ATOM     20  C   UNL     1      -2.402  11.945  19.183  0.00  0.00    +0.000 A 
ATOM     21  C   UNL     1      -2.659  11.294  17.964  0.00  0.00    +0.000 A 
ATOM     22  C   UNL     1      -3.953  11.200  17.438  0.00  0.00    +0.000 A 
BRANCH  19  23
ATOM     23  N   UNL     1      -3.267  13.411  20.987  0.00  0.00    +0.000 N 
ATOM     24  H   UNL     1      -4.100  13.518  21.556  0.00  0.00    +0.000 HD
ATOM     25  H   UNL     1      -2.473  13.167  21.571  0.00  0.00    +0.000 HD
ENDBRANCH  19  23
BRANCH  17  27
ATOM     26  C   UNL     1      -7.311  12.380  18.324  0.00  0.00    +0.000 C 
ATOM     27  O   UNL     1      -6.290  11.650  17.656  0.00  0.00    +0.000 OA
ENDBRANCH  17  27
BRANCH  22  28
ATOM     28  O   UNL     1      -3.981  10.529  16.243  0.00  0.00    +0.000 OA
ATOM     29  C   UNL     1      -2.993  10.817  15.267  0.00  0.00    +0.000 C 
ENDBRANCH  22  28
ENDBRANCH   1  20
TORSDOF 7
ENDMDL
MODEL 7
REMARK VINA RESULT:      -7.0      3.278      5.831
REMARK  Name = 
REMARK  11 active torsions:
REMARK  status: ('A' for Active; 'I' for Inactive)
REMARK    1  A    between atoms: C_1  and  O_2
REMARK    2  A    between atoms: O_2  and  C_3
REMARK    3  A    between atoms: C_5  and  N_6
REMARK    4  A    between atoms: C_7  and  C_8
REMARK    5  A    between atoms: C_8  and  C_10
REMARK    6  A    between atoms: C_16  and  O_17
REMARK    7  A    between atoms: O_17  and  C_18
REMARK    8  A    between atoms: C_19  and  O_20
REMARK    9  A    between atoms: O_20  and  C_21
REMARK   10  A    between atoms: C_25  and  O_26
REMARK   11  A    between atoms: O_26  and  C_27
REMARK                            x       y       z     vdW  Elec       q    Type
REMARK                         _______ _______ _______ _____ _____    ______ ____
ROOT
ATOM      1  C   UNL     1       2.087   8.172  18.538  0.00  0.00    +0.000 C 
ATOM      2  O   UNL     1       2.285   8.788  17.489  0.00  0.00    +0.000 OA
ENDROOT
BRANCH   1   3
ATOM      3  C   UNL     1       1.352   8.811  19.686  0.00  0.00    +0.000 A 
ATOM      4  N   UNL     1       1.848   8.483  20.916  0.00  0.00    +0.000 NA
ATOM      5  C   UNL     1       1.305   9.081  21.988  0.00  0.00    +0.000 A 
ATOM      6  C   UNL     1       0.287  10.009  21.903  0.00  0.00    +0.000 A 
ATOM      7  C   UNL     1      -0.223  10.338  20.641  0.00  0.00    +0.000 A 
ATOM      8  C   UNL     1      -1.241  11.294  20.520  0.00  0.00    +0.000 A 
ATOM      9  C   UNL     1      -1.844  11.652  19.292  0.00  0.00    +0.000 A 
ATOM     10  C   UNL     1      -1.427  10.984  18.141  0.00  0.00    +0.000 A 
ATOM     11  C   UNL     1      -0.372  10.044  18.262  0.00  0.00    +0.000 A 
ATOM     12  C   UNL     1       0.277   9.722  19.489  0.00  0.00    +0.000 A 
BRANCH   9  13
ATOM     13  O   UNL     1      -2.814  12.566  19.559  0.00  0.00    +0.000 OA
ATOM     14  C   UNL     1      -4.189  12.316  19.429  0.00  0.00    +0.000 C 
ENDBRANCH   9  13
BRANCH  10  15
ATOM     15  O   UNL     1      -2.003  10.894  16.907  0.00  0.00    +0.000 OA
ATOM     16  C   UNL     1      -2.925   9.871  16.590  0.00  0.00    +0.000 C 
ENDBRANCH  10  15
ENDBRANCH   1   3
BRANCH   1  20
ATOM     17  C   UNL     1       3.729   4.240  19.085  0.00  0.00    +0.000 A 
ATOM     18  C   UNL     1       4.219   5.063  18.054  0.00  0.00    +0.000 A 
ATOM     19  C   UNL     1       3.718   6.353  17.811  0.00  0.00    +0.000 A 
ATOM     20  C   UNL     1       2.711   6.833  18.660  0.00  0.00    +0.000 A 
ATOM     21  C   UNL     1       2.232   6.028  19.709  0.00  0.00    +0.000 A 
ATOM     22  C   UNL     1       2.725   4.735  19.928  0.00  0.00    +0.000 A 
BRANCH  19  23
ATOM     23  N   UNL     1       4.428   7.162  16.900  0.00  0.00    +0.000 N 
ATOM     24  H   UNL     1       4.777   6.645  16.100  0.00  0.00    +0.000 HD
ATOM     25  H   UNL     1       3.906   7.976  16.590  0.00  0.00    +0.000 HD
ENDBRANCH  19  23
BRANCH  17  27
ATOM     26  C   UNL     1       3.605   1.952  18.444  0.00  0.00    +0.000 C 
ATOM     27  O   UNL     1       4.180   2.959  19.267  0.00  0.00    +0.000 OA
ENDBRANCH  17  27
BRANCH  22  28
ATOM     28  O   UNL     1       2.126   4.127  21.000  0.00  0.00    +0.000 OA
ATOM     29  C   UNL     1       1.040   3.243  20.773  0.00  0.00    +0.000 C 
ENDBRANCH  22  28
ENDBRANCH   1  20
TORSDOF 7
ENDMDL
MODEL 8
REMARK VINA RESULT:      -7.0      5.502      9.830
REMARK  Name = 
REMARK  11 active torsions:
REMARK  status: ('A' for Active; 'I' for Inactive)
REMARK    1  A    between atoms: C_1  and  O_2
REMARK    2  A    between atoms: O_2  and  C_3
REMARK    3  A    between atoms: C_5  and  N_6
REMARK    4  A    between atoms: C_7  and  C_8
REMARK    5  A    between atoms: C_8  and  C_10
REMARK    6  A    between atoms: C_16  and  O_17
REMARK    7  A    between atoms: O_17  and  C_18
REMARK    8  A    between atoms: C_19  and  O_20
REMARK    9  A    between atoms: O_20  and  C_21
REMARK   10  A    between atoms: C_25  and  O_26
REMARK   11  A    between atoms: O_26  and  C_27
REMARK                            x       y       z     vdW  Elec       q    Type
REMARK                         _______ _______ _______ _____ _____    ______ ____
ROOT
ATOM      1  C   UNL     1      -0.985  12.027  19.535  0.00  0.00    +0.000 C 
ATOM      2  O   UNL     1      -0.214  12.841  19.023  0.00  0.00    +0.000 OA
ENDROOT
BRANCH   1   3
ATOM      3  C   UNL     1      -0.519  11.094  20.621  0.00  0.00    +0.000 A 
ATOM      4  N   UNL     1      -1.002  11.398  21.862  0.00  0.00    +0.000 NA
ATOM      5  C   UNL     1      -0.705  10.563  22.870  0.00  0.00    +0.000 A 
ATOM      6  C   UNL     1       0.049   9.419  22.708  0.00  0.00    +0.000 A 
ATOM      7  C   UNL     1       0.548   9.113  21.436  0.00  0.00    +0.000 A 
ATOM      8  C   UNL     1       1.299   7.947  21.234  0.00  0.00    +0.000 A 
ATOM      9  C   UNL     1       1.877   7.586  19.995  0.00  0.00    +0.000 A 
ATOM     10  C   UNL     1       1.725   8.464  18.924  0.00  0.00    +0.000 A 
ATOM     11  C   UNL     1       0.936   9.626  19.122  0.00  0.00    +0.000 A 
ATOM     12  C   UNL     1       0.303   9.965  20.352  0.00  0.00    +0.000 A 
BRANCH   9  13
ATOM     13  O   UNL     1       2.564   6.427  20.182  0.00  0.00    +0.000 OA
ATOM     14  C   UNL     1       2.073   5.157  19.840  0.00  0.00    +0.000 C 
ENDBRANCH   9  13
BRANCH  10  15
ATOM     15  O   UNL     1       2.392   8.541  17.735  0.00  0.00    +0.000 OA
ATOM     16  C   UNL     1       3.505   7.720  17.453  0.00  0.00    +0.000 C 
ENDBRANCH  10  15
ENDBRANCH   1   3
BRANCH   1  20
ATOM     17  C   UNL     1      -5.012  11.843  18.049  0.00  0.00    +0.000 A 
ATOM     18  C   UNL     1      -3.950  11.399  17.241  0.00  0.00    +0.000 A 
ATOM     19  C   UNL     1      -2.609  11.443  17.659  0.00  0.00    +0.000 A 
ATOM     20  C   UNL     1      -2.343  11.924  18.948  0.00  0.00    +0.000 A 
ATOM     21  C   UNL     1      -3.400  12.347  19.773  0.00  0.00    +0.000 A 
ATOM     22  C   UNL     1      -4.731  12.318  19.338  0.00  0.00    +0.000 A 
BRANCH  19  23
ATOM     23  N   UNL     1      -1.659  10.776  16.859  0.00  0.00    +0.000 N 
ATOM     24  H   UNL     1      -1.517   9.810  17.136  0.00  0.00    +0.000 HD
ATOM     25  H   UNL     1      -1.859  10.829  15.865  0.00  0.00    +0.000 HD
ENDBRANCH  19  23
BRANCH  17  27
ATOM     26  C   UNL     1      -6.744  13.034  16.935  0.00  0.00    +0.000 C 
ATOM     27  O   UNL     1      -6.308  11.857  17.603  0.00  0.00    +0.000 OA
ENDBRANCH  17  27
BRANCH  22  28
ATOM     28  O   UNL     1      -5.601  12.769  20.296  0.00  0.00    +0.000 OA
ATOM     29  C   UNL     1      -5.827  14.164  20.420  0.00  0.00    +0.000 C 
ENDBRANCH  22  28
ENDBRANCH   1  20
TORSDOF 7
ENDMDL
MODEL 9
REMARK VINA RESULT:      -6.9      4.856      8.635
REMARK  Name = 
REMARK  11 active torsions:
REMARK  status: ('A' for Active; 'I' for Inactive)
REMARK    1  A    between atoms: C_1  and  O_2
REMARK    2  A    between atoms: O_2  and  C_3
REMARK    3  A    between atoms: C_5  and  N_6
REMARK    4  A    between atoms: C_7  and  C_8
REMARK    5  A    between atoms: C_8  and  C_10
REMARK    6  A    between atoms: C_16  and  O_17
REMARK    7  A    between atoms: O_17  and  C_18
REMARK    8  A    between atoms: C_19  and  O_20
REMARK    9  A    between atoms: O_20  and  C_21
REMARK   10  A    between atoms: C_25  and  O_26
REMARK   11  A    between atoms: O_26  and  C_27
REMARK                            x       y       z     vdW  Elec       q    Type
REMARK                         _______ _______ _______ _____ _____    ______ ____
ROOT
ATOM      1  C   UNL     1      -0.104  11.078  19.014  0.00  0.00    +0.000 C 
ATOM      2  O   UNL     1       0.711  11.708  18.337  0.00  0.00    +0.000 OA
ENDROOT
BRANCH   1   3
ATOM      3  C   UNL     1       0.349  10.156  20.114  0.00  0.00    +0.000 A 
ATOM      4  N   UNL     1      -0.102  10.505  21.355  0.00  0.00    +0.000 NA
ATOM      5  C   UNL     1       0.184   9.685  22.378  0.00  0.00    +0.000 A 
ATOM      6  C   UNL     1       0.896   8.512  22.231  0.00  0.00    +0.000 A 
ATOM      7  C   UNL     1       1.363   8.160  20.959  0.00  0.00    +0.000 A 
ATOM      8  C   UNL     1       2.070   6.964  20.773  0.00  0.00    +0.000 A 
ATOM      9  C   UNL     1       2.614   6.554  19.533  0.00  0.00    +0.000 A 
ATOM     10  C   UNL     1       2.473   7.412  18.444  0.00  0.00    +0.000 A 
ATOM     11  C   UNL     1       1.727   8.604  18.627  0.00  0.00    +0.000 A 
ATOM     12  C   UNL     1       1.128   8.993  19.859  0.00  0.00    +0.000 A 
BRANCH   9  13
ATOM     13  O   UNL     1       3.264   5.378  19.737  0.00  0.00    +0.000 OA
ATOM     14  C   UNL     1       2.626   4.173  20.075  0.00  0.00    +0.000 C 
ENDBRANCH   9  13
BRANCH  10  15
ATOM     15  O   UNL     1       3.121   7.438  17.243  0.00  0.00    +0.000 OA
ATOM     16  C   UNL     1       4.444   6.963  17.102  0.00  0.00    +0.000 C 
ENDBRANCH  10  15
ENDBRANCH   1   3
BRANCH   1  20
ATOM     17  C   UNL     1      -4.180  11.189  17.659  0.00  0.00    +0.000 A 
ATOM     18  C   UNL     1      -3.811  11.898  18.817  0.00  0.00    +0.000 A 
ATOM     19  C   UNL     1      -2.500  11.893  19.323  0.00  0.00    +0.000 A 
ATOM     20  C   UNL     1      -1.529  11.174  18.613  0.00  0.00    +0.000 A 
ATOM     21  C   UNL     1      -1.882  10.482  17.441  0.00  0.00    +0.000 A 
ATOM     22  C   UNL     1      -3.197  10.477  16.958  0.00  0.00    +0.000 A 
BRANCH  19  23
ATOM     23  N   UNL     1      -2.201  12.807  20.355  0.00  0.00    +0.000 N 
ATOM     24  H   UNL     1      -1.258  13.175  20.297  0.00  0.00    +0.000 HD
ATOM     25  H   UNL     1      -2.870  13.567  20.428  0.00  0.00    +0.000 HD
ENDBRANCH  19  23
BRANCH  17  27
ATOM     26  C   UNL     1      -6.495  11.235  18.203  0.00  0.00    +0.000 C 
ATOM     27  O   UNL     1      -5.476  11.147  17.216  0.00  0.00    +0.000 OA
ENDBRANCH  17  27
BRANCH  22  28
ATOM     28  O   UNL     1      -3.323   9.747  15.805  0.00  0.00    +0.000 OA
ATOM     29  C   UNL     1      -3.334  10.424  14.558  0.00  0.00    +0.000 C 
ENDBRANCH  22  28
ENDBRANCH   1  20
TORSDOF 7
ENDMDL
