MODEL 1
REMARK VINA RESULT:      -8.5      0.000      0.000
REMARK  Name = 
REMARK  2 active torsions:
REMARK  status: ('A' for Active; 'I' for Inactive)
REMARK    1  A    between atoms: C_8  and  C_9
REMARK    2  A    between atoms: C_9  and  N_10
REMARK                            x       y       z     vdW  Elec       q    Type
REMARK                         _______ _______ _______ _____ _____    ______ ____
ROOT
ATOM      1  N   UNL     1      -0.980  11.160  22.838  0.00  0.00    +0.000 N 
ATOM      2  C   UNL     1      -0.318  10.650  21.742  0.00  0.00    +0.000 A 
ATOM      3  N   UNL     1      -0.333  11.362  20.620  0.00  0.00    +0.000 NA
ATOM      4  C   UNL     1       0.277  10.811  19.556  0.00  0.00    +0.000 A 
ATOM      5  N   UNL     1       0.178  11.553  18.365  0.00  0.00    +0.000 N 
ATOM      6  C   UNL     1       0.914   9.570  19.565  0.00  0.00    +0.000 A 
ATOM      7  N   UNL     1       1.509   8.991  18.469  0.00  0.00    +0.000 NA
ATOM      8  C   UNL     1       2.108   7.790  18.654  0.00  0.00    +0.000 A 
ATOM      9  C   UNL     1       2.131   7.229  19.919  0.00  0.00    +0.000 A 
ATOM     10  N   UNL     1       1.541   7.800  20.999  0.00  0.00    +0.000 NA
ATOM     11  C   UNL     1       0.912   8.968  20.830  0.00  0.00    +0.000 A 
ATOM     12  N   UNL     1       0.311   9.492  21.895  0.00  0.00    +0.000 NA
ATOM     13  H   UNL     1      -1.060  12.165  22.788  0.00  0.00    +0.000 HD
ATOM     14  H   UNL     1      -0.631  10.753  23.695  0.00  0.00    +0.000 HD
ATOM     15  H   UNL     1      -0.190  12.474  18.578  0.00  0.00    +0.000 HD
ATOM     16  H   UNL     1       1.060  11.556  17.862  0.00  0.00    +0.000 HD
ENDROOT
BRANCH   8  17
ATOM     17  C   UNL     1       2.661   7.025  17.467  0.00  0.00    +0.000 C 
BRANCH  17  18
ATOM     18  N   UNL     1       3.565   5.928  17.838  0.00  0.00    +0.000 N 
ATOM     19  C   UNL     1       4.967   6.117  17.917  0.00  0.00    +0.000 A 
ATOM     20  C   UNL     1       5.578   7.311  17.484  0.00  0.00    +0.000 A 
ATOM     21  C   UNL     1       6.965   7.515  17.533  0.00  0.00    +0.000 A 
ATOM     22  C   UNL     1       7.803   6.527  18.028  0.00  0.00    +0.000 A 
ATOM     23  C   UNL     1       7.251   5.336  18.475  0.00  0.00    +0.000 A 
ATOM     24  C   UNL     1       5.860   5.128  18.436  0.00  0.00    +0.000 A 
ATOM     25  S   UNL     1       5.344   3.556  19.155  0.00  0.00    +0.000 S 
ATOM     26  C   UNL     1       3.602   3.976  19.356  0.00  0.00    +0.000 C 
ATOM     27  C   UNL     1       2.795   2.790  19.860  0.00  0.00    +0.000 C 
ATOM     28  C   UNL     1       1.461   2.986  19.869  0.00  0.00    +0.000 C 
ATOM     29  C   UNL     1       0.875   3.571  18.664  0.00  0.00    +0.000 C 
ATOM     30  C   UNL     1       1.608   4.307  17.809  0.00  0.00    +0.000 C 
ATOM     31  C   UNL     1       3.100   4.527  17.987  0.00  0.00    +0.000 C 
ENDBRANCH  17  18
ENDBRANCH   8  17
TORSDOF 2
ENDMDL
MODEL 2
REMARK VINA RESULT:      -8.3      1.535      2.476
REMARK  Name = 
REMARK  2 active torsions:
REMARK  status: ('A' for Active; 'I' for Inactive)
REMARK    1  A    between atoms: C_8  and  C_9
REMARK    2  A    between atoms: C_9  and  N_10
REMARK                            x       y       z     vdW  Elec       q    Type
REMARK                         _______ _______ _______ _____ _____    ______ ____
ROOT
ATOM      1  N   UNL     1      -1.533  12.373  18.945  0.00  0.00    +0.000 N 
ATOM      2  C   UNL     1      -0.763  11.274  19.258  0.00  0.00    +0.000 A 
ATOM      3  N   UNL     1      -0.855  10.782  20.490  0.00  0.00    +0.000 NA
ATOM      4  C   UNL     1      -0.052   9.744  20.778  0.00  0.00    +0.000 A 
ATOM      5  N   UNL     1      -0.116   9.295  22.110  0.00  0.00    +0.000 N 
ATOM      6  C   UNL     1       0.844   9.164  19.879  0.00  0.00    +0.000 A 
ATOM      7  N   UNL     1       1.690   8.123  20.184  0.00  0.00    +0.000 NA
ATOM      8  C   UNL     1       2.481   7.659  19.186  0.00  0.00    +0.000 A 
ATOM      9  C   UNL     1       2.376   8.211  17.922  0.00  0.00    +0.000 A 
ATOM     10  N   UNL     1       1.544   9.240  17.625  0.00  0.00    +0.000 NA
ATOM     11  C   UNL     1       0.781   9.738  18.604  0.00  0.00    +0.000 A 
ATOM     12  N   UNL     1      -0.001  10.769  18.297  0.00  0.00    +0.000 NA
ATOM     13  H   UNL     1      -2.348  12.436  19.536  0.00  0.00    +0.000 HD
ATOM     14  H   UNL     1      -1.663  12.452  17.945  0.00  0.00    +0.000 HD
ATOM     15  H   UNL     1      -0.908   9.733  22.569  0.00  0.00    +0.000 HD
ATOM     16  H   UNL     1      -0.110   8.280  22.154  0.00  0.00    +0.000 HD
ENDROOT
BRANCH   8  17
ATOM     17  C   UNL     1       3.537   6.611  19.480  0.00  0.00    +0.000 C 
BRANCH  17  18
ATOM     18  N   UNL     1       3.418   5.402  18.652  0.00  0.00    +0.000 N 
ATOM     19  C   UNL     1       4.229   5.205  17.508  0.00  0.00    +0.000 A 
ATOM     20  C   UNL     1       5.066   6.224  17.010  0.00  0.00    +0.000 A 
ATOM     21  C   UNL     1       5.864   6.059  15.867  0.00  0.00    +0.000 A 
ATOM     22  C   UNL     1       5.860   4.859  15.175  0.00  0.00    +0.000 A 
ATOM     23  C   UNL     1       5.060   3.821  15.629  0.00  0.00    +0.000 A 
ATOM     24  C   UNL     1       4.265   3.975  16.779  0.00  0.00    +0.000 A 
ATOM     25  S   UNL     1       3.380   2.476  17.252  0.00  0.00    +0.000 S 
ATOM     26  C   UNL     1       2.989   2.984  18.938  0.00  0.00    +0.000 C 
ATOM     27  C   UNL     1       2.109   1.962  19.640  0.00  0.00    +0.000 C 
ATOM     28  C   UNL     1       1.641   2.359  20.841  0.00  0.00    +0.000 C 
ATOM     29  C   UNL     1       1.075   3.705  20.912  0.00  0.00    +0.000 C 
ATOM     30  C   UNL     1       1.413   4.660  20.026  0.00  0.00    +0.000 C 
ATOM     31  C   UNL     1       2.344   4.400  18.854  0.00  0.00    +0.000 C 
ENDBRANCH  17  18
ENDBRANCH   8  17
TORSDOF 2
ENDMDL
MODEL 3
REMARK VINA RESULT:      -7.7      1.481      4.295
REMARK  Name = 
REMARK  2 active torsions:
REMARK  status: ('A' for Active; 'I' for Inactive)
REMARK    1  A    between atoms: C_8  and  C_9
REMARK    2  A    between atoms: C_9  and  N_10
REMARK                            x       y       z     vdW  Elec       q    Type
REMARK                         _______ _______ _______ _____ _____    ______ ____
ROOT
ATOM      1  N   UNL     1      -1.399  12.106  18.179  0.00  0.00    +0.000 N 
ATOM      2  C   UNL     1      -0.649  11.062  18.676  0.00  0.00    +0.000 A 
ATOM      3  N   UNL     1      -0.831  10.716  19.946  0.00  0.00    +0.000 NA
ATOM      4  C   UNL     1      -0.047   9.729  20.413  0.00  0.00    +0.000 A 
ATOM      5  N   UNL     1      -0.209   9.437  21.780  0.00  0.00    +0.000 N 
ATOM      6  C   UNL     1       0.917   9.060  19.657  0.00  0.00    +0.000 A 
ATOM      7  N   UNL     1       1.743   8.074  20.144  0.00  0.00    +0.000 NA
ATOM      8  C   UNL     1       2.609   7.508  19.269  0.00  0.00    +0.000 A 
ATOM      9  C   UNL     1       2.597   7.908  17.944  0.00  0.00    +0.000 A 
ATOM     10  N   UNL     1       1.785   8.883  17.467  0.00  0.00    +0.000 NA
ATOM     11  C   UNL     1       0.948   9.482  18.322  0.00  0.00    +0.000 A 
ATOM     12  N   UNL     1       0.185  10.459  17.840  0.00  0.00    +0.000 NA
ATOM     13  H   UNL     1      -2.256  12.227  18.697  0.00  0.00    +0.000 HD
ATOM     14  H   UNL     1      -1.454  12.066  17.171  0.00  0.00    +0.000 HD
ATOM     15  H   UNL     1      -1.035   9.915  22.125  0.00  0.00    +0.000 HD
ATOM     16  H   UNL     1      -0.201   8.435  21.943  0.00  0.00    +0.000 HD
ENDROOT
BRANCH   8  17
ATOM     17  C   UNL     1       3.645   6.516  19.760  0.00  0.00    +0.000 C 
BRANCH  17  18
ATOM     18  N   UNL     1       3.669   5.258  19.001  0.00  0.00    +0.000 N 
ATOM     19  C   UNL     1       2.659   4.277  19.160  0.00  0.00    +0.000 A 
ATOM     20  C   UNL     1       1.680   4.380  20.169  0.00  0.00    +0.000 A 
ATOM     21  C   UNL     1       0.682   3.412  20.360  0.00  0.00    +0.000 A 
ATOM     22  C   UNL     1       0.619   2.298  19.538  0.00  0.00    +0.000 A 
ATOM     23  C   UNL     1       1.554   2.153  18.524  0.00  0.00    +0.000 A 
ATOM     24  C   UNL     1       2.552   3.123  18.322  0.00  0.00    +0.000 A 
ATOM     25  S   UNL     1       3.602   2.793  16.892  0.00  0.00    +0.000 S 
ATOM     26  C   UNL     1       4.290   4.454  16.746  0.00  0.00    +0.000 C 
ATOM     27  C   UNL     1       5.351   4.526  15.660  0.00  0.00    +0.000 C 
ATOM     28  C   UNL     1       6.025   5.694  15.615  0.00  0.00    +0.000 C 
ATOM     29  C   UNL     1       6.512   6.220  16.888  0.00  0.00    +0.000 C 
ATOM     30  C   UNL     1       5.948   5.870  18.058  0.00  0.00    +0.000 C 
ATOM     31  C   UNL     1       4.820   4.858  18.156  0.00  0.00    +0.000 C 
ENDBRANCH  17  18
ENDBRANCH   8  17
TORSDOF 2
ENDMDL
MODEL 4
REMARK VINA RESULT:      -7.1      3.933      8.637
REMARK  Name = 
REMARK  2 active torsions:
REMARK  status: ('A' for Active; 'I' for Inactive)
REMARK    1  A    between atoms: C_8  and  C_9
REMARK    2  A    between atoms: C_9  and  N_10
REMARK                            x       y       z     vdW  Elec       q    Type
REMARK                         _______ _______ _______ _____ _____    ______ ____
ROOT
ATOM      1  N   UNL     1       2.707   5.100  20.920  0.00  0.00    +0.000 N 
ATOM      2  C   UNL     1       2.236   6.298  20.431  0.00  0.00    +0.000 A 
ATOM      3  N   UNL     1       2.629   6.673  19.218  0.00  0.00    +0.000 NA
ATOM      4  C   UNL     1       2.193   7.871  18.793  0.00  0.00    +0.000 A 
ATOM      5  N   UNL     1       2.687   8.272  17.538  0.00  0.00    +0.000 N 
ATOM      6  C   UNL     1       1.367   8.719  19.531  0.00  0.00    +0.000 A 
ATOM      7  N   UNL     1       0.948   9.960  19.111  0.00  0.00    +0.000 NA
ATOM      8  C   UNL     1       0.125  10.646  19.940  0.00  0.00    +0.000 A 
ATOM      9  C   UNL     1      -0.283  10.066  21.128  0.00  0.00    +0.000 A 
ATOM     10  N   UNL     1       0.134   8.845  21.543  0.00  0.00    +0.000 NA
ATOM     11  C   UNL     1       0.976   8.164  20.757  0.00  0.00    +0.000 A 
ATOM     12  N   UNL     1       1.399   6.984  21.200  0.00  0.00    +0.000 NA
ATOM     13  H   UNL     1       2.968   4.472  20.175  0.00  0.00    +0.000 HD
ATOM     14  H   UNL     1       2.107   4.746  21.653  0.00  0.00    +0.000 HD
ATOM     15  H   UNL     1       3.150   7.484  17.097  0.00  0.00    +0.000 HD
ATOM     16  H   UNL     1       1.958   8.702  16.978  0.00  0.00    +0.000 HD
ENDROOT
BRANCH   8  17
ATOM     17  C   UNL     1      -0.265  12.075  19.611  0.00  0.00    +0.000 C 
BRANCH  17  18
ATOM     18  N   UNL     1      -1.716  12.308  19.613  0.00  0.00    +0.000 N 
ATOM     19  C   UNL     1      -2.538  11.876  18.544  0.00  0.00    +0.000 A 
ATOM     20  C   UNL     1      -1.991  11.354  17.354  0.00  0.00    +0.000 A 
ATOM     21  C   UNL     1      -2.783  10.938  16.273  0.00  0.00    +0.000 A 
ATOM     22  C   UNL     1      -4.165  11.021  16.343  0.00  0.00    +0.000 A 
ATOM     23  C   UNL     1      -4.754  11.519  17.495  0.00  0.00    +0.000 A 
ATOM     24  C   UNL     1      -3.967  11.931  18.586  0.00  0.00    +0.000 A 
ATOM     25  S   UNL     1      -4.932  12.452  20.018  0.00  0.00    +0.000 S 
ATOM     26  C   UNL     1      -3.593  12.354  21.223  0.00  0.00    +0.000 C 
ATOM     27  C   UNL     1      -4.033  12.852  22.590  0.00  0.00    +0.000 C 
ATOM     28  C   UNL     1      -3.036  12.966  23.490  0.00  0.00    +0.000 C 
ATOM     29  C   UNL     1      -1.814  13.629  23.037  0.00  0.00    +0.000 C 
ATOM     30  C   UNL     1      -1.489  13.692  21.733  0.00  0.00    +0.000 C 
ATOM     31  C   UNL     1      -2.387  13.148  20.635  0.00  0.00    +0.000 C 
ENDBRANCH  17  18
ENDBRANCH   8  17
TORSDOF 2
ENDMDL
MODEL 5
REMARK VINA RESULT:      -7.1      5.995      8.740
REMARK  Name = 
REMARK  2 active torsions:
REMARK  status: ('A' for Active; 'I' for Inactive)
REMARK    1  A    between atoms: C_8  and  C_9
REMARK    2  A    between atoms: C_9  and  N_10
REMARK                            x       y       z     vdW  Elec       q    Type
REMARK                         _______ _______ _______ _____ _____    ______ ____
ROOT
ATOM      1  N   UNL     1      -4.166  10.088  14.471  0.00  0.00    +0.000 N 
ATOM      2  C   UNL     1      -3.635  10.383  15.708  0.00  0.00    +0.000 A 
ATOM      3  N   UNL     1      -4.357  11.138  16.530  0.00  0.00    +0.000 NA
ATOM      4  C   UNL     1      -3.787  11.451  17.706  0.00  0.00    +0.000 A 
ATOM      5  N   UNL     1      -4.543  12.312  18.523  0.00  0.00    +0.000 N 
ATOM      6  C   UNL     1      -2.517  11.034  18.106  0.00  0.00    +0.000 A 
ATOM      7  N   UNL     1      -1.919  11.383  19.294  0.00  0.00    +0.000 NA
ATOM      8  C   UNL     1      -0.689  10.870  19.540  0.00  0.00    +0.000 A 
ATOM      9  C   UNL     1      -0.117  10.006  18.624  0.00  0.00    +0.000 A 
ATOM     10  N   UNL     1      -0.705   9.667  17.450  0.00  0.00    +0.000 NA
ATOM     11  C   UNL     1      -1.904  10.190  17.170  0.00  0.00    +0.000 A 
ATOM     12  N   UNL     1      -2.446   9.871  15.999  0.00  0.00    +0.000 NA
ATOM     13  H   UNL     1      -5.174  10.139  14.479  0.00  0.00    +0.000 HD
ATOM     14  H   UNL     1      -3.734   9.263  14.079  0.00  0.00    +0.000 HD
ATOM     15  H   UNL     1      -5.480  12.394  18.139  0.00  0.00    +0.000 HD
ATOM     16  H   UNL     1      -4.508  12.019  19.494  0.00  0.00    +0.000 HD
ENDROOT
BRANCH   8  17
ATOM     17  C   UNL     1       0.090  11.318  20.761  0.00  0.00    +0.000 C 
BRANCH  17  18
ATOM     18  N   UNL     1      -0.070  12.745  21.076  0.00  0.00    +0.000 N 
ATOM     19  C   UNL     1       0.645  13.745  20.372  0.00  0.00    +0.000 A 
ATOM     20  C   UNL     1       1.665  13.417  19.455  0.00  0.00    +0.000 A 
ATOM     21  C   UNL     1       2.400  14.390  18.761  0.00  0.00    +0.000 A 
ATOM     22  C   UNL     1       2.139  15.737  18.951  0.00  0.00    +0.000 A 
ATOM     23  C   UNL     1       1.139  16.112  19.837  0.00  0.00    +0.000 A 
ATOM     24  C   UNL     1       0.392  15.143  20.530  0.00  0.00    +0.000 A 
ATOM     25  S   UNL     1      -0.921  15.839  21.553  0.00  0.00    +0.000 S 
ATOM     26  C   UNL     1      -1.855  14.311  21.768  0.00  0.00    +0.000 C 
ATOM     27  C   UNL     1      -3.030  14.502  22.713  0.00  0.00    +0.000 C 
ATOM     28  C   UNL     1      -3.666  13.362  23.051  0.00  0.00    +0.000 C 
ATOM     29  C   UNL     1      -2.825  12.234  23.448  0.00  0.00    +0.000 C 
ATOM     30  C   UNL     1      -1.540  12.141  23.060  0.00  0.00    +0.000 C 
ATOM     31  C   UNL     1      -0.848  13.220  22.246  0.00  0.00    +0.000 C 
ENDBRANCH  17  18
ENDBRANCH   8  17
TORSDOF 2
ENDMDL
MODEL 6
REMARK VINA RESULT:      -7.1      4.532      9.458
REMARK  Name = 
REMARK  2 active torsions:
REMARK  status: ('A' for Active; 'I' for Inactive)
REMARK    1  A    between atoms: C_8  and  C_9
REMARK    2  A    between atoms: C_9  and  N_10
REMARK                            x       y       z     vdW  Elec       q    Type
REMARK                         _______ _______ _______ _____ _____    ______ ____
ROOT
ATOM      1  N   UNL     1       2.630   6.395  20.439  0.00  0.00    +0.000 N 
ATOM      2  C   UNL     1       1.942   7.558  20.169  0.00  0.00    +0.000 A 
ATOM      3  N   UNL     1       2.097   8.107  18.968  0.00  0.00    +0.000 NA
ATOM      4  C   UNL     1       1.455   9.268  18.756  0.00  0.00    +0.000 A 
ATOM      5  N   UNL     1       1.699   9.863  17.505  0.00  0.00    +0.000 N 
ATOM      6  C   UNL     1       0.649   9.909  19.698  0.00  0.00    +0.000 A 
ATOM      7  N   UNL     1       0.019  11.114  19.493  0.00  0.00    +0.000 NA
ATOM      8  C   UNL     1      -0.749  11.588  20.505  0.00  0.00    +0.000 A 
ATOM      9  C   UNL     1      -0.897  10.837  21.657  0.00  0.00    +0.000 A 
ATOM     10  N   UNL     1      -0.271   9.651  21.859  0.00  0.00    +0.000 NA
ATOM     11  C   UNL     1       0.522   9.182  20.888  0.00  0.00    +0.000 A 
ATOM     12  N   UNL     1       1.153   8.034  21.122  0.00  0.00    +0.000 NA
ATOM     13  H   UNL     1       2.852   5.890  19.594  0.00  0.00    +0.000 HD
ATOM     14  H   UNL     1       2.198   5.885  21.197  0.00  0.00    +0.000 HD
ATOM     15  H   UNL     1       2.185   9.198  16.911  0.00  0.00    +0.000 HD
ATOM     16  H   UNL     1       0.844  10.239  17.106  0.00  0.00    +0.000 HD
ENDROOT
BRANCH   8  17
ATOM     17  C   UNL     1      -1.362  12.972  20.409  0.00  0.00    +0.000 C 
BRANCH  17  18
ATOM     18  N   UNL     1      -2.818  12.990  20.602  0.00  0.00    +0.000 N 
ATOM     19  C   UNL     1      -3.699  12.404  19.661  0.00  0.00    +0.000 A 
ATOM     20  C   UNL     1      -3.240  11.926  18.416  0.00  0.00    +0.000 A 
ATOM     21  C   UNL     1      -4.095  11.359  17.459  0.00  0.00    +0.000 A 
ATOM     22  C   UNL     1      -5.452  11.242  17.712  0.00  0.00    +0.000 A 
ATOM     23  C   UNL     1      -5.954  11.689  18.925  0.00  0.00    +0.000 A 
ATOM     24  C   UNL     1      -5.102  12.250  19.893  0.00  0.00    +0.000 A 
ATOM     25  S   UNL     1      -5.939  12.675  21.434  0.00  0.00    +0.000 S 
ATOM     26  C   UNL     1      -4.454  12.818  22.449  0.00  0.00    +0.000 C 
ATOM     27  C   UNL     1      -4.783  13.295  23.855  0.00  0.00    +0.000 C 
ATOM     28  C   UNL     1      -3.704  13.586  24.611  0.00  0.00    +0.000 C 
ATOM     29  C   UNL     1      -2.666  14.404  23.987  0.00  0.00    +0.000 C 
ATOM     30  C   UNL     1      -2.527  14.467  22.650  0.00  0.00    +0.000 C 
ATOM     31  C   UNL     1      -3.468  13.758  21.692  0.00  0.00    +0.000 C 
ENDBRANCH  17  18
ENDBRANCH   8  17
TORSDOF 2
ENDMDL
MODEL 7
REMARK VINA RESULT:      -7.0      4.799      9.646
REMARK  Name = 
REMARK  2 active torsions:
REMARK  status: ('A' for Active; 'I' for Inactive)
REMARK    1  A    between atoms: C_8  and  C_9
REMARK    2  A    between atoms: C_9  and  N_10
REMARK                            x       y       z     vdW  Elec       q    Type
REMARK                         _______ _______ _______ _____ _____    ______ ____
ROOT
ATOM      1  N   UNL     1       2.291   6.841  20.498  0.00  0.00    +0.000 N 
ATOM      2  C   UNL     1       1.510   7.967  20.643  0.00  0.00    +0.000 A 
ATOM      3  N   UNL     1       0.880   8.142  21.801  0.00  0.00    +0.000 NA
ATOM      4  C   UNL     1       0.085   9.222  21.890  0.00  0.00    +0.000 A 
ATOM      5  N   UNL     1      -0.626   9.338  23.099  0.00  0.00    +0.000 N 
ATOM      6  C   UNL     1      -0.107  10.149  20.865  0.00  0.00    +0.000 A 
ATOM      7  N   UNL     1      -0.947  11.235  20.944  0.00  0.00    +0.000 NA
ATOM      8  C   UNL     1      -0.999  12.054  19.866  0.00  0.00    +0.000 A 
ATOM      9  C   UNL     1      -0.192  11.792  18.772  0.00  0.00    +0.000 A 
ATOM     10  N   UNL     1       0.632  10.718  18.695  0.00  0.00    +0.000 NA
ATOM     11  C   UNL     1       0.672   9.876  19.733  0.00  0.00    +0.000 A 
ATOM     12  N   UNL     1       1.461   8.811  19.621  0.00  0.00    +0.000 NA
ATOM     13  H   UNL     1       2.608   6.493  21.390  0.00  0.00    +0.000 HD
ATOM     14  H   UNL     1       2.976   6.967  19.765  0.00  0.00    +0.000 HD
ATOM     15  H   UNL     1      -0.259   8.665  23.765  0.00  0.00    +0.000 HD
ATOM     16  H   UNL     1      -0.632  10.299  23.428  0.00  0.00    +0.000 HD
ENDROOT
BRANCH   8  17
ATOM     17  C   UNL     1      -2.002  13.190  19.822  0.00  0.00    +0.000 C 
BRANCH  17  18
ATOM     18  N   UNL     1      -3.335  12.823  20.321  0.00  0.00    +0.000 N 
ATOM     19  C   UNL     1      -3.732  13.101  21.652  0.00  0.00    +0.000 A 
ATOM     20  C   UNL     1      -2.818  13.588  22.609  0.00  0.00    +0.000 A 
ATOM     21  C   UNL     1      -3.181  13.853  23.938  0.00  0.00    +0.000 A 
ATOM     22  C   UNL     1      -4.484  13.646  24.365  0.00  0.00    +0.000 A 
ATOM     23  C   UNL     1      -5.424  13.176  23.460  0.00  0.00    +0.000 A 
ATOM     24  C   UNL     1      -5.069  12.917  22.123  0.00  0.00    +0.000 A 
ATOM     25  S   UNL     1      -6.459  12.409  21.092  0.00  0.00    +0.000 S 
ATOM     26  C   UNL     1      -5.666  12.715  19.501  0.00  0.00    +0.000 C 
ATOM     27  C   UNL     1      -6.547  12.274  18.343  0.00  0.00    +0.000 C 
ATOM     28  C   UNL     1      -5.946  12.316  17.137  0.00  0.00    +0.000 C 
ATOM     29  C   UNL     1      -4.605  11.740  17.051  0.00  0.00    +0.000 C 
ATOM     30  C   UNL     1      -3.819  11.618  18.136  0.00  0.00    +0.000 C 
ATOM     31  C   UNL     1      -4.282  11.998  19.532  0.00  0.00    +0.000 C 
ENDBRANCH  17  18
ENDBRANCH   8  17
TORSDOF 2
ENDMDL
MODEL 8
REMARK VINA RESULT:      -7.0      0.905      1.889
REMARK  Name = 
REMARK  2 active torsions:
REMARK  status: ('A' for Active; 'I' for Inactive)
REMARK    1  A    between atoms: C_8  and  C_9
REMARK    2  A    between atoms: C_9  and  N_10
REMARK                            x       y       z     vdW  Elec       q    Type
REMARK                         _______ _______ _______ _____ _____    ______ ____
ROOT
ATOM      1  N   UNL     1      -0.379  11.172  22.370  0.00  0.00    +0.000 N 
ATOM      2  C   UNL     1       0.227  10.256  21.537  0.00  0.00    +0.000 A 
ATOM      3  N   UNL     1       0.479   9.045  22.024  0.00  0.00    +0.000 NA
ATOM      4  C   UNL     1       1.118   8.194  21.203  0.00  0.00    +0.000 A 
ATOM      5  N   UNL     1       1.439   6.948  21.771  0.00  0.00    +0.000 N 
ATOM      6  C   UNL     1       1.515   8.500  19.900  0.00  0.00    +0.000 A 
ATOM      7  N   UNL     1       2.199   7.641  19.072  0.00  0.00    +0.000 NA
ATOM      8  C   UNL     1       2.487   8.086  17.825  0.00  0.00    +0.000 A 
ATOM      9  C   UNL     1       2.055   9.341  17.433  0.00  0.00    +0.000 A 
ATOM     10  N   UNL     1       1.385  10.188  18.253  0.00  0.00    +0.000 NA
ATOM     11  C   UNL     1       1.122   9.783  19.500  0.00  0.00    +0.000 A 
ATOM     12  N   UNL     1       0.494  10.644  20.297  0.00  0.00    +0.000 NA
ATOM     13  H   UNL     1      -0.907  10.717  23.099  0.00  0.00    +0.000 HD
ATOM     14  H   UNL     1      -0.832  11.902  21.838  0.00  0.00    +0.000 HD
ATOM     15  H   UNL     1       0.956   6.855  22.660  0.00  0.00    +0.000 HD
ATOM     16  H   UNL     1       1.266   6.192  21.116  0.00  0.00    +0.000 HD
ENDROOT
BRANCH   8  17
ATOM     17  C   UNL     1       3.358   7.253  16.904  0.00  0.00    +0.000 C 
BRANCH  17  18
ATOM     18  N   UNL     1       4.125   6.209  17.597  0.00  0.00    +0.000 N 
ATOM     19  C   UNL     1       5.491   6.387  17.926  0.00  0.00    +0.000 A 
ATOM     20  C   UNL     1       6.225   7.497  17.461  0.00  0.00    +0.000 A 
ATOM     21  C   UNL     1       7.584   7.686  17.756  0.00  0.00    +0.000 A 
ATOM     22  C   UNL     1       8.266   6.770  18.541  0.00  0.00    +0.000 A 
ATOM     23  C   UNL     1       7.587   5.664  19.032  0.00  0.00    +0.000 A 
ATOM     24  C   UNL     1       6.223   5.473  18.746  0.00  0.00    +0.000 A 
ATOM     25  S   UNL     1       5.510   4.029  19.561  0.00  0.00    +0.000 S 
ATOM     26  C   UNL     1       3.781   4.499  19.351  0.00  0.00    +0.000 C 
ATOM     27  C   UNL     1       2.842   3.411  19.845  0.00  0.00    +0.000 C 
ATOM     28  C   UNL     1       1.542   3.625  19.561  0.00  0.00    +0.000 C 
ATOM     29  C   UNL     1       1.227   4.036  18.194  0.00  0.00    +0.000 C 
ATOM     30  C   UNL     1       2.144   4.629  17.407  0.00  0.00    +0.000 C 
ATOM     31  C   UNL     1       3.581   4.852  17.846  0.00  0.00    +0.000 C 
ENDBRANCH  17  18
ENDBRANCH   8  17
TORSDOF 2
ENDMDL
MODEL 9
REMARK VINA RESULT:      -7.0      6.117      8.011
REMARK  Name = 
REMARK  2 active torsions:
REMARK  status: ('A' for Active; 'I' for Inactive)
REMARK    1  A    between atoms: C_8  and  C_9
REMARK    2  A    between atoms: C_9  and  N_10
REMARK                            x       y       z     vdW  Elec       q    Type
REMARK                         _______ _______ _______ _____ _____    ______ ____
ROOT
ATOM      1  N   UNL     1      -6.860  12.388  16.725  0.00  0.00    +0.000 N 
ATOM      2  C   UNL     1      -5.714  12.142  17.449  0.00  0.00    +0.000 A 
ATOM      3  N   UNL     1      -5.651  12.611  18.692  0.00  0.00    +0.000 NA
ATOM      4  C   UNL     1      -4.500  12.399  19.351  0.00  0.00    +0.000 A 
ATOM      5  N   UNL     1      -4.436  12.972  20.635  0.00  0.00    +0.000 N 
ATOM      6  C   UNL     1      -3.397  11.727  18.822  0.00  0.00    +0.000 A 
ATOM      7  N   UNL     1      -2.206  11.541  19.484  0.00  0.00    +0.000 NA
ATOM      8  C   UNL     1      -1.243  10.843  18.835  0.00  0.00    +0.000 A 
ATOM      9  C   UNL     1      -1.506  10.324  17.580  0.00  0.00    +0.000 A 
ATOM     10  N   UNL     1      -2.680  10.513  16.927  0.00  0.00    +0.000 NA
ATOM     11  C   UNL     1      -3.632  11.230  17.534  0.00  0.00    +0.000 A 
ATOM     12  N   UNL     1      -4.761  11.432  16.860  0.00  0.00    +0.000 NA
ATOM     13  H   UNL     1      -7.654  12.543  17.328  0.00  0.00    +0.000 HD
ATOM     14  H   UNL     1      -6.959  11.726  15.967  0.00  0.00    +0.000 HD
ATOM     15  H   UNL     1      -5.362  13.292  20.901  0.00  0.00    +0.000 HD
ATOM     16  H   UNL     1      -4.002  12.337  21.298  0.00  0.00    +0.000 HD
ENDROOT
BRANCH   8  17
ATOM     17  C   UNL     1       0.142  10.716  19.442  0.00  0.00    +0.000 C 
BRANCH  17  18
ATOM     18  N   UNL     1       0.570  11.903  20.195  0.00  0.00    +0.000 N 
ATOM     19  C   UNL     1       1.412  12.885  19.616  0.00  0.00    +0.000 A 
ATOM     20  C   UNL     1       2.014  12.692  18.356  0.00  0.00    +0.000 A 
ATOM     21  C   UNL     1       2.866  13.641  17.770  0.00  0.00    +0.000 A 
ATOM     22  C   UNL     1       3.147  14.830  18.423  0.00  0.00    +0.000 A 
ATOM     23  C   UNL     1       2.573  15.072  19.662  0.00  0.00    +0.000 A 
ATOM     24  C   UNL     1       1.710  14.130  20.252  0.00  0.00    +0.000 A 
ATOM     25  S   UNL     1       0.995  14.683  21.813  0.00  0.00    +0.000 S 
ATOM     26  C   UNL     1      -0.342  13.473  21.874  0.00  0.00    +0.000 C 
ATOM     27  C   UNL     1      -1.126  13.572  23.172  0.00  0.00    +0.000 C 
ATOM     28  C   UNL     1      -2.029  12.587  23.355  0.00  0.00    +0.000 C 
ATOM     29  C   UNL     1      -1.572  11.222  23.097  0.00  0.00    +0.000 C 
ATOM     30  C   UNL     1      -0.527  10.969  22.289  0.00  0.00    +0.000 C 
ATOM     31  C   UNL     1       0.297  12.070  21.643  0.00  0.00    +0.000 C 
ENDBRANCH  17  18
ENDBRANCH   8  17
TORSDOF 2
ENDMDL
