MODEL 1
REMARK VINA RESULT:      -5.4      0.000      0.000
REMARK  Name = 
REMARK  3 active torsions:
REMARK  status: ('A' for Active; 'I' for Inactive)
REMARK    1  A    between atoms: C_4  and  C_5
REMARK    2  A    between atoms: C_5  and  C_6
REMARK    3  A    between atoms: C_6  and  N_7
REMARK                            x       y       z     vdW  Elec       q    Type
REMARK                         _______ _______ _______ _____ _____    ______ ____
ROOT
ATOM      1  C   UNL     1       3.456   3.721  17.149  0.00  0.00    +0.000 C 
ENDROOT
BRANCH   1   5
ATOM      2  C   UNL     1       7.052   4.419  16.165  0.00  0.00    +0.000 A 
ATOM      3  C   UNL     1       7.242   4.724  17.496  0.00  0.00    +0.000 A 
ATOM      4  S   UNL     1       5.800   4.568  18.399  0.00  0.00    +0.000 S 
ATOM      5  C   UNL     1       4.909   4.078  17.018  0.00  0.00    +0.000 A 
ATOM      6  C   UNL     1       5.705   4.049  15.888  0.00  0.00    +0.000 A 
ENDBRANCH   1   5
BRANCH   1   7
ATOM      7  C   UNL     1       3.246   2.393  17.898  0.00  0.00    +0.000 C 
BRANCH   7   8
ATOM      8  N   UNL     1       2.314   2.520  19.021  0.00  0.00    +0.000 NA
ATOM      9  C   UNL     1       2.988   2.646  20.314  0.00  0.00    +0.000 C 
ATOM     10  C   UNL     1       1.802   2.924  21.218  0.00  0.00    +0.000 C 
ATOM     11  C   UNL     1       0.946   3.874  20.391  0.00  0.00    +0.000 C 
ATOM     12  C   UNL     1       1.390   3.652  18.946  0.00  0.00    +0.000 C 
ENDBRANCH   7   8
ENDBRANCH   1   7
TORSDOF 3
ENDMDL
MODEL 2
REMARK VINA RESULT:      -5.4      1.214      1.672
REMARK  Name = 
REMARK  3 active torsions:
REMARK  status: ('A' for Active; 'I' for Inactive)
REMARK    1  A    between atoms: C_4  and  C_5
REMARK    2  A    between atoms: C_5  and  C_6
REMARK    3  A    between atoms: C_6  and  N_7
REMARK                            x       y       z     vdW  Elec       q    Type
REMARK                         _______ _______ _______ _____ _____    ______ ____
ROOT
ATOM      1  C   UNL     1       4.843   4.336  19.089  0.00  0.00    +0.000 C 
ENDROOT
BRANCH   1   5
ATOM      2  C   UNL     1       5.642   4.220  15.384  0.00  0.00    +0.000 A 
ATOM      3  C   UNL     1       6.924   4.554  15.761  0.00  0.00    +0.000 A 
ATOM      4  S   UNL     1       7.062   4.751  17.452  0.00  0.00    +0.000 S 
ATOM      5  C   UNL     1       5.406   4.378  17.697  0.00  0.00    +0.000 A 
ATOM      6  C   UNL     1       4.764   4.121  16.500  0.00  0.00    +0.000 A 
ENDBRANCH   1   5
BRANCH   1   7
ATOM      7  C   UNL     1       4.501   2.905  19.539  0.00  0.00    +0.000 C 
BRANCH   7   8
ATOM      8  N   UNL     1       3.065   2.707  19.752  0.00  0.00    +0.000 NA
ATOM      9  C   UNL     1       2.369   3.934  20.141  0.00  0.00    +0.000 C 
ATOM     10  C   UNL     1       0.930   3.455  20.118  0.00  0.00    +0.000 C 
ATOM     11  C   UNL     1       0.874   2.573  18.878  0.00  0.00    +0.000 C 
ATOM     12  C   UNL     1       2.325   2.181  18.604  0.00  0.00    +0.000 C 
ENDBRANCH   7   8
ENDBRANCH   1   7
TORSDOF 3
ENDMDL
MODEL 3
REMARK VINA RESULT:      -5.4      1.244      1.888
REMARK  Name = 
REMARK  3 active torsions:
REMARK  status: ('A' for Active; 'I' for Inactive)
REMARK    1  A    between atoms: C_4  and  C_5
REMARK    2  A    between atoms: C_5  and  C_6
REMARK    3  A    between atoms: C_6  and  N_7
REMARK                            x       y       z     vdW  Elec       q    Type
REMARK                         _______ _______ _______ _____ _____    ______ ____
ROOT
ATOM      1  C   UNL     1       5.248   4.370  19.077  0.00  0.00    +0.000 C 
ENDROOT
BRANCH   1   5
ATOM      2  C   UNL     1       5.531   4.355  15.295  0.00  0.00    +0.000 A 
ATOM      3  C   UNL     1       6.861   4.651  15.502  0.00  0.00    +0.000 A 
ATOM      4  S   UNL     1       7.233   4.791  17.164  0.00  0.00    +0.000 S 
ATOM      5  C   UNL     1       5.617   4.444  17.623  0.00  0.00    +0.000 A 
ATOM      6  C   UNL     1       4.812   4.239  16.519  0.00  0.00    +0.000 A 
ENDBRANCH   1   5
BRANCH   1   7
ATOM      7  C   UNL     1       4.402   3.127  19.403  0.00  0.00    +0.000 C 
BRANCH   7   8
ATOM      8  N   UNL     1       3.119   3.464  20.024  0.00  0.00    +0.000 NA
ATOM      9  C   UNL     1       1.977   3.253  19.134  0.00  0.00    +0.000 C 
ATOM     10  C   UNL     1       0.829   3.516  20.089  0.00  0.00    +0.000 C 
ATOM     11  C   UNL     1       1.284   2.845  21.378  0.00  0.00    +0.000 C 
ATOM     12  C   UNL     1       2.803   2.732  21.251  0.00  0.00    +0.000 C 
ENDBRANCH   7   8
ENDBRANCH   1   7
TORSDOF 3
ENDMDL
MODEL 4
REMARK VINA RESULT:      -5.3      1.336      1.577
REMARK  Name = 
REMARK  3 active torsions:
REMARK  status: ('A' for Active; 'I' for Inactive)
REMARK    1  A    between atoms: C_4  and  C_5
REMARK    2  A    between atoms: C_5  and  C_6
REMARK    3  A    between atoms: C_6  and  N_7
REMARK                            x       y       z     vdW  Elec       q    Type
REMARK                         _______ _______ _______ _____ _____    ______ ____
ROOT
ATOM      1  C   UNL     1       5.062   4.651  19.116  0.00  0.00    +0.000 C 
ENDROOT
BRANCH   1   5
ATOM      2  C   UNL     1       5.638   4.740  15.369  0.00  0.00    +0.000 A 
ATOM      3  C   UNL     1       6.979   4.721  15.684  0.00  0.00    +0.000 A 
ATOM      4  S   UNL     1       7.238   4.700  17.373  0.00  0.00    +0.000 S 
ATOM      5  C   UNL     1       5.554   4.705  17.698  0.00  0.00    +0.000 A 
ATOM      6  C   UNL     1       4.815   4.734  16.530  0.00  0.00    +0.000 A 
ENDBRANCH   1   5
BRANCH   1   7
ATOM      7  C   UNL     1       4.572   3.247  19.512  0.00  0.00    +0.000 C 
BRANCH   7   8
ATOM      8  N   UNL     1       3.135   3.209  19.794  0.00  0.00    +0.000 NA
ATOM      9  C   UNL     1       2.826   2.707  21.134  0.00  0.00    +0.000 C 
ATOM     10  C   UNL     1       1.330   2.945  21.180  0.00  0.00    +0.000 C 
ATOM     11  C   UNL     1       1.169   4.305  20.513  0.00  0.00    +0.000 C 
ATOM     12  C   UNL     1       2.438   4.491  19.683  0.00  0.00    +0.000 C 
ENDBRANCH   7   8
ENDBRANCH   1   7
TORSDOF 3
ENDMDL
MODEL 5
REMARK VINA RESULT:      -5.3      0.950      1.221
REMARK  Name = 
REMARK  3 active torsions:
REMARK  status: ('A' for Active; 'I' for Inactive)
REMARK    1  A    between atoms: C_4  and  C_5
REMARK    2  A    between atoms: C_5  and  C_6
REMARK    3  A    between atoms: C_6  and  N_7
REMARK                            x       y       z     vdW  Elec       q    Type
REMARK                         _______ _______ _______ _____ _____    ______ ____
ROOT
ATOM      1  C   UNL     1       3.430   3.424  17.243  0.00  0.00    +0.000 C 
ENDROOT
BRANCH   1   5
ATOM      2  C   UNL     1       6.891   4.800  17.956  0.00  0.00    +0.000 A 
ATOM      3  C   UNL     1       7.114   4.639  16.606  0.00  0.00    +0.000 A 
ATOM      4  S   UNL     1       5.755   3.979  15.808  0.00  0.00    +0.000 S 
ATOM      5  C   UNL     1       4.849   3.915  17.263  0.00  0.00    +0.000 A 
ATOM      6  C   UNL     1       5.585   4.380  18.336  0.00  0.00    +0.000 A 
ENDBRANCH   1   5
BRANCH   1   7
ATOM      7  C   UNL     1       3.224   2.193  18.143  0.00  0.00    +0.000 C 
BRANCH   7   8
ATOM      8  N   UNL     1       2.318   2.457  19.263  0.00  0.00    +0.000 NA
ATOM      9  C   UNL     1       3.018   2.663  20.532  0.00  0.00    +0.000 C 
ATOM     10  C   UNL     1       1.860   3.070  21.423  0.00  0.00    +0.000 C 
ATOM     11  C   UNL     1       1.032   3.983  20.529  0.00  0.00    +0.000 C 
ATOM     12  C   UNL     1       1.442   3.619  19.103  0.00  0.00    +0.000 C 
ENDBRANCH   7   8
ENDBRANCH   1   7
TORSDOF 3
ENDMDL
MODEL 6
REMARK VINA RESULT:      -5.2      1.437      1.822
REMARK  Name = 
REMARK  3 active torsions:
REMARK  status: ('A' for Active; 'I' for Inactive)
REMARK    1  A    between atoms: C_4  and  C_5
REMARK    2  A    between atoms: C_5  and  C_6
REMARK    3  A    between atoms: C_6  and  N_7
REMARK                            x       y       z     vdW  Elec       q    Type
REMARK                         _______ _______ _______ _____ _____    ______ ____
ROOT
ATOM      1  C   UNL     1       2.666   3.150  17.178  0.00  0.00    +0.000 C 
ENDROOT
BRANCH   1   5
ATOM      2  C   UNL     1       4.503   6.450  17.510  0.00  0.00    +0.000 A 
ATOM      3  C   UNL     1       5.467   5.869  16.715  0.00  0.00    +0.000 A 
ATOM      4  S   UNL     1       5.068   4.261  16.300  0.00  0.00    +0.000 S 
ATOM      5  C   UNL     1       3.592   4.332  17.171  0.00  0.00    +0.000 A 
ATOM      6  C   UNL     1       3.422   5.563  17.776  0.00  0.00    +0.000 A 
ENDBRANCH   1   5
BRANCH   1   7
ATOM      7  C   UNL     1       3.164   2.021  18.097  0.00  0.00    +0.000 C 
BRANCH   7   8
ATOM      8  N   UNL     1       2.535   2.051  19.420  0.00  0.00    +0.000 NA
ATOM      9  C   UNL     1       3.351   2.728  20.429  0.00  0.00    +0.000 C 
ATOM     10  C   UNL     1       2.387   2.744  21.599  0.00  0.00    +0.000 C 
ATOM     11  C   UNL     1       1.049   3.071  20.948  0.00  0.00    +0.000 C 
ATOM     12  C   UNL     1       1.222   2.694  19.477  0.00  0.00    +0.000 C 
ENDBRANCH   7   8
ENDBRANCH   1   7
TORSDOF 3
ENDMDL
MODEL 7
REMARK VINA RESULT:      -5.2      1.394      2.031
REMARK  Name = 
REMARK  3 active torsions:
REMARK  status: ('A' for Active; 'I' for Inactive)
REMARK    1  A    between atoms: C_4  and  C_5
REMARK    2  A    between atoms: C_5  and  C_6
REMARK    3  A    between atoms: C_6  and  N_7
REMARK                            x       y       z     vdW  Elec       q    Type
REMARK                         _______ _______ _______ _____ _____    ______ ____
ROOT
ATOM      1  C   UNL     1       5.291   4.538  19.112  0.00  0.00    +0.000 C 
ENDROOT
BRANCH   1   5
ATOM      2  C   UNL     1       7.211   4.635  15.843  0.00  0.00    +0.000 A 
ATOM      3  C   UNL     1       6.003   4.335  15.251  0.00  0.00    +0.000 A 
ATOM      4  S   UNL     1       4.754   4.158  16.402  0.00  0.00    +0.000 S 
ATOM      5  C   UNL     1       5.816   4.495  17.706  0.00  0.00    +0.000 A 
ATOM      6  C   UNL     1       7.104   4.725  17.260  0.00  0.00    +0.000 A 
ENDBRANCH   1   5
BRANCH   1   7
ATOM      7  C   UNL     1       4.475   3.284  19.470  0.00  0.00    +0.000 C 
BRANCH   7   8
ATOM      8  N   UNL     1       3.210   3.605  20.135  0.00  0.00    +0.000 NA
ATOM      9  C   UNL     1       2.077   3.673  19.210  0.00  0.00    +0.000 C 
ATOM     10  C   UNL     1       0.931   3.843  20.188  0.00  0.00    +0.000 C 
ATOM     11  C   UNL     1       1.295   2.896  21.324  0.00  0.00    +0.000 C 
ATOM     12  C   UNL     1       2.801   2.677  21.190  0.00  0.00    +0.000 C 
ENDBRANCH   7   8
ENDBRANCH   1   7
TORSDOF 3
ENDMDL
MODEL 8
REMARK VINA RESULT:      -5.2      1.516      2.078
REMARK  Name = 
REMARK  3 active torsions:
REMARK  status: ('A' for Active; 'I' for Inactive)
REMARK    1  A    between atoms: C_4  and  C_5
REMARK    2  A    between atoms: C_5  and  C_6
REMARK    3  A    between atoms: C_6  and  N_7
REMARK                            x       y       z     vdW  Elec       q    Type
REMARK                         _______ _______ _______ _____ _____    ______ ____
ROOT
ATOM      1  C   UNL     1       4.055   3.177  17.747  0.00  0.00    +0.000 C 
ENDROOT
BRANCH   1   5
ATOM      2  C   UNL     1       5.173   6.346  15.989  0.00  0.00    +0.000 A 
ATOM      3  C   UNL     1       5.948   5.512  15.213  0.00  0.00    +0.000 A 
ATOM      4  S   UNL     1       5.787   3.876  15.676  0.00  0.00    +0.000 S 
ATOM      5  C   UNL     1       4.667   4.267  16.914  0.00  0.00    +0.000 A 
ATOM      6  C   UNL     1       4.435   5.628  16.973  0.00  0.00    +0.000 A 
ENDBRANCH   1   5
BRANCH   1   7
ATOM      7  C   UNL     1       4.353   3.350  19.247  0.00  0.00    +0.000 C 
BRANCH   7   8
ATOM      8  N   UNL     1       3.150   3.638  20.032  0.00  0.00    +0.000 NA
ATOM      9  C   UNL     1       1.937   3.710  19.217  0.00  0.00    +0.000 C 
ATOM     10  C   UNL     1       0.884   3.843  20.300  0.00  0.00    +0.000 C 
ATOM     11  C   UNL     1       1.362   2.876  21.375  0.00  0.00    +0.000 C 
ATOM     12  C   UNL     1       2.852   2.683  21.099  0.00  0.00    +0.000 C 
ENDBRANCH   7   8
ENDBRANCH   1   7
TORSDOF 3
ENDMDL
MODEL 9
REMARK VINA RESULT:      -5.1      2.256      5.328
REMARK  Name = 
REMARK  3 active torsions:
REMARK  status: ('A' for Active; 'I' for Inactive)
REMARK    1  A    between atoms: C_4  and  C_5
REMARK    2  A    between atoms: C_5  and  C_6
REMARK    3  A    between atoms: C_6  and  N_7
REMARK                            x       y       z     vdW  Elec       q    Type
REMARK                         _______ _______ _______ _____ _____    ______ ____
ROOT
ATOM      1  C   UNL     1       4.189   4.872  16.858  0.00  0.00    +0.000 C 
ENDROOT
BRANCH   1   5
ATOM      2  C   UNL     1       1.293   3.054  18.498  0.00  0.00    +0.000 A 
ATOM      3  C   UNL     1       2.258   2.243  19.054  0.00  0.00    +0.000 A 
ATOM      4  S   UNL     1       3.830   2.688  18.554  0.00  0.00    +0.000 S 
ATOM      5  C   UNL     1       3.233   3.980  17.598  0.00  0.00    +0.000 A 
ATOM      6  C   UNL     1       1.854   4.055  17.655  0.00  0.00    +0.000 A 
ENDBRANCH   1   5
BRANCH   1   7
ATOM      7  C   UNL     1       5.589   4.248  16.726  0.00  0.00    +0.000 C 
BRANCH   7   8
ATOM      8  N   UNL     1       6.661   5.190  17.058  0.00  0.00    +0.000 NA
ATOM      9  C   UNL     1       6.240   6.589  16.977  0.00  0.00    +0.000 C 
ATOM     10  C   UNL     1       7.474   7.281  17.525  0.00  0.00    +0.000 C 
ATOM     11  C   UNL     1       7.896   6.383  18.681  0.00  0.00    +0.000 C 
ATOM     12  C   UNL     1       7.248   5.031  18.389  0.00  0.00    +0.000 C 
ENDBRANCH   7   8
ENDBRANCH   1   7
TORSDOF 3
ENDMDL
