MODEL 1
REMARK VINA RESULT:      -7.7      0.000      0.000
REMARK  Name = 
REMARK  7 active torsions:
REMARK  status: ('A' for Active; 'I' for Inactive)
REMARK    1  A    between atoms: C_1  and  O_2
REMARK    2  A    between atoms: O_2  and  N_3
REMARK    3  A    between atoms: C_4  and  C_5
REMARK    4  A    between atoms: C_4  and  C_20
REMARK    5  A    between atoms: N_7  and  CA_8
REMARK    6  A    between atoms: CA_12  and  C_13
REMARK    7  A    between atoms: C_13  and  OXT_15
REMARK                            x       y       z     vdW  Elec       q    Type
REMARK                         _______ _______ _______ _____ _____    ______ ____
ROOT
ATOM      1  C   UNL     1       5.300   5.699  15.897  0.00  0.00    +0.000 C 
ATOM      2  O   UNL     1       4.879   6.816  15.633  0.00  0.00    +0.000 OA
ATOM      3  N   UNL     1       4.650   4.843  16.772  0.00  0.00    +0.000 N 
ATOM      4  H   UNL     1       5.035   3.916  16.924  0.00  0.00    +0.000 HD
ENDROOT
BRANCH   3   5
ATOM      5  CA  UNL     1       3.360   5.215  17.412  0.00  0.00    +0.000 C 
ATOM      6  C   UNL     1       3.384   5.257  18.963  0.00  0.00    +0.000 C 
ATOM      7  O   UNL     1       4.105   5.669  19.847  0.00  0.00    +0.000 OA
ATOM      8  N   UNL     1       2.298   4.455  19.054  0.00  0.00    +0.000 N 
ATOM      9  CA  UNL     1       2.054   3.476  19.989  0.00  0.00    +0.000 C 
ATOM     10  C   UNL     1       1.771   2.224  19.586  0.00  0.00    +0.000 C 
ATOM     11  C   UNL     1       1.862   1.782  18.157  0.00  0.00    +0.000 C 
ATOM     12  O   UNL     1       2.667   2.703  17.411  0.00  0.00    +0.000 OA
ATOM     13  C   UNL     1       2.303   4.080  17.632  0.00  0.00    +0.000 C 
BRANCH   9  14
ATOM     14  C   UNL     1       2.026   3.740  21.463  0.00  0.00    +0.000 C 
ATOM     15  O   UNL     1       1.787   2.863  22.285  0.00  0.00    +0.000 OA
BRANCH  14  16
ATOM     16  OXT UNL     1       2.281   5.006  21.839  0.00  0.00    +0.000 OA
ATOM     17  HXT UNL     1       2.234   5.689  21.132  0.00  0.00    +0.000 HD
ENDBRANCH  14  16
ENDBRANCH   9  14
ENDBRANCH   3   5
BRANCH   1  19
ATOM     18  N   UNL     1       7.738   5.063  15.819  0.00  0.00    +0.000 NA
ATOM     19  C   UNL     1       6.570   5.115  15.239  0.00  0.00    +0.000 C 
BRANCH  19  20
ATOM     20  C   UNL     1       6.453   4.538  13.867  0.00  0.00    +0.000 A 
ATOM     21  C   UNL     1       7.466   4.795  12.932  0.00  0.00    +0.000 A 
ATOM     22  C   UNL     1       7.411   4.217  11.662  0.00  0.00    +0.000 A 
ATOM     23  C   UNL     1       6.350   3.379  11.326  0.00  0.00    +0.000 A 
ATOM     24  C   UNL     1       5.331   3.133  12.245  0.00  0.00    +0.000 A 
ATOM     25  C   UNL     1       5.372   3.725  13.509  0.00  0.00    +0.000 A 
ENDBRANCH  19  20
BRANCH  18  27
ATOM     26  C   UNL     1       7.882   4.566  18.044  0.00  0.00    +0.000 C 
ATOM     27  O   UNL     1       7.747   5.625  17.100  0.00  0.00    +0.000 OA
ENDBRANCH  18  27
ENDBRANCH   1  19
TORSDOF 6
ENDMDL
MODEL 2
REMARK VINA RESULT:      -7.4      0.612      1.143
REMARK  Name = 
REMARK  7 active torsions:
REMARK  status: ('A' for Active; 'I' for Inactive)
REMARK    1  A    between atoms: C_1  and  O_2
REMARK    2  A    between atoms: O_2  and  N_3
REMARK    3  A    between atoms: C_4  and  C_5
REMARK    4  A    between atoms: C_4  and  C_20
REMARK    5  A    between atoms: N_7  and  CA_8
REMARK    6  A    between atoms: CA_12  and  C_13
REMARK    7  A    between atoms: C_13  and  OXT_15
REMARK                            x       y       z     vdW  Elec       q    Type
REMARK                         _______ _______ _______ _____ _____    ______ ____
ROOT
ATOM      1  C   UNL     1       5.142   6.047  16.165  0.00  0.00    +0.000 C 
ATOM      2  O   UNL     1       4.535   7.048  15.812  0.00  0.00    +0.000 OA
ATOM      3  N   UNL     1       4.606   5.119  17.043  0.00  0.00    +0.000 N 
ATOM      4  H   UNL     1       5.149   4.292  17.272  0.00  0.00    +0.000 HD
ENDROOT
BRANCH   3   5
ATOM      5  CA  UNL     1       3.224   5.258  17.577  0.00  0.00    +0.000 C 
ATOM      6  C   UNL     1       3.113   5.247  19.125  0.00  0.00    +0.000 C 
ATOM      7  O   UNL     1       3.683   5.736  20.077  0.00  0.00    +0.000 OA
ATOM      8  N   UNL     1       2.167   4.280  19.102  0.00  0.00    +0.000 N 
ATOM      9  CA  UNL     1       2.007   3.242  19.990  0.00  0.00    +0.000 C 
ATOM     10  C   UNL     1       1.964   1.977  19.536  0.00  0.00    +0.000 C 
ATOM     11  C   UNL     1       2.242   1.607  18.110  0.00  0.00    +0.000 C 
ATOM     12  O   UNL     1       2.947   2.670  17.458  0.00  0.00    +0.000 OA
ATOM     13  C   UNL     1       2.349   3.963  17.678  0.00  0.00    +0.000 C 
BRANCH   9  14
ATOM     14  C   UNL     1       1.815   3.444  21.462  0.00  0.00    +0.000 C 
ATOM     15  O   UNL     1       1.166   2.670  22.154  0.00  0.00    +0.000 OA
BRANCH  14  16
ATOM     16  OXT UNL     1       2.403   4.534  21.987  0.00  0.00    +0.000 OA
ATOM     17  HXT UNL     1       3.276   4.786  21.607  0.00  0.00    +0.000 HD
ENDBRANCH  14  16
ENDBRANCH   9  14
ENDBRANCH   3   5
BRANCH   1  19
ATOM     18  N   UNL     1       7.660   5.963  16.250  0.00  0.00    +0.000 NA
ATOM     19  C   UNL     1       6.546   5.695  15.625  0.00  0.00    +0.000 C 
BRANCH  19  20
ATOM     20  C   UNL     1       6.640   4.971  14.322  0.00  0.00    +0.000 A 
ATOM     21  C   UNL     1       5.684   3.991  14.018  0.00  0.00    +0.000 A 
ATOM     22  C   UNL     1       5.715   3.343  12.781  0.00  0.00    +0.000 A 
ATOM     23  C   UNL     1       6.693   3.675  11.846  0.00  0.00    +0.000 A 
ATOM     24  C   UNL     1       7.656   4.636  12.150  0.00  0.00    +0.000 A 
ATOM     25  C   UNL     1       7.642   5.272  13.393  0.00  0.00    +0.000 A 
ENDBRANCH  19  20
BRANCH  18  27
ATOM     26  C   UNL     1       7.792   5.743  18.520  0.00  0.00    +0.000 C 
ATOM     27  O   UNL     1       7.469   6.638  17.459  0.00  0.00    +0.000 OA
ENDBRANCH  18  27
ENDBRANCH   1  19
TORSDOF 6
ENDMDL
MODEL 3
REMARK VINA RESULT:      -7.3      1.356      1.504
REMARK  Name = 
REMARK  7 active torsions:
REMARK  status: ('A' for Active; 'I' for Inactive)
REMARK    1  A    between atoms: C_1  and  O_2
REMARK    2  A    between atoms: O_2  and  N_3
REMARK    3  A    between atoms: C_4  and  C_5
REMARK    4  A    between atoms: C_4  and  C_20
REMARK    5  A    between atoms: N_7  and  CA_8
REMARK    6  A    between atoms: CA_12  and  C_13
REMARK    7  A    between atoms: C_13  and  OXT_15
REMARK                            x       y       z     vdW  Elec       q    Type
REMARK                         _______ _______ _______ _____ _____    ______ ____
ROOT
ATOM      1  C   UNL     1       5.380   5.115  16.972  0.00  0.00    +0.000 C 
ATOM      2  O   UNL     1       5.443   4.139  17.704  0.00  0.00    +0.000 OA
ATOM      3  N   UNL     1       4.303   5.987  16.979  0.00  0.00    +0.000 N 
ATOM      4  H   UNL     1       4.326   6.798  16.369  0.00  0.00    +0.000 HD
ENDROOT
BRANCH   3   5
ATOM      5  CA  UNL     1       3.168   5.815  17.925  0.00  0.00    +0.000 C 
ATOM      6  C   UNL     1       3.556   5.270  19.326  0.00  0.00    +0.000 C 
ATOM      7  O   UNL     1       4.413   5.456  20.164  0.00  0.00    +0.000 OA
ATOM      8  N   UNL     1       2.627   4.289  19.260  0.00  0.00    +0.000 N 
ATOM      9  CA  UNL     1       2.732   3.002  19.732  0.00  0.00    +0.000 C 
ATOM     10  C   UNL     1       2.512   1.967  18.901  0.00  0.00    +0.000 C 
ATOM     11  C   UNL     1       2.311   2.128  17.425  0.00  0.00    +0.000 C 
ATOM     12  O   UNL     1       2.799   3.407  17.002  0.00  0.00    +0.000 OA
ATOM     13  C   UNL     1       2.337   4.491  17.832  0.00  0.00    +0.000 C 
BRANCH   9  14
ATOM     14  C   UNL     1       3.025   2.676  21.164  0.00  0.00    +0.000 C 
ATOM     15  O   UNL     1       2.268   2.981  22.078  0.00  0.00    +0.000 OA
BRANCH  14  16
ATOM     16  OXT UNL     1       4.177   2.021  21.394  0.00  0.00    +0.000 OA
ATOM     17  HXT UNL     1       4.097   1.121  21.787  0.00  0.00    +0.000 HD
ENDBRANCH  14  16
ENDBRANCH   9  14
ENDBRANCH   3   5
BRANCH   1  19
ATOM     18  N   UNL     1       7.517   6.281  16.316  0.00  0.00    +0.000 NA
ATOM     19  C   UNL     1       6.520   5.500  16.002  0.00  0.00    +0.000 C 
BRANCH  19  20
ATOM     20  C   UNL     1       6.504   4.917  14.628  0.00  0.00    +0.000 A 
ATOM     21  C   UNL     1       7.542   5.239  13.740  0.00  0.00    +0.000 A 
ATOM     22  C   UNL     1       7.582   4.658  12.471  0.00  0.00    +0.000 A 
ATOM     23  C   UNL     1       6.594   3.754  12.088  0.00  0.00    +0.000 A 
ATOM     24  C   UNL     1       5.551   3.444  12.959  0.00  0.00    +0.000 A 
ATOM     25  C   UNL     1       5.495   4.037  14.222  0.00  0.00    +0.000 A 
ENDBRANCH  19  20
BRANCH  18  27
ATOM     26  C   UNL     1       7.805   8.153  17.594  0.00  0.00    +0.000 C 
ATOM     27  O   UNL     1       7.445   6.774  17.623  0.00  0.00    +0.000 OA
ENDBRANCH  18  27
ENDBRANCH   1  19
TORSDOF 6
ENDMDL
MODEL 4
REMARK VINA RESULT:      -7.3      1.667      2.716
REMARK  Name = 
REMARK  7 active torsions:
REMARK  status: ('A' for Active; 'I' for Inactive)
REMARK    1  A    between atoms: C_1  and  O_2
REMARK    2  A    between atoms: O_2  and  N_3
REMARK    3  A    between atoms: C_4  and  C_5
REMARK    4  A    between atoms: C_4  and  C_20
REMARK    5  A    between atoms: N_7  and  CA_8
REMARK    6  A    between atoms: CA_12  and  C_13
REMARK    7  A    between atoms: C_13  and  OXT_15
REMARK                            x       y       z     vdW  Elec       q    Type
REMARK                         _______ _______ _______ _____ _____    ______ ____
ROOT
ATOM      1  C   UNL     1       6.883   4.698  17.375  0.00  0.00    +0.000 C 
ATOM      2  O   UNL     1       7.748   4.142  18.037  0.00  0.00    +0.000 OA
ATOM      3  N   UNL     1       5.535   4.620  17.688  0.00  0.00    +0.000 N 
ATOM      4  H   UNL     1       4.870   5.132  17.117  0.00  0.00    +0.000 HD
ENDROOT
BRANCH   3   5
ATOM      5  CA  UNL     1       5.056   3.889  18.892  0.00  0.00    +0.000 C 
ATOM      6  C   UNL     1       3.809   2.994  18.665  0.00  0.00    +0.000 C 
ATOM      7  O   UNL     1       3.403   2.199  17.844  0.00  0.00    +0.000 OA
ATOM      8  N   UNL     1       3.153   3.553  19.707  0.00  0.00    +0.000 N 
ATOM      9  CA  UNL     1       1.810   3.834  19.800  0.00  0.00    +0.000 C 
ATOM     10  C   UNL     1       1.409   5.082  20.101  0.00  0.00    +0.000 C 
ATOM     11  C   UNL     1       2.347   6.247  20.188  0.00  0.00    +0.000 C 
ATOM     12  O   UNL     1       3.573   5.939  19.513  0.00  0.00    +0.000 OA
ATOM     13  C   UNL     1       4.113   4.654  19.880  0.00  0.00    +0.000 C 
BRANCH   9  14
ATOM     14  C   UNL     1       0.743   2.795  19.640  0.00  0.00    +0.000 C 
ATOM     15  O   UNL     1       0.276   2.492  18.549  0.00  0.00    +0.000 OA
BRANCH  14  16
ATOM     16  OXT UNL     1       0.321   2.206  20.773  0.00  0.00    +0.000 OA
ATOM     17  HXT UNL     1       0.507   2.689  21.612  0.00  0.00    +0.000 HD
ENDBRANCH  14  16
ENDBRANCH   9  14
ENDBRANCH   3   5
BRANCH   1  19
ATOM     18  N   UNL     1       7.703   6.792  16.235  0.00  0.00    +0.000 NA
ATOM     19  C   UNL     1       7.215   5.585  16.154  0.00  0.00    +0.000 C 
BRANCH  19  20
ATOM     20  C   UNL     1       7.000   5.017  14.790  0.00  0.00    +0.000 A 
ATOM     21  C   UNL     1       7.806   5.461  13.732  0.00  0.00    +0.000 A 
ATOM     22  C   UNL     1       7.666   4.901  12.461  0.00  0.00    +0.000 A 
ATOM     23  C   UNL     1       6.727   3.895  12.244  0.00  0.00    +0.000 A 
ATOM     24  C   UNL     1       5.910   3.462  13.287  0.00  0.00    +0.000 A 
ATOM     25  C   UNL     1       6.033   4.032  14.556  0.00  0.00    +0.000 A 
ENDBRANCH  19  20
BRANCH  18  27
ATOM     26  C   UNL     1       7.852   8.660  17.543  0.00  0.00    +0.000 C 
ATOM     27  O   UNL     1       7.872   7.234  17.551  0.00  0.00    +0.000 OA
ENDBRANCH  18  27
ENDBRANCH   1  19
TORSDOF 6
ENDMDL
MODEL 5
REMARK VINA RESULT:      -7.0      1.660      2.774
REMARK  Name = 
REMARK  7 active torsions:
REMARK  status: ('A' for Active; 'I' for Inactive)
REMARK    1  A    between atoms: C_1  and  O_2
REMARK    2  A    between atoms: O_2  and  N_3
REMARK    3  A    between atoms: C_4  and  C_5
REMARK    4  A    between atoms: C_4  and  C_20
REMARK    5  A    between atoms: N_7  and  CA_8
REMARK    6  A    between atoms: CA_12  and  C_13
REMARK    7  A    between atoms: C_13  and  OXT_15
REMARK                            x       y       z     vdW  Elec       q    Type
REMARK                         _______ _______ _______ _____ _____    ______ ____
ROOT
ATOM      1  C   UNL     1       6.938   4.693  17.181  0.00  0.00    +0.000 C 
ATOM      2  O   UNL     1       7.773   3.969  17.703  0.00  0.00    +0.000 OA
ATOM      3  N   UNL     1       5.685   4.910  17.734  0.00  0.00    +0.000 N 
ATOM      4  H   UNL     1       5.049   5.548  17.267  0.00  0.00    +0.000 HD
ENDROOT
BRANCH   3   5
ATOM      5  CA  UNL     1       5.295   4.309  19.037  0.00  0.00    +0.000 C 
ATOM      6  C   UNL     1       4.176   3.235  18.958  0.00  0.00    +0.000 C 
ATOM      7  O   UNL     1       3.885   2.281  18.268  0.00  0.00    +0.000 OA
ATOM      8  N   UNL     1       3.444   3.852  19.913  0.00  0.00    +0.000 N 
ATOM      9  CA  UNL     1       2.075   3.966  19.977  0.00  0.00    +0.000 C 
ATOM     10  C   UNL     1       1.512   5.182  20.094  0.00  0.00    +0.000 C 
ATOM     11  C   UNL     1       2.290   6.460  19.999  0.00  0.00    +0.000 C 
ATOM     12  O   UNL     1       3.551   6.217  19.364  0.00  0.00    +0.000 OA
ATOM     13  C   UNL     1       4.250   5.082  19.912  0.00  0.00    +0.000 C 
BRANCH   9  14
ATOM     14  C   UNL     1       1.153   2.786  19.984  0.00  0.00    +0.000 C 
ATOM     15  O   UNL     1       0.922   2.136  20.997  0.00  0.00    +0.000 OA
BRANCH  14  16
ATOM     16  OXT UNL     1       0.586   2.475  18.805  0.00  0.00    +0.000 OA
ATOM     17  HXT UNL     1       0.827   1.601  18.421  0.00  0.00    +0.000 HD
ENDBRANCH  14  16
ENDBRANCH   9  14
ENDBRANCH   3   5
BRANCH   1  19
ATOM     18  N   UNL     1       7.729   6.677  15.841  0.00  0.00    +0.000 NA
ATOM     19  C   UNL     1       7.217   5.477  15.879  0.00  0.00    +0.000 C 
BRANCH  19  20
ATOM     20  C   UNL     1       6.916   4.812  14.577  0.00  0.00    +0.000 A 
ATOM     21  C   UNL     1       5.764   4.020  14.467  0.00  0.00    +0.000 A 
ATOM     22  C   UNL     1       5.428   3.438  13.243  0.00  0.00    +0.000 A 
ATOM     23  C   UNL     1       6.236   3.649  12.128  0.00  0.00    +0.000 A 
ATOM     24  C   UNL     1       7.392   4.421  12.235  0.00  0.00    +0.000 A 
ATOM     25  C   UNL     1       7.742   4.989  13.462  0.00  0.00    +0.000 A 
ENDBRANCH  19  20
BRANCH  18  27
ATOM     26  C   UNL     1       7.089   8.310  17.305  0.00  0.00    +0.000 C 
ATOM     27  O   UNL     1       7.978   7.213  17.108  0.00  0.00    +0.000 OA
ENDBRANCH  18  27
ENDBRANCH   1  19
TORSDOF 6
ENDMDL
MODEL 6
REMARK VINA RESULT:      -7.0      2.120      7.434
REMARK  Name = 
REMARK  7 active torsions:
REMARK  status: ('A' for Active; 'I' for Inactive)
REMARK    1  A    between atoms: C_1  and  O_2
REMARK    2  A    between atoms: O_2  and  N_3
REMARK    3  A    between atoms: C_4  and  C_5
REMARK    4  A    between atoms: C_4  and  C_20
REMARK    5  A    between atoms: N_7  and  CA_8
REMARK    6  A    between atoms: CA_12  and  C_13
REMARK    7  A    between atoms: C_13  and  OXT_15
REMARK                            x       y       z     vdW  Elec       q    Type
REMARK                         _______ _______ _______ _____ _____    ______ ____
ROOT
ATOM      1  C   UNL     1       4.716   5.296  18.381  0.00  0.00    +0.000 C 
ATOM      2  O   UNL     1       5.650   5.426  19.159  0.00  0.00    +0.000 OA
ATOM      3  N   UNL     1       4.871   4.771  17.107  0.00  0.00    +0.000 N 
ATOM      4  H   UNL     1       4.050   4.660  16.521  0.00  0.00    +0.000 HD
ENDROOT
BRANCH   3   5
ATOM      5  CA  UNL     1       6.189   4.281  16.623  0.00  0.00    +0.000 C 
ATOM      6  C   UNL     1       7.053   5.337  15.884  0.00  0.00    +0.000 C 
ATOM      7  O   UNL     1       7.375   6.499  16.020  0.00  0.00    +0.000 OA
ATOM      8  N   UNL     1       7.239   4.520  14.822  0.00  0.00    +0.000 N 
ATOM      9  CA  UNL     1       7.298   4.871  13.494  0.00  0.00    +0.000 C 
ATOM     10  C   UNL     1       6.479   4.275  12.609  0.00  0.00    +0.000 C 
ATOM     11  C   UNL     1       5.373   3.346  13.011  0.00  0.00    +0.000 C 
ATOM     12  O   UNL     1       5.061   3.530  14.397  0.00  0.00    +0.000 OA
ATOM     13  C   UNL     1       6.227   3.539  15.243  0.00  0.00    +0.000 C 
BRANCH   9  14
ATOM     14  C   UNL     1       8.284   5.859  12.950  0.00  0.00    +0.000 C 
ATOM     15  O   UNL     1       9.343   6.111  13.512  0.00  0.00    +0.000 OA
BRANCH  14  16
ATOM     16  OXT UNL     1       7.940   6.460  11.797  0.00  0.00    +0.000 OA
ATOM     17  HXT UNL     1       7.214   6.036  11.283  0.00  0.00    +0.000 HD
ENDBRANCH  14  16
ENDBRANCH   9  14
ENDBRANCH   3   5
BRANCH   1  19
ATOM     18  N   UNL     1       2.664   6.761  18.402  0.00  0.00    +0.000 NA
ATOM     19  C   UNL     1       3.263   5.658  18.761  0.00  0.00    +0.000 C 
BRANCH  19  20
ATOM     20  C   UNL     1       2.476   4.672  19.560  0.00  0.00    +0.000 A 
ATOM     21  C   UNL     1       1.495   3.903  18.918  0.00  0.00    +0.000 A 
ATOM     22  C   UNL     1       0.789   2.932  19.630  0.00  0.00    +0.000 A 
ATOM     23  C   UNL     1       1.063   2.723  20.980  0.00  0.00    +0.000 A 
ATOM     24  C   UNL     1       2.025   3.496  21.628  0.00  0.00    +0.000 A 
ATOM     25  C   UNL     1       2.719   4.483  20.925  0.00  0.00    +0.000 A 
ENDBRANCH  19  20
BRANCH  18  27
ATOM     26  C   UNL     1       2.832   8.885  17.577  0.00  0.00    +0.000 C 
ATOM     27  O   UNL     1       3.479   7.617  17.656  0.00  0.00    +0.000 OA
ENDBRANCH  18  27
ENDBRANCH   1  19
TORSDOF 6
ENDMDL
MODEL 7
REMARK VINA RESULT:      -6.8      2.100      3.972
REMARK  Name = 
REMARK  7 active torsions:
REMARK  status: ('A' for Active; 'I' for Inactive)
REMARK    1  A    between atoms: C_1  and  O_2
REMARK    2  A    between atoms: O_2  and  N_3
REMARK    3  A    between atoms: C_4  and  C_5
REMARK    4  A    between atoms: C_4  and  C_20
REMARK    5  A    between atoms: N_7  and  CA_8
REMARK    6  A    between atoms: CA_12  and  C_13
REMARK    7  A    between atoms: C_13  and  OXT_15
REMARK                            x       y       z     vdW  Elec       q    Type
REMARK                         _______ _______ _______ _____ _____    ______ ____
ROOT
ATOM      1  C   UNL     1       5.675   4.012  15.915  0.00  0.00    +0.000 C 
ATOM      2  O   UNL     1       5.814   2.869  15.506  0.00  0.00    +0.000 OA
ATOM      3  N   UNL     1       4.554   4.424  16.619  0.00  0.00    +0.000 N 
ATOM      4  H   UNL     1       4.514   5.379  16.959  0.00  0.00    +0.000 HD
ENDROOT
BRANCH   3   5
ATOM      5  CA  UNL     1       3.464   3.475  16.970  0.00  0.00    +0.000 C 
ATOM      6  C   UNL     1       2.442   4.003  18.013  0.00  0.00    +0.000 C 
ATOM      7  O   UNL     1       1.823   5.022  18.237  0.00  0.00    +0.000 OA
ATOM      8  N   UNL     1       2.584   2.904  18.788  0.00  0.00    +0.000 N 
ATOM      9  CA  UNL     1       2.579   2.839  20.161  0.00  0.00    +0.000 C 
ATOM     10  C   UNL     1       3.612   2.268  20.806  0.00  0.00    +0.000 C 
ATOM     11  C   UNL     1       4.868   1.830  20.117  0.00  0.00    +0.000 C 
ATOM     12  O   UNL     1       4.975   2.472  18.841  0.00  0.00    +0.000 OA
ATOM     13  C   UNL     1       3.762   2.396  18.067  0.00  0.00    +0.000 C 
BRANCH   9  14
ATOM     14  C   UNL     1       1.437   3.325  21.000  0.00  0.00    +0.000 C 
ATOM     15  O   UNL     1       1.448   3.270  22.224  0.00  0.00    +0.000 OA
BRANCH  14  16
ATOM     16  OXT UNL     1       0.388   3.834  20.328  0.00  0.00    +0.000 OA
ATOM     17  HXT UNL     1       0.092   4.733  20.598  0.00  0.00    +0.000 HD
ENDBRANCH  14  16
ENDBRANCH   9  14
ENDBRANCH   3   5
BRANCH   1  19
ATOM     18  N   UNL     1       7.254   5.448  14.573  0.00  0.00    +0.000 NA
ATOM     19  C   UNL     1       6.758   5.098  15.729  0.00  0.00    +0.000 C 
BRANCH  19  20
ATOM     20  C   UNL     1       7.249   5.820  16.940  0.00  0.00    +0.000 A 
ATOM     21  C   UNL     1       7.562   5.084  18.091  0.00  0.00    +0.000 A 
ATOM     22  C   UNL     1       8.081   5.729  19.216  0.00  0.00    +0.000 A 
ATOM     23  C   UNL     1       8.293   7.106  19.191  0.00  0.00    +0.000 A 
ATOM     24  C   UNL     1       7.968   7.845  18.055  0.00  0.00    +0.000 A 
ATOM     25  C   UNL     1       7.430   7.208  16.936  0.00  0.00    +0.000 A 
ENDBRANCH  19  20
BRANCH  18  27
ATOM     26  C   UNL     1       7.591   4.906  12.379  0.00  0.00    +0.000 C 
ATOM     27  O   UNL     1       6.732   4.718  13.501  0.00  0.00    +0.000 OA
ENDBRANCH  18  27
ENDBRANCH   1  19
TORSDOF 6
ENDMDL
MODEL 8
REMARK VINA RESULT:      -6.8      1.741      2.653
REMARK  Name = 
REMARK  7 active torsions:
REMARK  status: ('A' for Active; 'I' for Inactive)
REMARK    1  A    between atoms: C_1  and  O_2
REMARK    2  A    between atoms: O_2  and  N_3
REMARK    3  A    between atoms: C_4  and  C_5
REMARK    4  A    between atoms: C_4  and  C_20
REMARK    5  A    between atoms: N_7  and  CA_8
REMARK    6  A    between atoms: CA_12  and  C_13
REMARK    7  A    between atoms: C_13  and  OXT_15
REMARK                            x       y       z     vdW  Elec       q    Type
REMARK                         _______ _______ _______ _____ _____    ______ ____
ROOT
ATOM      1  C   UNL     1       5.647   4.827  17.010  0.00  0.00    +0.000 C 
ATOM      2  O   UNL     1       4.443   4.770  16.807  0.00  0.00    +0.000 OA
ATOM      3  N   UNL     1       6.238   4.323  18.158  0.00  0.00    +0.000 N 
ATOM      4  H   UNL     1       7.247   4.372  18.250  0.00  0.00    +0.000 HD
ENDROOT
BRANCH   3   5
ATOM      5  CA  UNL     1       5.440   3.627  19.203  0.00  0.00    +0.000 C 
ATOM      6  C   UNL     1       4.284   2.740  18.666  0.00  0.00    +0.000 C 
ATOM      7  O   UNL     1       4.101   1.929  17.783  0.00  0.00    +0.000 OA
ATOM      8  N   UNL     1       3.381   3.332  19.481  0.00  0.00    +0.000 N 
ATOM      9  CA  UNL     1       2.068   3.629  19.202  0.00  0.00    +0.000 C 
ATOM     10  C   UNL     1       1.622   4.889  19.357  0.00  0.00    +0.000 C 
ATOM     11  C   UNL     1       2.522   6.045  19.670  0.00  0.00    +0.000 C 
ATOM     12  O   UNL     1       3.879   5.707  19.357  0.00  0.00    +0.000 OA
ATOM     13  C   UNL     1       4.278   4.426  19.884  0.00  0.00    +0.000 C 
BRANCH   9  14
ATOM     14  C   UNL     1       1.066   2.598  18.782  0.00  0.00    +0.000 C 
ATOM     15  O   UNL     1      -0.035   2.894  18.333  0.00  0.00    +0.000 OA
BRANCH  14  16
ATOM     16  OXT UNL     1       1.446   1.316  18.924  0.00  0.00    +0.000 OA
ATOM     17  HXT UNL     1       0.728   0.642  18.894  0.00  0.00    +0.000 HD
ENDBRANCH  14  16
ENDBRANCH   9  14
ENDBRANCH   3   5
BRANCH   1  19
ATOM     18  N   UNL     1       7.511   6.349  16.256  0.00  0.00    +0.000 NA
ATOM     19  C   UNL     1       6.634   5.423  15.981  0.00  0.00    +0.000 C 
BRANCH  19  20
ATOM     20  C   UNL     1       6.611   4.884  14.588  0.00  0.00    +0.000 A 
ATOM     21  C   UNL     1       7.590   5.310  13.678  0.00  0.00    +0.000 A 
ATOM     22  C   UNL     1       7.627   4.775  12.389  0.00  0.00    +0.000 A 
ATOM     23  C   UNL     1       6.695   3.813  12.008  0.00  0.00    +0.000 A 
ATOM     24  C   UNL     1       5.709   3.398  12.903  0.00  0.00    +0.000 A 
ATOM     25  C   UNL     1       5.655   3.945  14.186  0.00  0.00    +0.000 A 
ENDBRANCH  19  20
BRANCH  18  27
ATOM     26  C   UNL     1       7.715   8.188  17.596  0.00  0.00    +0.000 C 
ATOM     27  O   UNL     1       7.457   6.786  17.583  0.00  0.00    +0.000 OA
ENDBRANCH  18  27
ENDBRANCH   1  19
TORSDOF 6
ENDMDL
MODEL 9
REMARK VINA RESULT:      -6.7      9.742     11.689
REMARK  Name = 
REMARK  7 active torsions:
REMARK  status: ('A' for Active; 'I' for Inactive)
REMARK    1  A    between atoms: C_1  and  O_2
REMARK    2  A    between atoms: O_2  and  N_3
REMARK    3  A    between atoms: C_4  and  C_5
REMARK    4  A    between atoms: C_4  and  C_20
REMARK    5  A    between atoms: N_7  and  CA_8
REMARK    6  A    between atoms: CA_12  and  C_13
REMARK    7  A    between atoms: C_13  and  OXT_15
REMARK                            x       y       z     vdW  Elec       q    Type
REMARK                         _______ _______ _______ _____ _____    ______ ____
ROOT
ATOM      1  C   UNL     1      -1.837  12.119  19.181  0.00  0.00    +0.000 C 
ATOM      2  O   UNL     1      -1.186  13.151  19.257  0.00  0.00    +0.000 OA
ATOM      3  N   UNL     1      -3.085  11.976  19.768  0.00  0.00    +0.000 N 
ATOM      4  H   UNL     1      -3.588  11.104  19.640  0.00  0.00    +0.000 HD
ENDROOT
BRANCH   3   5
ATOM      5  CA  UNL     1      -3.738  13.100  20.491  0.00  0.00    +0.000 C 
ATOM      6  C   UNL     1      -4.228  12.762  21.925  0.00  0.00    +0.000 C 
ATOM      7  O   UNL     1      -3.820  12.178  22.907  0.00  0.00    +0.000 OA
ATOM      8  N   UNL     1      -5.468  13.238  21.669  0.00  0.00    +0.000 N 
ATOM      9  CA  UNL     1      -6.667  12.739  22.121  0.00  0.00    +0.000 C 
ATOM     10  C   UNL     1      -7.634  12.425  21.239  0.00  0.00    +0.000 C 
ATOM     11  C   UNL     1      -7.426  12.438  19.755  0.00  0.00    +0.000 C 
ATOM     12  O   UNL     1      -6.025  12.399  19.458  0.00  0.00    +0.000 OA
ATOM     13  C   UNL     1      -5.259  13.354  20.218  0.00  0.00    +0.000 C 
BRANCH   9  14
ATOM     14  C   UNL     1      -6.992  12.574  23.574  0.00  0.00    +0.000 C 
ATOM     15  O   UNL     1      -7.404  11.519  24.042  0.00  0.00    +0.000 OA
BRANCH  14  16
ATOM     16  OXT UNL     1      -6.802  13.659  24.346  0.00  0.00    +0.000 OA
ATOM     17  HXT UNL     1      -6.814  13.510  25.319  0.00  0.00    +0.000 HD
ENDBRANCH  14  16
ENDBRANCH   9  14
ENDBRANCH   3   5
BRANCH   1  19
ATOM     18  N   UNL     1      -1.835  10.536  17.218  0.00  0.00    +0.000 NA
ATOM     19  C   UNL     1      -1.353  10.891  18.378  0.00  0.00    +0.000 C 
BRANCH  19  20
ATOM     20  C   UNL     1      -0.239  10.073  18.944  0.00  0.00    +0.000 A 
ATOM     21  C   UNL     1      -0.230   9.791  20.317  0.00  0.00    +0.000 A 
ATOM     22  C   UNL     1       0.766   8.978  20.860  0.00  0.00    +0.000 A 
ATOM     23  C   UNL     1       1.751   8.440  20.033  0.00  0.00    +0.000 A 
ATOM     24  C   UNL     1       1.757   8.730  18.670  0.00  0.00    +0.000 A 
ATOM     25  C   UNL     1       0.774   9.560  18.127  0.00  0.00    +0.000 A 
ENDBRANCH  19  20
BRANCH  18  27
ATOM     26  C   UNL     1      -3.197  10.980  15.438  0.00  0.00    +0.000 C 
ATOM     27  O   UNL     1      -2.870  11.363  16.772  0.00  0.00    +0.000 OA
ENDBRANCH  18  27
ENDBRANCH   1  19
TORSDOF 6
ENDMDL
