MODEL 1
REMARK VINA RESULT:      -7.2      0.000      0.000
REMARK  Name = 
REMARK  9 active torsions:
REMARK  status: ('A' for Active; 'I' for Inactive)
REMARK    1  A    between atoms: C_1  and  O_2
REMARK    2  A    between atoms: O_2  and  C_3
REMARK    3  A    between atoms: C_6  and  C_7
REMARK    4  A    between atoms: C_7  and  C_8
REMARK    5  A    between atoms: C_9  and  C_10
REMARK    6  A    between atoms: C_12  and  O_13
REMARK    7  A    between atoms: C_15  and  O_16
REMARK    8  A    between atoms: C_19  and  O_20
REMARK    9  A    between atoms: O_20  and  C_21
REMARK                            x       y       z     vdW  Elec       q    Type
REMARK                         _______ _______ _______ _____ _____    ______ ____
ROOT
ATOM      1  C   UNL     1       3.291   6.739  18.074  0.00  0.00    +0.000 C 
ATOM      2  C   UNL     1       2.816   5.320  18.269  0.00  0.00    +0.000 C 
ATOM      3  C   UNL     1       4.443   7.029  17.430  0.00  0.00    +0.000 C 
ENDROOT
BRANCH   1   7
ATOM      4  C   UNL     1       0.578   9.829  19.443  0.00  0.00    +0.000 A 
ATOM      5  C   UNL     1       1.181   9.913  18.182  0.00  0.00    +0.000 A 
ATOM      6  C   UNL     1       2.066   8.923  17.735  0.00  0.00    +0.000 A 
ATOM      7  C   UNL     1       2.398   7.835  18.547  0.00  0.00    +0.000 A 
ATOM      8  C   UNL     1       1.857   7.815  19.844  0.00  0.00    +0.000 A 
ATOM      9  C   UNL     1       0.963   8.798  20.309  0.00  0.00    +0.000 A 
BRANCH   4  11
ATOM     10  C   UNL     1       0.174  12.055  20.143  0.00  0.00    +0.000 C 
ATOM     11  O   UNL     1      -0.344  10.757  19.849  0.00  0.00    +0.000 OA
ENDBRANCH   4  11
BRANCH   9  12
ATOM     12  O   UNL     1       0.568   8.559  21.598  0.00  0.00    +0.000 OA
ATOM     13  C   UNL     1       1.156   9.298  22.657  0.00  0.00    +0.000 C 
ENDBRANCH   9  12
ENDBRANCH   1   7
BRANCH   3  14
ATOM     14  C   UNL     1       5.330   6.033  16.826  0.00  0.00    +0.000 A 
ATOM     15  C   UNL     1       6.395   5.513  17.581  0.00  0.00    +0.000 A 
ATOM     16  C   UNL     1       7.241   4.559  17.019  0.00  0.00    +0.000 A 
ATOM     17  C   UNL     1       7.037   4.099  15.721  0.00  0.00    +0.000 A 
ATOM     18  C   UNL     1       5.984   4.619  14.978  0.00  0.00    +0.000 A 
ATOM     19  C   UNL     1       5.137   5.584  15.514  0.00  0.00    +0.000 A 
BRANCH  16  20
ATOM     20  O   UNL     1       8.296   4.049  17.713  0.00  0.00    +0.000 OA
ATOM     21  H   UNL     1       8.648   4.744  18.295  0.00  0.00    +0.000 HD
ENDBRANCH  16  20
BRANCH  18  22
ATOM     22  O   UNL     1       5.751   4.207  13.696  0.00  0.00    +0.000 OA
ATOM     23  H   UNL     1       5.563   3.255  13.710  0.00  0.00    +0.000 HD
ENDBRANCH  18  22
ENDBRANCH   3  14
TORSDOF 6
ENDMDL
MODEL 2
REMARK VINA RESULT:      -7.2      0.371      1.844
REMARK  Name = 
REMARK  9 active torsions:
REMARK  status: ('A' for Active; 'I' for Inactive)
REMARK    1  A    between atoms: C_1  and  O_2
REMARK    2  A    between atoms: O_2  and  C_3
REMARK    3  A    between atoms: C_6  and  C_7
REMARK    4  A    between atoms: C_7  and  C_8
REMARK    5  A    between atoms: C_9  and  C_10
REMARK    6  A    between atoms: C_12  and  O_13
REMARK    7  A    between atoms: C_15  and  O_16
REMARK    8  A    between atoms: C_19  and  O_20
REMARK    9  A    between atoms: O_20  and  C_21
REMARK                            x       y       z     vdW  Elec       q    Type
REMARK                         _______ _______ _______ _____ _____    ______ ____
ROOT
ATOM      1  C   UNL     1       3.311   6.731  18.114  0.00  0.00    +0.000 C 
ATOM      2  C   UNL     1       2.868   5.311  18.371  0.00  0.00    +0.000 C 
ATOM      3  C   UNL     1       4.443   7.018  17.435  0.00  0.00    +0.000 C 
ENDROOT
BRANCH   1   7
ATOM      4  C   UNL     1       0.566   9.819  19.421  0.00  0.00    +0.000 A 
ATOM      5  C   UNL     1       1.180   9.893  18.164  0.00  0.00    +0.000 A 
ATOM      6  C   UNL     1       2.076   8.903  17.738  0.00  0.00    +0.000 A 
ATOM      7  C   UNL     1       2.407   7.827  18.566  0.00  0.00    +0.000 A 
ATOM      8  C   UNL     1       1.853   7.818  19.858  0.00  0.00    +0.000 A 
ATOM      9  C   UNL     1       0.949   8.801  20.302  0.00  0.00    +0.000 A 
BRANCH   4  11
ATOM     10  C   UNL     1      -0.775  11.669  18.797  0.00  0.00    +0.000 C 
ATOM     11  O   UNL     1      -0.365  10.746  19.807  0.00  0.00    +0.000 OA
ENDBRANCH   4  11
BRANCH   9  12
ATOM     12  O   UNL     1       0.544   8.574  21.591  0.00  0.00    +0.000 OA
ATOM     13  C   UNL     1       1.143   9.305  22.650  0.00  0.00    +0.000 C 
ENDBRANCH   9  12
ENDBRANCH   1   7
BRANCH   3  14
ATOM     14  C   UNL     1       5.337   6.017  16.849  0.00  0.00    +0.000 A 
ATOM     15  C   UNL     1       5.118   5.589  15.529  0.00  0.00    +0.000 A 
ATOM     16  C   UNL     1       5.966   4.643  14.958  0.00  0.00    +0.000 A 
ATOM     17  C   UNL     1       7.042   4.124  15.673  0.00  0.00    +0.000 A 
ATOM     18  C   UNL     1       7.252   4.549  16.979  0.00  0.00    +0.000 A 
ATOM     19  C   UNL     1       6.408   5.482  17.574  0.00  0.00    +0.000 A 
BRANCH  16  20
ATOM     20  O   UNL     1       5.770   4.188  13.688  0.00  0.00    +0.000 OA
ATOM     21  H   UNL     1       6.620   3.871  13.339  0.00  0.00    +0.000 HD
ENDBRANCH  16  20
BRANCH  18  22
ATOM     22  O   UNL     1       8.288   4.060  17.724  0.00  0.00    +0.000 OA
ATOM     23  H   UNL     1       7.920   3.533  18.452  0.00  0.00    +0.000 HD
ENDBRANCH  18  22
ENDBRANCH   3  14
TORSDOF 6
ENDMDL
MODEL 3
REMARK VINA RESULT:      -7.0      2.403      3.815
REMARK  Name = 
REMARK  9 active torsions:
REMARK  status: ('A' for Active; 'I' for Inactive)
REMARK    1  A    between atoms: C_1  and  O_2
REMARK    2  A    between atoms: O_2  and  C_3
REMARK    3  A    between atoms: C_6  and  C_7
REMARK    4  A    between atoms: C_7  and  C_8
REMARK    5  A    between atoms: C_9  and  C_10
REMARK    6  A    between atoms: C_12  and  O_13
REMARK    7  A    between atoms: C_15  and  O_16
REMARK    8  A    between atoms: C_19  and  O_20
REMARK    9  A    between atoms: O_20  and  C_21
REMARK                            x       y       z     vdW  Elec       q    Type
REMARK                         _______ _______ _______ _____ _____    ______ ____
ROOT
ATOM      1  C   UNL     1       2.027   7.450  19.389  0.00  0.00    +0.000 C 
ATOM      2  C   UNL     1       2.592   7.795  18.032  0.00  0.00    +0.000 C 
ATOM      3  C   UNL     1       2.151   6.217  19.927  0.00  0.00    +0.000 C 
ENDROOT
BRANCH   1   7
ATOM      4  C   UNL     1       0.299  10.729  21.634  0.00  0.00    +0.000 A 
ATOM      5  C   UNL     1       0.629   9.524  22.267  0.00  0.00    +0.000 A 
ATOM      6  C   UNL     1       1.180   8.456  21.547  0.00  0.00    +0.000 A 
ATOM      7  C   UNL     1       1.389   8.549  20.168  0.00  0.00    +0.000 A 
ATOM      8  C   UNL     1       0.966   9.731  19.534  0.00  0.00    +0.000 A 
ATOM      9  C   UNL     1       0.415  10.816  20.242  0.00  0.00    +0.000 A 
BRANCH   4  11
ATOM     10  C   UNL     1      -1.446  11.619  22.966  0.00  0.00    +0.000 C 
ATOM     11  O   UNL     1      -0.169  11.798  22.351  0.00  0.00    +0.000 OA
ENDBRANCH   4  11
BRANCH   9  12
ATOM     12  O   UNL     1       0.088  11.853  19.409  0.00  0.00    +0.000 OA
ATOM     13  C   UNL     1      -1.260  12.018  18.996  0.00  0.00    +0.000 C 
ENDBRANCH   9  12
ENDBRANCH   1   7
BRANCH   3  14
ATOM     14  C   UNL     1       2.861   5.102  19.295  0.00  0.00    +0.000 A 
ATOM     15  C   UNL     1       2.123   4.092  18.656  0.00  0.00    +0.000 A 
ATOM     16  C   UNL     1       2.789   3.031  18.045  0.00  0.00    +0.000 A 
ATOM     17  C   UNL     1       4.179   2.965  18.043  0.00  0.00    +0.000 A 
ATOM     18  C   UNL     1       4.903   3.966  18.680  0.00  0.00    +0.000 A 
ATOM     19  C   UNL     1       4.258   5.027  19.310  0.00  0.00    +0.000 A 
BRANCH  16  20
ATOM     20  O   UNL     1       2.105   2.021  17.435  0.00  0.00    +0.000 OA
ATOM     21  H   UNL     1       1.809   1.394  18.116  0.00  0.00    +0.000 HD
ENDBRANCH  16  20
BRANCH  18  22
ATOM     22  O   UNL     1       6.268   3.938  18.714  0.00  0.00    +0.000 OA
ATOM     23  H   UNL     1       6.550   3.045  18.971  0.00  0.00    +0.000 HD
ENDBRANCH  18  22
ENDBRANCH   3  14
TORSDOF 6
ENDMDL
MODEL 4
REMARK VINA RESULT:      -6.9      2.417      3.559
REMARK  Name = 
REMARK  9 active torsions:
REMARK  status: ('A' for Active; 'I' for Inactive)
REMARK    1  A    between atoms: C_1  and  O_2
REMARK    2  A    between atoms: O_2  and  C_3
REMARK    3  A    between atoms: C_6  and  C_7
REMARK    4  A    between atoms: C_7  and  C_8
REMARK    5  A    between atoms: C_9  and  C_10
REMARK    6  A    between atoms: C_12  and  O_13
REMARK    7  A    between atoms: C_15  and  O_16
REMARK    8  A    between atoms: C_19  and  O_20
REMARK    9  A    between atoms: O_20  and  C_21
REMARK                            x       y       z     vdW  Elec       q    Type
REMARK                         _______ _______ _______ _____ _____    ______ ____
ROOT
ATOM      1  C   UNL     1       1.967   7.455  19.495  0.00  0.00    +0.000 C 
ATOM      2  C   UNL     1       2.507   7.834  18.137  0.00  0.00    +0.000 C 
ATOM      3  C   UNL     1       2.108   6.211  20.003  0.00  0.00    +0.000 C 
ENDROOT
BRANCH   1   7
ATOM      4  C   UNL     1       0.259  10.670  21.846  0.00  0.00    +0.000 A 
ATOM      5  C   UNL     1       0.585   9.444  22.441  0.00  0.00    +0.000 A 
ATOM      6  C   UNL     1       1.130   8.397  21.686  0.00  0.00    +0.000 A 
ATOM      7  C   UNL     1       1.336   8.532  20.310  0.00  0.00    +0.000 A 
ATOM      8  C   UNL     1       0.917   9.735  19.715  0.00  0.00    +0.000 A 
ATOM      9  C   UNL     1       0.373  10.800  20.457  0.00  0.00    +0.000 A 
BRANCH   4  11
ATOM     10  C   UNL     1      -1.547  11.599  23.065  0.00  0.00    +0.000 C 
ATOM     11  O   UNL     1      -0.203  11.718  22.597  0.00  0.00    +0.000 OA
ENDBRANCH   4  11
BRANCH   9  12
ATOM     12  O   UNL     1       0.048  11.863  19.658  0.00  0.00    +0.000 OA
ATOM     13  C   UNL     1      -0.921  11.698  18.635  0.00  0.00    +0.000 C 
ENDBRANCH   9  12
ENDBRANCH   1   7
BRANCH   3  14
ATOM     14  C   UNL     1       2.814   5.115  19.334  0.00  0.00    +0.000 A 
ATOM     15  C   UNL     1       4.218   5.085  19.362  0.00  0.00    +0.000 A 
ATOM     16  C   UNL     1       4.899   4.043  18.736  0.00  0.00    +0.000 A 
ATOM     17  C   UNL     1       4.207   3.020  18.094  0.00  0.00    +0.000 A 
ATOM     18  C   UNL     1       2.819   3.058  18.067  0.00  0.00    +0.000 A 
ATOM     19  C   UNL     1       2.118   4.097  18.673  0.00  0.00    +0.000 A 
BRANCH  16  20
ATOM     20  O   UNL     1       6.261   3.993  18.723  0.00  0.00    +0.000 OA
ATOM     21  H   UNL     1       6.552   3.336  19.377  0.00  0.00    +0.000 HD
ENDBRANCH  16  20
BRANCH  18  22
ATOM     22  O   UNL     1       2.097   2.083  17.439  0.00  0.00    +0.000 OA
ATOM     23  H   UNL     1       1.170   2.367  17.397  0.00  0.00    +0.000 HD
ENDBRANCH  18  22
ENDBRANCH   3  14
TORSDOF 6
ENDMDL
MODEL 5
REMARK VINA RESULT:      -6.8      1.538      7.854
REMARK  Name = 
REMARK  9 active torsions:
REMARK  status: ('A' for Active; 'I' for Inactive)
REMARK    1  A    between atoms: C_1  and  O_2
REMARK    2  A    between atoms: O_2  and  C_3
REMARK    3  A    between atoms: C_6  and  C_7
REMARK    4  A    between atoms: C_7  and  C_8
REMARK    5  A    between atoms: C_9  and  C_10
REMARK    6  A    between atoms: C_12  and  O_13
REMARK    7  A    between atoms: C_15  and  O_16
REMARK    8  A    between atoms: C_19  and  O_20
REMARK    9  A    between atoms: O_20  and  C_21
REMARK                            x       y       z     vdW  Elec       q    Type
REMARK                         _______ _______ _______ _____ _____    ______ ____
ROOT
ATOM      1  C   UNL     1       3.113   6.714  18.151  0.00  0.00    +0.000 C 
ATOM      2  C   UNL     1       2.380   5.860  19.157  0.00  0.00    +0.000 C 
ATOM      3  C   UNL     1       2.789   8.008  17.935  0.00  0.00    +0.000 C 
ENDROOT
BRANCH   1   7
ATOM      4  C   UNL     1       6.479   5.041  15.995  0.00  0.00    +0.000 A 
ATOM      5  C   UNL     1       5.307   4.297  16.180  0.00  0.00    +0.000 A 
ATOM      6  C   UNL     1       4.217   4.828  16.883  0.00  0.00    +0.000 A 
ATOM      7  C   UNL     1       4.278   6.105  17.448  0.00  0.00    +0.000 A 
ATOM      8  C   UNL     1       5.494   6.799  17.333  0.00  0.00    +0.000 A 
ATOM      9  C   UNL     1       6.598   6.285  16.626  0.00  0.00    +0.000 A 
BRANCH   4  11
ATOM     10  C   UNL     1       7.425   4.787  13.838  0.00  0.00    +0.000 C 
ATOM     11  O   UNL     1       7.515   4.551  15.244  0.00  0.00    +0.000 OA
ENDBRANCH   4  11
BRANCH   9  12
ATOM     12  O   UNL     1       7.662   7.146  16.648  0.00  0.00    +0.000 OA
ATOM     13  C   UNL     1       7.728   8.150  17.648  0.00  0.00    +0.000 C 
ENDBRANCH   9  12
ENDBRANCH   1   7
BRANCH   3  14
ATOM     14  C   UNL     1       1.740   8.733  18.657  0.00  0.00    +0.000 A 
ATOM     15  C   UNL     1       0.853   9.552  17.939  0.00  0.00    +0.000 A 
ATOM     16  C   UNL     1      -0.153  10.240  18.615  0.00  0.00    +0.000 A 
ATOM     17  C   UNL     1      -0.304  10.115  19.993  0.00  0.00    +0.000 A 
ATOM     18  C   UNL     1       0.579   9.306  20.697  0.00  0.00    +0.000 A 
ATOM     19  C   UNL     1       1.601   8.622  20.045  0.00  0.00    +0.000 A 
BRANCH  16  20
ATOM     20  O   UNL     1      -1.018  11.062  17.954  0.00  0.00    +0.000 OA
ATOM     21  H   UNL     1      -1.699  11.360  18.579  0.00  0.00    +0.000 HD
ENDBRANCH  16  20
BRANCH  18  22
ATOM     22  O   UNL     1       0.478   9.161  22.052  0.00  0.00    +0.000 OA
ATOM     23  H   UNL     1      -0.321   9.625  22.351  0.00  0.00    +0.000 HD
ENDBRANCH  18  22
ENDBRANCH   3  14
TORSDOF 6
ENDMDL
MODEL 6
REMARK VINA RESULT:      -6.7      2.133      3.089
REMARK  Name = 
REMARK  9 active torsions:
REMARK  status: ('A' for Active; 'I' for Inactive)
REMARK    1  A    between atoms: C_1  and  O_2
REMARK    2  A    between atoms: O_2  and  C_3
REMARK    3  A    between atoms: C_6  and  C_7
REMARK    4  A    between atoms: C_7  and  C_8
REMARK    5  A    between atoms: C_9  and  C_10
REMARK    6  A    between atoms: C_12  and  O_13
REMARK    7  A    between atoms: C_15  and  O_16
REMARK    8  A    between atoms: C_19  and  O_20
REMARK    9  A    between atoms: O_20  and  C_21
REMARK                            x       y       z     vdW  Elec       q    Type
REMARK                         _______ _______ _______ _____ _____    ______ ____
ROOT
ATOM      1  C   UNL     1       1.984   7.572  19.625  0.00  0.00    +0.000 C 
ATOM      2  C   UNL     1       1.723   6.618  20.765  0.00  0.00    +0.000 C 
ATOM      3  C   UNL     1       2.681   7.206  18.527  0.00  0.00    +0.000 C 
ENDROOT
BRANCH   1   7
ATOM      4  C   UNL     1       0.070  11.451  19.900  0.00  0.00    +0.000 A 
ATOM      5  C   UNL     1       0.546  10.973  18.672  0.00  0.00    +0.000 A 
ATOM      6  C   UNL     1       1.174   9.724  18.576  0.00  0.00    +0.000 A 
ATOM      7  C   UNL     1       1.372   8.929  19.709  0.00  0.00    +0.000 A 
ATOM      8  C   UNL     1       0.972   9.465  20.945  0.00  0.00    +0.000 A 
ATOM      9  C   UNL     1       0.336  10.715  21.061  0.00  0.00    +0.000 A 
BRANCH   4  11
ATOM     10  C   UNL     1      -2.033  12.538  19.934  0.00  0.00    +0.000 C 
ATOM     11  O   UNL     1      -0.609  12.637  19.980  0.00  0.00    +0.000 OA
ENDBRANCH   4  11
BRANCH   9  12
ATOM     12  O   UNL     1       0.037  11.015  22.363  0.00  0.00    +0.000 OA
ATOM     13  C   UNL     1      -0.643  10.060  23.162  0.00  0.00    +0.000 C 
ENDBRANCH   9  12
ENDBRANCH   1   7
BRANCH   3  14
ATOM     14  C   UNL     1       3.222   5.864  18.295  0.00  0.00    +0.000 A 
ATOM     15  C   UNL     1       2.365   4.847  17.844  0.00  0.00    +0.000 A 
ATOM     16  C   UNL     1       2.870   3.569  17.613  0.00  0.00    +0.000 A 
ATOM     17  C   UNL     1       4.220   3.288  17.808  0.00  0.00    +0.000 A 
ATOM     18  C   UNL     1       5.061   4.298  18.258  0.00  0.00    +0.000 A 
ATOM     19  C   UNL     1       4.574   5.577  18.509  0.00  0.00    +0.000 A 
BRANCH  16  20
ATOM     20  O   UNL     1       2.064   2.552  17.196  0.00  0.00    +0.000 OA
ATOM     21  H   UNL     1       2.369   2.254  16.323  0.00  0.00    +0.000 HD
ENDBRANCH  16  20
BRANCH  18  22
ATOM     22  O   UNL     1       6.390   4.067  18.475  0.00  0.00    +0.000 OA
ATOM     23  H   UNL     1       6.475   3.313  19.081  0.00  0.00    +0.000 HD
ENDBRANCH  18  22
ENDBRANCH   3  14
TORSDOF 6
ENDMDL
MODEL 7
REMARK VINA RESULT:      -6.7      1.020      1.994
REMARK  Name = 
REMARK  9 active torsions:
REMARK  status: ('A' for Active; 'I' for Inactive)
REMARK    1  A    between atoms: C_1  and  O_2
REMARK    2  A    between atoms: O_2  and  C_3
REMARK    3  A    between atoms: C_6  and  C_7
REMARK    4  A    between atoms: C_7  and  C_8
REMARK    5  A    between atoms: C_9  and  C_10
REMARK    6  A    between atoms: C_12  and  O_13
REMARK    7  A    between atoms: C_15  and  O_16
REMARK    8  A    between atoms: C_19  and  O_20
REMARK    9  A    between atoms: O_20  and  C_21
REMARK                            x       y       z     vdW  Elec       q    Type
REMARK                         _______ _______ _______ _____ _____    ______ ____
ROOT
ATOM      1  C   UNL     1       3.111   6.454  18.466  0.00  0.00    +0.000 C 
ATOM      2  C   UNL     1       2.511   5.095  18.197  0.00  0.00    +0.000 C 
ATOM      3  C   UNL     1       4.349   6.790  18.042  0.00  0.00    +0.000 C 
ENDROOT
BRANCH   1   7
ATOM      4  C   UNL     1       0.739   9.469  20.482  0.00  0.00    +0.000 A 
ATOM      5  C   UNL     1       0.957   8.218  21.072  0.00  0.00    +0.000 A 
ATOM      6  C   UNL     1       1.715   7.234  20.423  0.00  0.00    +0.000 A 
ATOM      7  C   UNL     1       2.253   7.461  19.152  0.00  0.00    +0.000 A 
ATOM      8  C   UNL     1       1.946   8.687  18.537  0.00  0.00    +0.000 A 
ATOM      9  C   UNL     1       1.190   9.688  19.174  0.00  0.00    +0.000 A 
BRANCH   4  11
ATOM     10  C   UNL     1      -0.352  10.133  22.476  0.00  0.00    +0.000 C 
ATOM     11  O   UNL     1       0.062  10.456  21.148  0.00  0.00    +0.000 OA
ENDBRANCH   4  11
BRANCH   9  12
ATOM     12  O   UNL     1       1.032  10.791  18.378  0.00  0.00    +0.000 OA
ATOM     13  C   UNL     1       2.143  11.637  18.127  0.00  0.00    +0.000 C 
ENDBRANCH   9  12
ENDBRANCH   1   7
BRANCH   3  14
ATOM     14  C   UNL     1       5.225   5.914  17.258  0.00  0.00    +0.000 A 
ATOM     15  C   UNL     1       6.374   5.376  17.860  0.00  0.00    +0.000 A 
ATOM     16  C   UNL     1       7.210   4.536  17.127  0.00  0.00    +0.000 A 
ATOM     17  C   UNL     1       6.914   4.208  15.807  0.00  0.00    +0.000 A 
ATOM     18  C   UNL     1       5.777   4.747  15.217  0.00  0.00    +0.000 A 
ATOM     19  C   UNL     1       4.937   5.600  15.926  0.00  0.00    +0.000 A 
BRANCH  16  20
ATOM     20  O   UNL     1       8.345   4.014  17.671  0.00  0.00    +0.000 OA
ATOM     21  H   UNL     1       9.073   4.132  17.038  0.00  0.00    +0.000 HD
ENDBRANCH  16  20
BRANCH  18  22
ATOM     22  O   UNL     1       5.452   4.463  13.921  0.00  0.00    +0.000 OA
ATOM     23  H   UNL     1       5.280   3.510  13.849  0.00  0.00    +0.000 HD
ENDBRANCH  18  22
ENDBRANCH   3  14
TORSDOF 6
ENDMDL
MODEL 8
REMARK VINA RESULT:      -6.7      1.880      7.946
REMARK  Name = 
REMARK  9 active torsions:
REMARK  status: ('A' for Active; 'I' for Inactive)
REMARK    1  A    between atoms: C_1  and  O_2
REMARK    2  A    between atoms: O_2  and  C_3
REMARK    3  A    between atoms: C_6  and  C_7
REMARK    4  A    between atoms: C_7  and  C_8
REMARK    5  A    between atoms: C_9  and  C_10
REMARK    6  A    between atoms: C_12  and  O_13
REMARK    7  A    between atoms: C_15  and  O_16
REMARK    8  A    between atoms: C_19  and  O_20
REMARK    9  A    between atoms: O_20  and  C_21
REMARK                            x       y       z     vdW  Elec       q    Type
REMARK                         _______ _______ _______ _____ _____    ______ ____
ROOT
ATOM      1  C   UNL     1       2.408   7.657  18.422  0.00  0.00    +0.000 C 
ATOM      2  C   UNL     1       2.040   7.553  19.882  0.00  0.00    +0.000 C 
ATOM      3  C   UNL     1       1.948   8.655  17.635  0.00  0.00    +0.000 C 
ENDROOT
BRANCH   1   7
ATOM      4  C   UNL     1       5.200   4.815  16.716  0.00  0.00    +0.000 A 
ATOM      5  C   UNL     1       3.968   4.389  17.229  0.00  0.00    +0.000 A 
ATOM      6  C   UNL     1       3.064   5.300  17.791  0.00  0.00    +0.000 A 
ATOM      7  C   UNL     1       3.375   6.660  17.883  0.00  0.00    +0.000 A 
ATOM      8  C   UNL     1       4.652   7.055  17.448  0.00  0.00    +0.000 A 
ATOM      9  C   UNL     1       5.572   6.156  16.877  0.00  0.00    +0.000 A 
BRANCH   4  11
ATOM     10  C   UNL     1       6.032   3.955  14.672  0.00  0.00    +0.000 C 
ATOM     11  O   UNL     1       6.051   3.937  16.100  0.00  0.00    +0.000 OA
ENDBRANCH   4  11
BRANCH   9  12
ATOM     12  O   UNL     1       6.741   6.777  16.526  0.00  0.00    +0.000 OA
ATOM     13  C   UNL     1       7.568   7.332  17.536  0.00  0.00    +0.000 C 
ENDBRANCH   9  12
ENDBRANCH   1   7
BRANCH   3  14
ATOM     14  C   UNL     1       1.089   9.748  18.096  0.00  0.00    +0.000 A 
ATOM     15  C   UNL     1      -0.304   9.632  17.959  0.00  0.00    +0.000 A 
ATOM     16  C   UNL     1      -1.131  10.663  18.401  0.00  0.00    +0.000 A 
ATOM     17  C   UNL     1      -0.596  11.803  18.993  0.00  0.00    +0.000 A 
ATOM     18  C   UNL     1       0.783  11.914  19.123  0.00  0.00    +0.000 A 
ATOM     19  C   UNL     1       1.628  10.903  18.674  0.00  0.00    +0.000 A 
BRANCH  16  20
ATOM     20  O   UNL     1      -2.485  10.594  18.264  0.00  0.00    +0.000 OA
ATOM     21  H   UNL     1      -2.698   9.860  17.665  0.00  0.00    +0.000 HD
ENDBRANCH  16  20
BRANCH  18  22
ATOM     22  O   UNL     1       1.354  13.019  19.687  0.00  0.00    +0.000 OA
ATOM     23  H   UNL     1       0.646  13.625  19.958  0.00  0.00    +0.000 HD
ENDBRANCH  18  22
ENDBRANCH   3  14
TORSDOF 6
ENDMDL
MODEL 9
REMARK VINA RESULT:      -6.7      1.875      7.803
REMARK  Name = 
REMARK  9 active torsions:
REMARK  status: ('A' for Active; 'I' for Inactive)
REMARK    1  A    between atoms: C_1  and  O_2
REMARK    2  A    between atoms: O_2  and  C_3
REMARK    3  A    between atoms: C_6  and  C_7
REMARK    4  A    between atoms: C_7  and  C_8
REMARK    5  A    between atoms: C_9  and  C_10
REMARK    6  A    between atoms: C_12  and  O_13
REMARK    7  A    between atoms: C_15  and  O_16
REMARK    8  A    between atoms: C_19  and  O_20
REMARK    9  A    between atoms: O_20  and  C_21
REMARK                            x       y       z     vdW  Elec       q    Type
REMARK                         _______ _______ _______ _____ _____    ______ ____
ROOT
ATOM      1  C   UNL     1       2.428   7.644  18.428  0.00  0.00    +0.000 C 
ATOM      2  C   UNL     1       2.038   7.525  19.882  0.00  0.00    +0.000 C 
ATOM      3  C   UNL     1       1.981   8.651  17.645  0.00  0.00    +0.000 C 
ENDROOT
BRANCH   1   7
ATOM      4  C   UNL     1       5.235   4.813  16.732  0.00  0.00    +0.000 A 
ATOM      5  C   UNL     1       4.012   4.379  17.258  0.00  0.00    +0.000 A 
ATOM      6  C   UNL     1       3.102   5.287  17.817  0.00  0.00    +0.000 A 
ATOM      7  C   UNL     1       3.401   6.651  17.893  0.00  0.00    +0.000 A 
ATOM      8  C   UNL     1       4.671   7.054  17.445  0.00  0.00    +0.000 A 
ATOM      9  C   UNL     1       5.595   6.158  16.877  0.00  0.00    +0.000 A 
BRANCH   4  11
ATOM     10  C   UNL     1       6.086   3.963  14.691  0.00  0.00    +0.000 C 
ATOM     11  O   UNL     1       6.091   3.936  16.119  0.00  0.00    +0.000 OA
ENDBRANCH   4  11
BRANCH   9  12
ATOM     12  O   UNL     1       6.756   6.787  16.511  0.00  0.00    +0.000 OA
ATOM     13  C   UNL     1       7.599   7.334  17.513  0.00  0.00    +0.000 C 
ENDBRANCH   9  12
ENDBRANCH   1   7
BRANCH   3  14
ATOM     14  C   UNL     1       1.118   9.741  18.105  0.00  0.00    +0.000 A 
ATOM     15  C   UNL     1       1.701  10.888  18.670  0.00  0.00    +0.000 A 
ATOM     16  C   UNL     1       0.889  11.934  19.104  0.00  0.00    +0.000 A 
ATOM     17  C   UNL     1      -0.495  11.868  18.972  0.00  0.00    +0.000 A 
ATOM     18  C   UNL     1      -1.065  10.730  18.415  0.00  0.00    +0.000 A 
ATOM     19  C   UNL     1      -0.275   9.666  17.989  0.00  0.00    +0.000 A 
BRANCH  16  20
ATOM     20  O   UNL     1       1.419  13.051  19.678  0.00  0.00    +0.000 OA
ATOM     21  H   UNL     1       1.460  13.753  19.007  0.00  0.00    +0.000 HD
ENDBRANCH  16  20
BRANCH  18  22
ATOM     22  O   UNL     1      -2.419  10.614  18.275  0.00  0.00    +0.000 OA
ATOM     23  H   UNL     1      -2.611   9.769  17.837  0.00  0.00    +0.000 HD
ENDBRANCH  18  22
ENDBRANCH   3  14
TORSDOF 6
ENDMDL
