MODEL 1
REMARK VINA RESULT:      -6.9      0.000      0.000
REMARK  Name = 
REMARK  6 active torsions:
REMARK  status: ('A' for Active; 'I' for Inactive)
REMARK    1  A    between atoms: C_1  and  C_2
REMARK    2  A    between atoms: C_2  and  C_3
REMARK    3  A    between atoms: C_2  and  O_4
REMARK    4  A    between atoms: O_4  and  C_5
REMARK    5  A    between atoms: C_9  and  N_10
REMARK    6  A    between atoms: N_10  and  O_11
REMARK                            x       y       z     vdW  Elec       q    Type
REMARK                         _______ _______ _______ _____ _____    ______ ____
ROOT
ATOM      1  N   UNL     1       4.268   4.612  17.072  0.00  0.00    +0.000 N 
ATOM      2  C   UNL     1       3.523   5.410  17.993  0.00  0.00    +0.000 A 
ATOM      3  C   UNL     1       3.065   4.837  19.180  0.00  0.00    +0.000 A 
ATOM      4  C   UNL     1       2.361   5.610  20.105  0.00  0.00    +0.000 A 
ATOM      5  C   UNL     1       2.141   6.950  19.831  0.00  0.00    +0.000 A 
ATOM      6 BR   UNL     1       1.206   8.045  21.038  0.00  0.00    +0.000 Br
ATOM      7  C   UNL     1       2.633   7.457  18.639  0.00  0.00    +0.000 A 
ATOM      8  N   UNL     1       3.299   6.716  17.723  0.00  0.00    +0.000 NA
ENDROOT
BRANCH   1  13
ATOM      9  C   UNL     1       6.682   5.176  16.623  0.00  0.00    +0.000 C 
ATOM     10  C   UNL     1       7.133   4.208  15.568  0.00  0.00    +0.000 C 
ATOM     11  C   UNL     1       6.277   4.121  14.547  0.00  0.00    +0.000 C 
ATOM     12  C   UNL     1       5.110   5.040  14.739  0.00  0.00    +0.000 C 
ATOM     13  C   UNL     1       5.195   5.438  16.229  0.00  0.00    +0.000 C 
BRANCH   9  14
ATOM     14  O   UNL     1       7.481   6.367  16.601  0.00  0.00    +0.000 OA
BRANCH  14  16
ATOM     15  C   UNL     1       8.017   6.392  18.956  0.00  0.00    +0.000 C 
ATOM     16  C   UNL     1       7.396   7.168  17.793  0.00  0.00    +0.000 C 
ATOM     17  C   UNL     1       8.123   8.505  17.661  0.00  0.00    +0.000 C 
ENDBRANCH  14  16
ENDBRANCH   9  14
ENDBRANCH   1  13
BRANCH   1  18
ATOM     18  O   UNL     1       4.869   3.437  17.574  0.00  0.00    +0.000 OA
ATOM     19  H   UNL     1       5.120   2.957  16.763  0.00  0.00    +0.000 HD
ENDBRANCH   1  18
TORSDOF 4
ENDMDL
MODEL 2
REMARK VINA RESULT:      -6.6      2.025      2.398
REMARK  Name = 
REMARK  6 active torsions:
REMARK  status: ('A' for Active; 'I' for Inactive)
REMARK    1  A    between atoms: C_1  and  C_2
REMARK    2  A    between atoms: C_2  and  C_3
REMARK    3  A    between atoms: C_2  and  O_4
REMARK    4  A    between atoms: O_4  and  C_5
REMARK    5  A    between atoms: C_9  and  N_10
REMARK    6  A    between atoms: N_10  and  O_11
REMARK                            x       y       z     vdW  Elec       q    Type
REMARK                         _______ _______ _______ _____ _____    ______ ____
ROOT
ATOM      1  N   UNL     1       4.647   3.589  16.576  0.00  0.00    +0.000 N 
ATOM      2  C   UNL     1       3.868   3.410  17.759  0.00  0.00    +0.000 A 
ATOM      3  C   UNL     1       3.442   2.128  18.110  0.00  0.00    +0.000 A 
ATOM      4  C   UNL     1       2.705   1.930  19.280  0.00  0.00    +0.000 A 
ATOM      5  C   UNL     1       2.421   3.020  20.086  0.00  0.00    +0.000 A 
ATOM      6 BR   UNL     1       1.439   2.820  21.675  0.00  0.00    +0.000 Br
ATOM      7  C   UNL     1       2.884   4.263  19.683  0.00  0.00    +0.000 A 
ATOM      8  N   UNL     1       3.581   4.474  18.544  0.00  0.00    +0.000 NA
ENDROOT
BRANCH   1  13
ATOM      9  C   UNL     1       7.018   4.418  16.379  0.00  0.00    +0.000 C 
ATOM     10  C   UNL     1       7.191   4.810  14.941  0.00  0.00    +0.000 C 
ATOM     11  C   UNL     1       6.189   5.569  14.488  0.00  0.00    +0.000 C 
ATOM     12  C   UNL     1       5.181   5.831  15.564  0.00  0.00    +0.000 C 
ATOM     13  C   UNL     1       5.531   4.799  16.659  0.00  0.00    +0.000 C 
BRANCH   9  14
ATOM     14  O   UNL     1       7.941   5.127  17.218  0.00  0.00    +0.000 OA
BRANCH  14  16
ATOM     15  C   UNL     1       7.762   5.767  19.540  0.00  0.00    +0.000 C 
ATOM     16  C   UNL     1       7.332   6.081  18.106  0.00  0.00    +0.000 C 
ATOM     17  C   UNL     1       7.726   7.522  17.787  0.00  0.00    +0.000 C 
ENDBRANCH  14  16
ENDBRANCH   9  14
ENDBRANCH   1  13
BRANCH   1  18
ATOM     18  O   UNL     1       5.305   2.453  16.056  0.00  0.00    +0.000 OA
ATOM     19  H   UNL     1       5.966   2.839  15.453  0.00  0.00    +0.000 HD
ENDBRANCH   1  18
TORSDOF 4
ENDMDL
MODEL 3
REMARK VINA RESULT:      -6.4      2.264      3.866
REMARK  Name = 
REMARK  6 active torsions:
REMARK  status: ('A' for Active; 'I' for Inactive)
REMARK    1  A    between atoms: C_1  and  C_2
REMARK    2  A    between atoms: C_2  and  C_3
REMARK    3  A    between atoms: C_2  and  O_4
REMARK    4  A    between atoms: O_4  and  C_5
REMARK    5  A    between atoms: C_9  and  N_10
REMARK    6  A    between atoms: N_10  and  O_11
REMARK                            x       y       z     vdW  Elec       q    Type
REMARK                         _______ _______ _______ _____ _____    ______ ____
ROOT
ATOM      1  N   UNL     1       4.899   6.202  18.248  0.00  0.00    +0.000 N 
ATOM      2  C   UNL     1       3.916   5.186  18.445  0.00  0.00    +0.000 A 
ATOM      3  C   UNL     1       2.567   5.494  18.263  0.00  0.00    +0.000 A 
ATOM      4  C   UNL     1       1.595   4.504  18.421  0.00  0.00    +0.000 A 
ATOM      5  C   UNL     1       1.993   3.217  18.746  0.00  0.00    +0.000 A 
ATOM      6 BR   UNL     1       0.735   1.840  18.967  0.00  0.00    +0.000 Br
ATOM      7  C   UNL     1       3.349   2.979  18.901  0.00  0.00    +0.000 A 
ATOM      8  N   UNL     1       4.302   3.931  18.771  0.00  0.00    +0.000 NA
ENDROOT
BRANCH   1  13
ATOM      9  C   UNL     1       6.832   6.421  16.647  0.00  0.00    +0.000 C 
ATOM     10  C   UNL     1       7.807   7.345  17.315  0.00  0.00    +0.000 C 
ATOM     11  C   UNL     1       8.041   7.017  18.588  0.00  0.00    +0.000 C 
ATOM     12  C   UNL     1       7.272   5.794  18.982  0.00  0.00    +0.000 C 
ATOM     13  C   UNL     1       6.230   5.634  17.853  0.00  0.00    +0.000 C 
BRANCH   9  14
ATOM     14  O   UNL     1       7.496   5.569  15.704  0.00  0.00    +0.000 OA
BRANCH  14  16
ATOM     15  C   UNL     1       7.487   5.001  13.357  0.00  0.00    +0.000 C 
ATOM     16  C   UNL     1       6.659   5.084  14.640  0.00  0.00    +0.000 C 
ATOM     17  C   UNL     1       6.075   3.702  14.929  0.00  0.00    +0.000 C 
ENDBRANCH  14  16
ENDBRANCH   9  14
ENDBRANCH   1  13
BRANCH   1  18
ATOM     18  O   UNL     1       4.522   7.326  17.480  0.00  0.00    +0.000 OA
ATOM     19  H   UNL     1       3.873   6.956  16.854  0.00  0.00    +0.000 HD
ENDBRANCH   1  18
TORSDOF 4
ENDMDL
MODEL 4
REMARK VINA RESULT:      -6.3      3.148      6.167
REMARK  Name = 
REMARK  6 active torsions:
REMARK  status: ('A' for Active; 'I' for Inactive)
REMARK    1  A    between atoms: C_1  and  C_2
REMARK    2  A    between atoms: C_2  and  C_3
REMARK    3  A    between atoms: C_2  and  O_4
REMARK    4  A    between atoms: O_4  and  C_5
REMARK    5  A    between atoms: C_9  and  N_10
REMARK    6  A    between atoms: N_10  and  O_11
REMARK                            x       y       z     vdW  Elec       q    Type
REMARK                         _______ _______ _______ _____ _____    ______ ____
ROOT
ATOM      1  N   UNL     1       4.537   5.444  18.768  0.00  0.00    +0.000 N 
ATOM      2  C   UNL     1       5.246   5.325  17.535  0.00  0.00    +0.000 A 
ATOM      3  C   UNL     1       6.477   4.668  17.514  0.00  0.00    +0.000 A 
ATOM      4  C   UNL     1       7.170   4.516  16.311  0.00  0.00    +0.000 A 
ATOM      5  C   UNL     1       6.609   5.013  15.146  0.00  0.00    +0.000 A 
ATOM      6 BR   UNL     1       7.487   4.836  13.495  0.00  0.00    +0.000 Br
ATOM      7  C   UNL     1       5.379   5.645  15.237  0.00  0.00    +0.000 A 
ATOM      8  N   UNL     1       4.705   5.818  16.398  0.00  0.00    +0.000 NA
ENDROOT
BRANCH   1  13
ATOM      9  C   UNL     1       2.276   4.963  19.771  0.00  0.00    +0.000 C 
ATOM     10  C   UNL     1       1.921   6.182  20.570  0.00  0.00    +0.000 C 
ATOM     11  C   UNL     1       2.112   7.318  19.892  0.00  0.00    +0.000 C 
ATOM     12  C   UNL     1       2.611   7.044  18.507  0.00  0.00    +0.000 C 
ATOM     13  C   UNL     1       3.055   5.566  18.560  0.00  0.00    +0.000 C 
BRANCH   9  14
ATOM     14  O   UNL     1       1.097   4.250  19.372  0.00  0.00    +0.000 OA
BRANCH  14  16
ATOM     15  C   UNL     1       2.000   2.035  19.040  0.00  0.00    +0.000 C 
ATOM     16  C   UNL     1       1.026   2.894  19.847  0.00  0.00    +0.000 C 
ATOM     17  C   UNL     1       1.381   2.766  21.327  0.00  0.00    +0.000 C 
ENDBRANCH  14  16
ENDBRANCH   9  14
ENDBRANCH   1  13
BRANCH   1  18
ATOM     18  O   UNL     1       4.882   4.546  19.802  0.00  0.00    +0.000 OA
ATOM     19  H   UNL     1       4.239   4.761  20.502  0.00  0.00    +0.000 HD
ENDBRANCH   1  18
TORSDOF 4
ENDMDL
MODEL 5
REMARK VINA RESULT:      -6.3      2.210      3.243
REMARK  Name = 
REMARK  6 active torsions:
REMARK  status: ('A' for Active; 'I' for Inactive)
REMARK    1  A    between atoms: C_1  and  C_2
REMARK    2  A    between atoms: C_2  and  C_3
REMARK    3  A    between atoms: C_2  and  O_4
REMARK    4  A    between atoms: O_4  and  C_5
REMARK    5  A    between atoms: C_9  and  N_10
REMARK    6  A    between atoms: N_10  and  O_11
REMARK                            x       y       z     vdW  Elec       q    Type
REMARK                         _______ _______ _______ _____ _____    ______ ____
ROOT
ATOM      1  N   UNL     1       2.564   5.314  19.630  0.00  0.00    +0.000 N 
ATOM      2  C   UNL     1       2.186   6.676  19.429  0.00  0.00    +0.000 A 
ATOM      3  C   UNL     1       1.704   7.419  20.507  0.00  0.00    +0.000 A 
ATOM      4  C   UNL     1       1.359   8.762  20.335  0.00  0.00    +0.000 A 
ATOM      5  C   UNL     1       1.518   9.341  19.086  0.00  0.00    +0.000 A 
ATOM      6 BR   UNL     1       1.078  11.143  18.791  0.00  0.00    +0.000 Br
ATOM      7  C   UNL     1       2.012   8.548  18.063  0.00  0.00    +0.000 A 
ATOM      8  N   UNL     1       2.331   7.241  18.208  0.00  0.00    +0.000 NA
ENDROOT
BRANCH   1  13
ATOM      9  C   UNL     1       4.584   3.845  19.303  0.00  0.00    +0.000 C 
ATOM     10  C   UNL     1       4.051   2.524  18.832  0.00  0.00    +0.000 C 
ATOM     11  C   UNL     1       3.161   2.649  17.843  0.00  0.00    +0.000 C 
ATOM     12  C   UNL     1       2.965   4.086  17.470  0.00  0.00    +0.000 C 
ATOM     13  C   UNL     1       3.601   4.862  18.644  0.00  0.00    +0.000 C 
BRANCH   9  14
ATOM     14  O   UNL     1       5.941   4.031  18.879  0.00  0.00    +0.000 OA
BRANCH  14  16
ATOM     15  C   UNL     1       7.529   5.750  19.476  0.00  0.00    +0.000 C 
ATOM     16  C   UNL     1       6.308   5.398  18.624  0.00  0.00    +0.000 C 
ATOM     17  C   UNL     1       6.651   5.656  17.158  0.00  0.00    +0.000 C 
ENDBRANCH  14  16
ENDBRANCH   9  14
ENDBRANCH   1  13
BRANCH   1  18
ATOM     18  O   UNL     1       2.839   4.908  20.955  0.00  0.00    +0.000 OA
ATOM     19  H   UNL     1       3.677   5.364  21.153  0.00  0.00    +0.000 HD
ENDBRANCH   1  18
TORSDOF 4
ENDMDL
MODEL 6
REMARK VINA RESULT:      -6.2      2.356      3.485
REMARK  Name = 
REMARK  6 active torsions:
REMARK  status: ('A' for Active; 'I' for Inactive)
REMARK    1  A    between atoms: C_1  and  C_2
REMARK    2  A    between atoms: C_2  and  C_3
REMARK    3  A    between atoms: C_2  and  O_4
REMARK    4  A    between atoms: O_4  and  C_5
REMARK    5  A    between atoms: C_9  and  N_10
REMARK    6  A    between atoms: N_10  and  O_11
REMARK                            x       y       z     vdW  Elec       q    Type
REMARK                         _______ _______ _______ _____ _____    ______ ____
ROOT
ATOM      1  N   UNL     1       2.306   6.116  19.594  0.00  0.00    +0.000 N 
ATOM      2  C   UNL     1       1.875   7.472  19.476  0.00  0.00    +0.000 A 
ATOM      3  C   UNL     1       1.462   8.160  20.617  0.00  0.00    +0.000 A 
ATOM      4  C   UNL     1       1.067   9.497  20.525  0.00  0.00    +0.000 A 
ATOM      5  C   UNL     1       1.108  10.125  19.291  0.00  0.00    +0.000 A 
ATOM      6 BR   UNL     1       0.595  11.922  19.102  0.00  0.00    +0.000 Br
ATOM      7  C   UNL     1       1.538   9.385  18.201  0.00  0.00    +0.000 A 
ATOM      8  N   UNL     1       1.905   8.085  18.271  0.00  0.00    +0.000 NA
ENDROOT
BRANCH   1  13
ATOM      9  C   UNL     1       4.655   5.340  19.118  0.00  0.00    +0.000 C 
ATOM     10  C   UNL     1       4.595   3.841  19.126  0.00  0.00    +0.000 C 
ATOM     11  C   UNL     1       3.583   3.360  18.398  0.00  0.00    +0.000 C 
ATOM     12  C   UNL     1       2.804   4.467  17.758  0.00  0.00    +0.000 C 
ATOM     13  C   UNL     1       3.272   5.732  18.511  0.00  0.00    +0.000 C 
BRANCH   9  14
ATOM     14  O   UNL     1       5.759   5.805  18.329  0.00  0.00    +0.000 OA
BRANCH  14  16
ATOM     15  C   UNL     1       7.476   4.641  17.092  0.00  0.00    +0.000 C 
ATOM     16  C   UNL     1       6.968   5.040  18.479  0.00  0.00    +0.000 C 
ATOM     17  C   UNL     1       8.073   5.814  19.195  0.00  0.00    +0.000 C 
ENDBRANCH  14  16
ENDBRANCH   9  14
ENDBRANCH   1  13
BRANCH   1  18
ATOM     18  O   UNL     1       2.699   5.671  20.875  0.00  0.00    +0.000 OA
ATOM     19  H   UNL     1       2.254   6.300  21.472  0.00  0.00    +0.000 HD
ENDBRANCH   1  18
TORSDOF 4
ENDMDL
MODEL 7
REMARK VINA RESULT:      -6.1      2.221      3.318
REMARK  Name = 
REMARK  6 active torsions:
REMARK  status: ('A' for Active; 'I' for Inactive)
REMARK    1  A    between atoms: C_1  and  C_2
REMARK    2  A    between atoms: C_2  and  C_3
REMARK    3  A    between atoms: C_2  and  O_4
REMARK    4  A    between atoms: O_4  and  C_5
REMARK    5  A    between atoms: C_9  and  N_10
REMARK    6  A    between atoms: N_10  and  O_11
REMARK                            x       y       z     vdW  Elec       q    Type
REMARK                         _______ _______ _______ _____ _____    ______ ____
ROOT
ATOM      1  N   UNL     1       2.614   5.982  19.519  0.00  0.00    +0.000 N 
ATOM      2  C   UNL     1       2.127   7.314  19.358  0.00  0.00    +0.000 A 
ATOM      3  C   UNL     1       1.487   7.942  20.427  0.00  0.00    +0.000 A 
ATOM      4  C   UNL     1       1.032   9.256  20.298  0.00  0.00    +0.000 A 
ATOM      5  C   UNL     1       1.241   9.924  19.102  0.00  0.00    +0.000 A 
ATOM      6 BR   UNL     1       0.659  11.695  18.866  0.00  0.00    +0.000 Br
ATOM      7  C   UNL     1       1.893   9.244  18.086  0.00  0.00    +0.000 A 
ATOM      8  N   UNL     1       2.322   7.965  18.189  0.00  0.00    +0.000 NA
ENDROOT
BRANCH   1  13
ATOM      9  C   UNL     1       4.912   4.960  19.383  0.00  0.00    +0.000 C 
ATOM     10  C   UNL     1       4.694   3.522  19.013  0.00  0.00    +0.000 C 
ATOM     11  C   UNL     1       3.848   3.375  17.990  0.00  0.00    +0.000 C 
ATOM     12  C   UNL     1       3.370   4.702  17.487  0.00  0.00    +0.000 C 
ATOM     13  C   UNL     1       3.770   5.687  18.608  0.00  0.00    +0.000 C 
BRANCH   9  14
ATOM     14  O   UNL     1       6.219   5.399  18.986  0.00  0.00    +0.000 OA
BRANCH  14  16
ATOM     15  C   UNL     1       7.049   7.106  17.492  0.00  0.00    +0.000 C 
ATOM     16  C   UNL     1       6.336   5.757  17.598  0.00  0.00    +0.000 C 
ATOM     17  C   UNL     1       7.121   4.729  16.786  0.00  0.00    +0.000 C 
ENDBRANCH  14  16
ENDBRANCH   9  14
ENDBRANCH   1  13
BRANCH   1  18
ATOM     18  O   UNL     1       2.812   5.520  20.839  0.00  0.00    +0.000 OA
ATOM     19  H   UNL     1       2.620   4.567  20.769  0.00  0.00    +0.000 HD
ENDBRANCH   1  18
TORSDOF 4
ENDMDL
MODEL 8
REMARK VINA RESULT:      -6.0      3.241      6.265
REMARK  Name = 
REMARK  6 active torsions:
REMARK  status: ('A' for Active; 'I' for Inactive)
REMARK    1  A    between atoms: C_1  and  C_2
REMARK    2  A    between atoms: C_2  and  C_3
REMARK    3  A    between atoms: C_2  and  O_4
REMARK    4  A    between atoms: O_4  and  C_5
REMARK    5  A    between atoms: C_9  and  N_10
REMARK    6  A    between atoms: N_10  and  O_11
REMARK                            x       y       z     vdW  Elec       q    Type
REMARK                         _______ _______ _______ _____ _____    ______ ____
ROOT
ATOM      1  N   UNL     1       5.120   5.437  17.827  0.00  0.00    +0.000 N 
ATOM      2  C   UNL     1       5.570   5.086  16.518  0.00  0.00    +0.000 A 
ATOM      3  C   UNL     1       6.938   5.085  16.242  0.00  0.00    +0.000 A 
ATOM      4  C   UNL     1       7.397   4.714  14.977  0.00  0.00    +0.000 A 
ATOM      5  C   UNL     1       6.477   4.337  14.013  0.00  0.00    +0.000 A 
ATOM      6 BR   UNL     1       7.031   3.822  12.293  0.00  0.00    +0.000 Br
ATOM      7  C   UNL     1       5.135   4.351  14.358  0.00  0.00    +0.000 A 
ATOM      8  N   UNL     1       4.673   4.726  15.572  0.00  0.00    +0.000 NA
ENDROOT
BRANCH   1  13
ATOM      9  C   UNL     1       3.737   4.414  19.668  0.00  0.00    +0.000 C 
ATOM     10  C   UNL     1       2.964   5.550  20.271  0.00  0.00    +0.000 C 
ATOM     11  C   UNL     1       2.372   6.318  19.352  0.00  0.00    +0.000 C 
ATOM     12  C   UNL     1       2.634   5.806  17.969  0.00  0.00    +0.000 C 
ATOM     13  C   UNL     1       3.798   4.809  18.159  0.00  0.00    +0.000 C 
BRANCH   9  14
ATOM     14  O   UNL     1       3.068   3.165  19.888  0.00  0.00    +0.000 OA
BRANCH  14  16
ATOM     15  C   UNL     1       0.763   2.727  19.314  0.00  0.00    +0.000 C 
ATOM     16  C   UNL     1       1.719   3.283  20.371  0.00  0.00    +0.000 C 
ATOM     17  C   UNL     1       1.488   2.525  21.677  0.00  0.00    +0.000 C 
ENDBRANCH  14  16
ENDBRANCH   9  14
ENDBRANCH   1  13
BRANCH   1  18
ATOM     18  O   UNL     1       6.059   5.350  18.879  0.00  0.00    +0.000 OA
ATOM     19  H   UNL     1       5.655   5.896  19.578  0.00  0.00    +0.000 HD
ENDBRANCH   1  18
TORSDOF 4
ENDMDL
MODEL 9
REMARK VINA RESULT:      -6.0      2.686      5.296
REMARK  Name = 
REMARK  6 active torsions:
REMARK  status: ('A' for Active; 'I' for Inactive)
REMARK    1  A    between atoms: C_1  and  C_2
REMARK    2  A    between atoms: C_2  and  C_3
REMARK    3  A    between atoms: C_2  and  O_4
REMARK    4  A    between atoms: O_4  and  C_5
REMARK    5  A    between atoms: C_9  and  N_10
REMARK    6  A    between atoms: N_10  and  O_11
REMARK                            x       y       z     vdW  Elec       q    Type
REMARK                         _______ _______ _______ _____ _____    ______ ____
ROOT
ATOM      1  N   UNL     1       4.024   3.419  17.811  0.00  0.00    +0.000 N 
ATOM      2  C   UNL     1       4.990   4.470  17.775  0.00  0.00    +0.000 A 
ATOM      3  C   UNL     1       5.430   4.952  16.542  0.00  0.00    +0.000 A 
ATOM      4  C   UNL     1       6.351   6.000  16.487  0.00  0.00    +0.000 A 
ATOM      5  C   UNL     1       6.805   6.557  17.672  0.00  0.00    +0.000 A 
ATOM      6 BR   UNL     1       8.039   7.973  17.666  0.00  0.00    +0.000 Br
ATOM      7  C   UNL     1       6.318   6.037  18.860  0.00  0.00    +0.000 A 
ATOM      8  N   UNL     1       5.441   5.009  18.930  0.00  0.00    +0.000 NA
ENDROOT
BRANCH   1  13
ATOM      9  C   UNL     1       2.007   4.434  18.930  0.00  0.00    +0.000 C 
ATOM     10  C   UNL     1       0.864   3.517  18.609  0.00  0.00    +0.000 C 
ATOM     11  C   UNL     1       1.156   2.232  18.823  0.00  0.00    +0.000 C 
ATOM     12  C   UNL     1       2.551   2.074  19.347  0.00  0.00    +0.000 C 
ATOM     13  C   UNL     1       3.206   3.445  19.070  0.00  0.00    +0.000 C 
BRANCH   9  14
ATOM     14  O   UNL     1       1.753   5.171  20.133  0.00  0.00    +0.000 OA
BRANCH  14  16
ATOM     15  C   UNL     1       2.406   6.996  18.693  0.00  0.00    +0.000 C 
ATOM     16  C   UNL     1       2.273   6.512  20.138  0.00  0.00    +0.000 C 
ATOM     17  C   UNL     1       1.380   7.492  20.896  0.00  0.00    +0.000 C 
ENDBRANCH  14  16
ENDBRANCH   9  14
ENDBRANCH   1  13
BRANCH   1  18
ATOM     18  O   UNL     1       3.251   3.210  16.648  0.00  0.00    +0.000 OA
ATOM     19  H   UNL     1       3.849   3.496  15.934  0.00  0.00    +0.000 HD
ENDBRANCH   1  18
TORSDOF 4
ENDMDL
