MODEL 1
REMARK VINA RESULT:      -8.0      0.000      0.000
REMARK  Name = 
REMARK  2 active torsions:
REMARK  status: ('A' for Active; 'I' for Inactive)
REMARK    1  A    between atoms: C_2  and  C_4
REMARK    2  A    between atoms: C_7  and  C_8
REMARK                            x       y       z     vdW  Elec       q    Type
REMARK                         _______ _______ _______ _____ _____    ______ ____
ROOT
ATOM      1  C   UNL     1       6.228   5.250  17.593  0.00  0.00    +0.000 A 
ATOM      2  C   UNL     1       5.944   4.843  16.271  0.00  0.00    +0.000 A 
ATOM      3  C   UNL     1       4.941   3.899  16.013  0.00  0.00    +0.000 A 
ATOM      4  C   UNL     1       4.324   3.295  17.095  0.00  0.00    +0.000 A 
ATOM      5  O   UNL     1       3.017   2.808  17.007  0.00  0.00    +0.000 OA
ATOM      6  C   UNL     1       2.524   2.456  18.266  0.00  0.00    +0.000 A 
ATOM      7  N   UNL     1       1.281   2.966  18.616  0.00  0.00    +0.000 N 
ATOM      8  C   UNL     1       1.015   4.396  18.299  0.00  0.00    +0.000 C 
ATOM      9  C   UNL     1       1.678   5.335  19.336  0.00  0.00    +0.000 C 
ATOM     10  O   UNL     1       1.265   5.033  20.676  0.00  0.00    +0.000 OA
ATOM     11  C   UNL     1       1.586   3.672  21.007  0.00  0.00    +0.000 C 
ATOM     12  C   UNL     1       0.879   2.696  20.038  0.00  0.00    +0.000 C 
ATOM     13  N   UNL     1       3.246   1.871  19.168  0.00  0.00    +0.000 NA
ATOM     14  C   UNL     1       4.480   2.418  19.328  0.00  0.00    +0.000 A 
ATOM     15  O   UNL     1       5.180   2.240  20.316  0.00  0.00    +0.000 OA
ATOM     16  C   UNL     1       4.892   3.413  18.345  0.00  0.00    +0.000 A 
ATOM     17  C   UNL     1       5.732   4.470  18.639  0.00  0.00    +0.000 A 
ENDROOT
BRANCH   1  21
ATOM     18  C   UNL     1       8.409   8.847  18.428  0.00  0.00    +0.000 A 
ATOM     19  C   UNL     1       7.434   8.842  17.435  0.00  0.00    +0.000 A 
ATOM     20  C   UNL     1       6.710   7.662  17.183  0.00  0.00    +0.000 A 
ATOM     21  C   UNL     1       6.978   6.475  17.893  0.00  0.00    +0.000 A 
ATOM     22  C   UNL     1       7.975   6.498  18.874  0.00  0.00    +0.000 A 
ATOM     23  C   UNL     1       8.688   7.668  19.137  0.00  0.00    +0.000 A 
BRANCH  18  25
ATOM     24  N   UNL     1       9.452  10.330  20.059  0.00  0.00    +0.000 N 
ATOM     25  C   UNL     1       9.203  10.066  18.741  0.00  0.00    +0.000 C 
ATOM     26  O   UNL     1       9.647  10.791  17.862  0.00  0.00    +0.000 OA
ATOM     27  H   UNL     1      10.078  11.105  20.243  0.00  0.00    +0.000 HD
ATOM     28  H   UNL     1       9.329   9.644  20.788  0.00  0.00    +0.000 HD
ENDBRANCH  18  25
ENDBRANCH   1  21
TORSDOF 2
ENDMDL
MODEL 2
REMARK VINA RESULT:      -7.0      6.152      8.681
REMARK  Name = 
REMARK  2 active torsions:
REMARK  status: ('A' for Active; 'I' for Inactive)
REMARK    1  A    between atoms: C_2  and  C_4
REMARK    2  A    between atoms: C_7  and  C_8
REMARK                            x       y       z     vdW  Elec       q    Type
REMARK                         _______ _______ _______ _____ _____    ______ ____
ROOT
ATOM      1  C   UNL     1       1.080   9.034  18.860  0.00  0.00    +0.000 A 
ATOM      2  C   UNL     1       0.101   9.257  17.868  0.00  0.00    +0.000 A 
ATOM      3  C   UNL     1      -0.647  10.442  17.854  0.00  0.00    +0.000 A 
ATOM      4  C   UNL     1      -0.479  11.327  18.904  0.00  0.00    +0.000 A 
ATOM      5  O   UNL     1      -0.704  12.697  18.742  0.00  0.00    +0.000 OA
ATOM      6  C   UNL     1      -0.255  13.416  19.852  0.00  0.00    +0.000 A 
ATOM      7  N   UNL     1       0.570  14.505  19.602  0.00  0.00    +0.000 N 
ATOM      8  C   UNL     1       1.646  14.326  18.588  0.00  0.00    +0.000 C 
ATOM      9  C   UNL     1       2.855  13.561  19.179  0.00  0.00    +0.000 C 
ATOM     10  O   UNL     1       3.373  14.201  20.354  0.00  0.00    +0.000 OA
ATOM     11  C   UNL     1       2.353  14.309  21.360  0.00  0.00    +0.000 C 
ATOM     12  C   UNL     1       1.156  15.134  20.833  0.00  0.00    +0.000 C 
ATOM     13  N   UNL     1      -0.400  12.998  21.070  0.00  0.00    +0.000 NA
ATOM     14  C   UNL     1      -0.075  11.690  21.247  0.00  0.00    +0.000 A 
ATOM     15  O   UNL     1       0.169  11.191  22.336  0.00  0.00    +0.000 OA
ATOM     16  C   UNL     1       0.171  10.905  20.043  0.00  0.00    +0.000 A 
ATOM     17  C   UNL     1       1.061   9.849  19.994  0.00  0.00    +0.000 A 
ENDROOT
BRANCH   1  21
ATOM     18  C   UNL     1       4.148   6.075  18.387  0.00  0.00    +0.000 A 
ATOM     19  C   UNL     1       4.013   7.090  17.445  0.00  0.00    +0.000 A 
ATOM     20  C   UNL     1       3.016   8.068  17.620  0.00  0.00    +0.000 A 
ATOM     21  C   UNL     1       2.129   8.018  18.714  0.00  0.00    +0.000 A 
ATOM     22  C   UNL     1       2.272   6.979  19.639  0.00  0.00    +0.000 A 
ATOM     23  C   UNL     1       3.267   6.013  19.477  0.00  0.00    +0.000 A 
BRANCH  18  25
ATOM     24  N   UNL     1       6.099   4.905  19.268  0.00  0.00    +0.000 N 
ATOM     25  C   UNL     1       5.186   5.017  18.256  0.00  0.00    +0.000 C 
ATOM     26  O   UNL     1       5.213   4.252  17.301  0.00  0.00    +0.000 OA
ATOM     27  H   UNL     1       6.731   4.116  19.207  0.00  0.00    +0.000 HD
ATOM     28  H   UNL     1       5.968   5.332  20.172  0.00  0.00    +0.000 HD
ENDBRANCH  18  25
ENDBRANCH   1  21
TORSDOF 2
ENDMDL
MODEL 3
REMARK VINA RESULT:      -7.0      7.038     10.420
REMARK  Name = 
REMARK  2 active torsions:
REMARK  status: ('A' for Active; 'I' for Inactive)
REMARK    1  A    between atoms: C_2  and  C_4
REMARK    2  A    between atoms: C_7  and  C_8
REMARK                            x       y       z     vdW  Elec       q    Type
REMARK                         _______ _______ _______ _____ _____    ______ ____
ROOT
ATOM      1  C   UNL     1       0.511  11.092  19.497  0.00  0.00    +0.000 A 
ATOM      2  C   UNL     1      -0.491  11.458  18.571  0.00  0.00    +0.000 A 
ATOM      3  C   UNL     1      -0.757  12.808  18.302  0.00  0.00    +0.000 A 
ATOM      4  C   UNL     1      -0.095  13.762  19.055  0.00  0.00    +0.000 A 
ATOM      5  O   UNL     1       0.156  15.041  18.548  0.00  0.00    +0.000 OA
ATOM      6  C   UNL     1       1.028  15.749  19.378  0.00  0.00    +0.000 A 
ATOM      7  N   UNL     1       2.125  16.346  18.771  0.00  0.00    +0.000 N 
ATOM      8  C   UNL     1       2.860  15.546  17.753  0.00  0.00    +0.000 C 
ATOM      9  C   UNL     1       3.805  14.517  18.421  0.00  0.00    +0.000 C 
ATOM     10  O   UNL     1       4.724  15.142  19.328  0.00  0.00    +0.000 OA
ATOM     11  C   UNL     1       4.013  15.856  20.353  0.00  0.00    +0.000 C 
ATOM     12  C   UNL     1       3.113  16.947  19.729  0.00  0.00    +0.000 C 
ATOM     13  N   UNL     1       0.971  15.696  20.671  0.00  0.00    +0.000 NA
ATOM     14  C   UNL     1       0.836  14.437  21.167  0.00  0.00    +0.000 A 
ATOM     15  O   UNL     1       1.083  14.132  22.325  0.00  0.00    +0.000 OA
ATOM     16  C   UNL     1       0.561  13.377  20.204  0.00  0.00    +0.000 A 
ATOM     17  C   UNL     1       0.991  12.074  20.365  0.00  0.00    +0.000 A 
ENDROOT
BRANCH   1  21
ATOM     18  C   UNL     1       2.181   7.143  19.576  0.00  0.00    +0.000 A 
ATOM     19  C   UNL     1       2.208   7.884  18.398  0.00  0.00    +0.000 A 
ATOM     20  C   UNL     1       1.676   9.186  18.388  0.00  0.00    +0.000 A 
ATOM     21  C   UNL     1       1.083   9.742  19.540  0.00  0.00    +0.000 A 
ATOM     22  C   UNL     1       1.051   8.972  20.707  0.00  0.00    +0.000 A 
ATOM     23  C   UNL     1       1.588   7.684  20.727  0.00  0.00    +0.000 A 
BRANCH  18  25
ATOM     24  N   UNL     1       2.583   5.088  20.827  0.00  0.00    +0.000 N 
ATOM     25  C   UNL     1       2.732   5.762  19.647  0.00  0.00    +0.000 C 
ATOM     26  O   UNL     1       3.271   5.231  18.685  0.00  0.00    +0.000 OA
ATOM     27  H   UNL     1       2.874   4.118  20.820  0.00  0.00    +0.000 HD
ATOM     28  H   UNL     1       1.939   5.379  21.546  0.00  0.00    +0.000 HD
ENDBRANCH  18  25
ENDBRANCH   1  21
TORSDOF 2
ENDMDL
MODEL 4
REMARK VINA RESULT:      -7.0      6.954      9.407
REMARK  Name = 
REMARK  2 active torsions:
REMARK  status: ('A' for Active; 'I' for Inactive)
REMARK    1  A    between atoms: C_2  and  C_4
REMARK    2  A    between atoms: C_7  and  C_8
REMARK                            x       y       z     vdW  Elec       q    Type
REMARK                         _______ _______ _______ _____ _____    ______ ____
ROOT
ATOM      1  C   UNL     1       1.113  10.248  18.784  0.00  0.00    +0.000 A 
ATOM      2  C   UNL     1       1.926  11.347  18.433  0.00  0.00    +0.000 A 
ATOM      3  C   UNL     1       1.469  12.660  18.612  0.00  0.00    +0.000 A 
ATOM      4  C   UNL     1       0.161  12.841  19.026  0.00  0.00    +0.000 A 
ATOM      5  O   UNL     1      -0.222  13.977  19.745  0.00  0.00    +0.000 OA
ATOM      6  C   UNL     1      -1.516  13.840  20.252  0.00  0.00    +0.000 A 
ATOM      7  N   UNL     1      -1.693  14.110  21.602  0.00  0.00    +0.000 N 
ATOM      8  C   UNL     1      -0.670  13.576  22.544  0.00  0.00    +0.000 C 
ATOM      9  C   UNL     1      -0.900  12.072  22.829  0.00  0.00    +0.000 C 
ATOM     10  O   UNL     1      -2.223  11.815  23.323  0.00  0.00    +0.000 OA
ATOM     11  C   UNL     1      -3.209  12.266  22.381  0.00  0.00    +0.000 C 
ATOM     12  C   UNL     1      -3.061  13.784  22.127  0.00  0.00    +0.000 C 
ATOM     13  N   UNL     1      -2.480  13.286  19.586  0.00  0.00    +0.000 NA
ATOM     14  C   UNL     1      -2.133  12.122  18.977  0.00  0.00    +0.000 A 
ATOM     15  O   UNL     1      -2.941  11.292  18.583  0.00  0.00    +0.000 OA
ATOM     16  C   UNL     1      -0.715  11.779  18.971  0.00  0.00    +0.000 A 
ATOM     17  C   UNL     1      -0.247  10.480  18.994  0.00  0.00    +0.000 A 
ENDROOT
BRANCH   1  21
ATOM     18  C   UNL     1       2.702   6.310  19.389  0.00  0.00    +0.000 A 
ATOM     19  C   UNL     1       2.013   6.946  20.418  0.00  0.00    +0.000 A 
ATOM     20  C   UNL     1       1.478   8.229  20.202  0.00  0.00    +0.000 A 
ATOM     21  C   UNL     1       1.657   8.898  18.975  0.00  0.00    +0.000 A 
ATOM     22  C   UNL     1       2.368   8.248  17.961  0.00  0.00    +0.000 A 
ATOM     23  C   UNL     1       2.891   6.970  18.165  0.00  0.00    +0.000 A 
BRANCH  18  25
ATOM     24  N   UNL     1       4.603   4.791  19.229  0.00  0.00    +0.000 N 
ATOM     25  C   UNL     1       3.286   4.952  19.558  0.00  0.00    +0.000 C 
ATOM     26  O   UNL     1       2.632   4.018  20.003  0.00  0.00    +0.000 OA
ATOM     27  H   UNL     1       5.005   3.887  19.447  0.00  0.00    +0.000 HD
ATOM     28  H   UNL     1       5.235   5.567  19.104  0.00  0.00    +0.000 HD
ENDBRANCH  18  25
ENDBRANCH   1  21
TORSDOF 2
ENDMDL
MODEL 5
REMARK VINA RESULT:      -6.9      6.861      9.648
REMARK  Name = 
REMARK  2 active torsions:
REMARK  status: ('A' for Active; 'I' for Inactive)
REMARK    1  A    between atoms: C_2  and  C_4
REMARK    2  A    between atoms: C_7  and  C_8
REMARK                            x       y       z     vdW  Elec       q    Type
REMARK                         _______ _______ _______ _____ _____    ______ ____
ROOT
ATOM      1  C   UNL     1       0.442  10.023  19.246  0.00  0.00    +0.000 A 
ATOM      2  C   UNL     1      -0.515  10.379  18.272  0.00  0.00    +0.000 A 
ATOM      3  C   UNL     1      -1.120  11.644  18.294  0.00  0.00    +0.000 A 
ATOM      4  C   UNL     1      -0.839  12.479  19.360  0.00  0.00    +0.000 A 
ATOM      5  O   UNL     1      -0.905  13.870  19.230  0.00  0.00    +0.000 OA
ATOM      6  C   UNL     1      -0.363  14.507  20.349  0.00  0.00    +0.000 A 
ATOM      7  N   UNL     1       0.581  15.497  20.111  0.00  0.00    +0.000 N 
ATOM      8  C   UNL     1       1.618  15.218  19.078  0.00  0.00    +0.000 C 
ATOM      9  C   UNL     1       2.736  14.304  19.637  0.00  0.00    +0.000 C 
ATOM     10  O   UNL     1       3.338  14.853  20.818  0.00  0.00    +0.000 OA
ATOM     11  C   UNL     1       2.348  15.056  21.840  0.00  0.00    +0.000 C 
ATOM     12  C   UNL     1       1.250  16.026  21.347  0.00  0.00    +0.000 C 
ATOM     13  N   UNL     1      -0.542  14.080  21.559  0.00  0.00    +0.000 NA
ATOM     14  C   UNL     1      -0.370  12.740  21.704  0.00  0.00    +0.000 A 
ATOM     15  O   UNL     1      -0.173  12.191  22.780  0.00  0.00    +0.000 OA
ATOM     16  C   UNL     1      -0.229  11.958  20.481  0.00  0.00    +0.000 A 
ATOM     17  C   UNL     1       0.530  10.808  20.397  0.00  0.00    +0.000 A 
ENDROOT
BRANCH   1  21
ATOM     18  C   UNL     1       3.137   6.721  18.763  0.00  0.00    +0.000 A 
ATOM     19  C   UNL     1       2.405   6.852  19.939  0.00  0.00    +0.000 A 
ATOM     20  C   UNL     1       1.508   7.927  20.079  0.00  0.00    +0.000 A 
ATOM     21  C   UNL     1       1.364   8.895  19.065  0.00  0.00    +0.000 A 
ATOM     22  C   UNL     1       2.123   8.754  17.899  0.00  0.00    +0.000 A 
ATOM     23  C   UNL     1       3.006   7.682  17.748  0.00  0.00    +0.000 A 
BRANCH  18  25
ATOM     24  N   UNL     1       3.864   4.763  17.503  0.00  0.00    +0.000 N 
ATOM     25  C   UNL     1       4.097   5.603  18.557  0.00  0.00    +0.000 C 
ATOM     26  O   UNL     1       5.075   5.450  19.276  0.00  0.00    +0.000 OA
ATOM     27  H   UNL     1       4.583   4.073  17.322  0.00  0.00    +0.000 HD
ATOM     28  H   UNL     1       3.234   4.992  16.750  0.00  0.00    +0.000 HD
ENDBRANCH  18  25
ENDBRANCH   1  21
TORSDOF 2
ENDMDL
MODEL 6
REMARK VINA RESULT:      -6.9      7.694     10.092
REMARK  Name = 
REMARK  2 active torsions:
REMARK  status: ('A' for Active; 'I' for Inactive)
REMARK    1  A    between atoms: C_2  and  C_4
REMARK    2  A    between atoms: C_7  and  C_8
REMARK                            x       y       z     vdW  Elec       q    Type
REMARK                         _______ _______ _______ _____ _____    ______ ____
ROOT
ATOM      1  C   UNL     1       0.334  11.061  19.037  0.00  0.00    +0.000 A 
ATOM      2  C   UNL     1       1.015  12.250  18.698  0.00  0.00    +0.000 A 
ATOM      3  C   UNL     1       0.448  13.502  18.971  0.00  0.00    +0.000 A 
ATOM      4  C   UNL     1      -0.843  13.535  19.471  0.00  0.00    +0.000 A 
ATOM      5  O   UNL     1      -1.285  14.593  20.269  0.00  0.00    +0.000 OA
ATOM      6  C   UNL     1      -2.526  14.306  20.843  0.00  0.00    +0.000 A 
ATOM      7  N   UNL     1      -2.641  14.495  22.215  0.00  0.00    +0.000 N 
ATOM      8  C   UNL     1      -1.515  14.020  23.065  0.00  0.00    +0.000 C 
ATOM      9  C   UNL     1      -1.583  12.489  23.284  0.00  0.00    +0.000 C 
ATOM     10  O   UNL     1      -2.841  12.080  23.840  0.00  0.00    +0.000 OA
ATOM     11  C   UNL     1      -3.923  12.477  22.982  0.00  0.00    +0.000 C 
ATOM     12  C   UNL     1      -3.937  14.012  22.800  0.00  0.00    +0.000 C 
ATOM     13  N   UNL     1      -3.473  13.693  20.207  0.00  0.00    +0.000 NA
ATOM     14  C   UNL     1      -3.056  12.598  19.518  0.00  0.00    +0.000 A 
ATOM     15  O   UNL     1      -3.806  11.713  19.129  0.00  0.00    +0.000 OA
ATOM     16  C   UNL     1      -1.616  12.396  19.411  0.00  0.00    +0.000 A 
ATOM     17  C   UNL     1      -1.026  11.149  19.339  0.00  0.00    +0.000 A 
ENDROOT
BRANCH   1  21
ATOM     18  C   UNL     1       2.326   7.276  19.340  0.00  0.00    +0.000 A 
ATOM     19  C   UNL     1       1.710   7.826  20.459  0.00  0.00    +0.000 A 
ATOM     20  C   UNL     1       1.042   9.059  20.345  0.00  0.00    +0.000 A 
ATOM     21  C   UNL     1       1.015   9.764  19.125  0.00  0.00    +0.000 A 
ATOM     22  C   UNL     1       1.656   9.201  18.017  0.00  0.00    +0.000 A 
ATOM     23  C   UNL     1       2.311   7.972  18.121  0.00  0.00    +0.000 A 
BRANCH  18  25
ATOM     24  N   UNL     1       2.825   5.188  20.498  0.00  0.00    +0.000 N 
ATOM     25  C   UNL     1       3.045   5.974  19.401  0.00  0.00    +0.000 C 
ATOM     26  O   UNL     1       3.779   5.598  18.497  0.00  0.00    +0.000 OA
ATOM     27  H   UNL     1       3.243   4.266  20.471  0.00  0.00    +0.000 HD
ATOM     28  H   UNL     1       2.054   5.334  21.131  0.00  0.00    +0.000 HD
ENDBRANCH  18  25
ENDBRANCH   1  21
TORSDOF 2
ENDMDL
MODEL 7
REMARK VINA RESULT:      -6.7      4.043      6.496
REMARK  Name = 
REMARK  2 active torsions:
REMARK  status: ('A' for Active; 'I' for Inactive)
REMARK    1  A    between atoms: C_2  and  C_4
REMARK    2  A    between atoms: C_7  and  C_8
REMARK                            x       y       z     vdW  Elec       q    Type
REMARK                         _______ _______ _______ _____ _____    ______ ____
ROOT
ATOM      1  C   UNL     1       2.250   6.943  19.199  0.00  0.00    +0.000 A 
ATOM      2  C   UNL     1       2.356   6.260  20.429  0.00  0.00    +0.000 A 
ATOM      3  C   UNL     1       3.250   5.191  20.579  0.00  0.00    +0.000 A 
ATOM      4  C   UNL     1       3.933   4.755  19.458  0.00  0.00    +0.000 A 
ATOM      5  O   UNL     1       5.182   4.135  19.564  0.00  0.00    +0.000 OA
ATOM      6  C   UNL     1       5.781   3.991  18.311  0.00  0.00    +0.000 A 
ATOM      7  N   UNL     1       7.091   4.437  18.187  0.00  0.00    +0.000 N 
ATOM      8  C   UNL     1       7.428   5.745  18.814  0.00  0.00    +0.000 C 
ATOM      9  C   UNL     1       6.956   6.928  17.935  0.00  0.00    +0.000 C 
ATOM     10  O   UNL     1       7.489   6.856  16.605  0.00  0.00    +0.000 OA
ATOM     11  C   UNL     1       7.103   5.624  15.974  0.00  0.00    +0.000 C 
ATOM     12  C   UNL     1       7.623   4.414  16.783  0.00  0.00    +0.000 C 
ATOM     13  N   UNL     1       5.119   3.667  17.245  0.00  0.00    +0.000 NA
ATOM     14  C   UNL     1       3.955   4.351  17.088  0.00  0.00    +0.000 A 
ATOM     15  O   UNL     1       3.356   4.439  16.025  0.00  0.00    +0.000 OA
ATOM     16  C   UNL     1       3.516   5.169  18.212  0.00  0.00    +0.000 A 
ATOM     17  C   UNL     1       2.796   6.339  18.065  0.00  0.00    +0.000 A 
ENDROOT
BRANCH   1  21
ATOM     18  C   UNL     1       0.422  10.812  18.915  0.00  0.00    +0.000 A 
ATOM     19  C   UNL     1       0.455  10.150  20.139  0.00  0.00    +0.000 A 
ATOM     20  C   UNL     1       1.076   8.890  20.225  0.00  0.00    +0.000 A 
ATOM     21  C   UNL     1       1.633   8.270  19.088  0.00  0.00    +0.000 A 
ATOM     22  C   UNL     1       1.571   8.947  17.866  0.00  0.00    +0.000 A 
ATOM     23  C   UNL     1       0.968  10.202  17.776  0.00  0.00    +0.000 A 
BRANCH  18  25
ATOM     24  N   UNL     1      -0.917  12.381  17.614  0.00  0.00    +0.000 N 
ATOM     25  C   UNL     1      -0.217  12.148  18.765  0.00  0.00    +0.000 C 
ATOM     26  O   UNL     1      -0.152  12.998  19.642  0.00  0.00    +0.000 OA
ATOM     27  H   UNL     1      -1.427  13.256  17.578  0.00  0.00    +0.000 HD
ATOM     28  H   UNL     1      -1.208  11.644  16.991  0.00  0.00    +0.000 HD
ENDBRANCH  18  25
ENDBRANCH   1  21
TORSDOF 2
ENDMDL
MODEL 8
REMARK VINA RESULT:      -6.7      3.867      6.292
REMARK  Name = 
REMARK  2 active torsions:
REMARK  status: ('A' for Active; 'I' for Inactive)
REMARK    1  A    between atoms: C_2  and  C_4
REMARK    2  A    between atoms: C_7  and  C_8
REMARK                            x       y       z     vdW  Elec       q    Type
REMARK                         _______ _______ _______ _____ _____    ______ ____
ROOT
ATOM      1  C   UNL     1       1.873   6.512  20.139  0.00  0.00    +0.000 A 
ATOM      2  C   UNL     1       2.299   5.703  21.214  0.00  0.00    +0.000 A 
ATOM      3  C   UNL     1       3.068   4.554  20.984  0.00  0.00    +0.000 A 
ATOM      4  C   UNL     1       3.293   4.176  19.672  0.00  0.00    +0.000 A 
ATOM      5  O   UNL     1       4.430   3.447  19.312  0.00  0.00    +0.000 OA
ATOM      6  C   UNL     1       4.565   3.379  17.923  0.00  0.00    +0.000 A 
ATOM      7  N   UNL     1       5.803   3.724  17.396  0.00  0.00    +0.000 N 
ATOM      8  C   UNL     1       6.471   4.931  17.957  0.00  0.00    +0.000 C 
ATOM      9  C   UNL     1       5.872   6.231  17.368  0.00  0.00    +0.000 C 
ATOM     10  O   UNL     1       5.928   6.247  15.935  0.00  0.00    +0.000 OA
ATOM     11  C   UNL     1       5.221   5.120  15.391  0.00  0.00    +0.000 C 
ATOM     12  C   UNL     1       5.840   3.796  15.896  0.00  0.00    +0.000 C 
ATOM     13  N   UNL     1       3.559   3.218  17.123  0.00  0.00    +0.000 NA
ATOM     14  C   UNL     1       2.492   4.009  17.411  0.00  0.00    +0.000 A 
ATOM     15  O   UNL     1       1.591   4.251  16.620  0.00  0.00    +0.000 OA
ATOM     16  C   UNL     1       2.539   4.745  18.670  0.00  0.00    +0.000 A 
ATOM     17  C   UNL     1       1.946   5.980  18.850  0.00  0.00    +0.000 A 
ENDROOT
BRANCH   1  21
ATOM     18  C   UNL     1       0.530  10.551  20.658  0.00  0.00    +0.000 A 
ATOM     19  C   UNL     1       0.983  10.126  19.413  0.00  0.00    +0.000 A 
ATOM     20  C   UNL     1       1.402   8.793  19.248  0.00  0.00    +0.000 A 
ATOM     21  C   UNL     1       1.405   7.889  20.330  0.00  0.00    +0.000 A 
ATOM     22  C   UNL     1       0.964   8.344  21.576  0.00  0.00    +0.000 A 
ATOM     23  C   UNL     1       0.535   9.662  21.744  0.00  0.00    +0.000 A 
BRANCH  18  25
ATOM     24  N   UNL     1      -0.635  12.550  19.887  0.00  0.00    +0.000 N 
ATOM     25  C   UNL     1       0.072  11.948  20.890  0.00  0.00    +0.000 C 
ATOM     26  O   UNL     1       0.286  12.532  21.943  0.00  0.00    +0.000 OA
ATOM     27  H   UNL     1      -1.023  13.460  20.105  0.00  0.00    +0.000 HD
ATOM     28  H   UNL     1      -1.046  12.037  19.122  0.00  0.00    +0.000 HD
ENDBRANCH  18  25
ENDBRANCH   1  21
TORSDOF 2
ENDMDL
MODEL 9
REMARK VINA RESULT:      -6.7      6.195      9.086
REMARK  Name = 
REMARK  2 active torsions:
REMARK  status: ('A' for Active; 'I' for Inactive)
REMARK    1  A    between atoms: C_2  and  C_4
REMARK    2  A    between atoms: C_7  and  C_8
REMARK                            x       y       z     vdW  Elec       q    Type
REMARK                         _______ _______ _______ _____ _____    ______ ____
ROOT
ATOM      1  C   UNL     1       1.082   8.557  21.054  0.00  0.00    +0.000 A 
ATOM      2  C   UNL     1       0.199   8.342  22.134  0.00  0.00    +0.000 A 
ATOM      3  C   UNL     1      -0.554   9.398  22.663  0.00  0.00    +0.000 A 
ATOM      4  C   UNL     1      -0.317  10.672  22.177  0.00  0.00    +0.000 A 
ATOM      5  O   UNL     1      -1.313  11.652  22.193  0.00  0.00    +0.000 OA
ATOM      6  C   UNL     1      -0.930  12.772  21.451  0.00  0.00    +0.000 A 
ATOM      7  N   UNL     1      -1.836  13.239  20.508  0.00  0.00    +0.000 N 
ATOM      8  C   UNL     1      -2.524  12.225  19.662  0.00  0.00    +0.000 C 
ATOM      9  C   UNL     1      -1.606  11.732  18.517  0.00  0.00    +0.000 C 
ATOM     10  O   UNL     1      -1.124  12.816  17.710  0.00  0.00    +0.000 OA
ATOM     11  C   UNL     1      -0.398  13.759  18.516  0.00  0.00    +0.000 C 
ATOM     12  C   UNL     1      -1.305  14.334  19.628  0.00  0.00    +0.000 C 
ATOM     13  N   UNL     1       0.276  13.245  21.459  0.00  0.00    +0.000 NA
ATOM     14  C   UNL     1       1.242  12.296  21.333  0.00  0.00    +0.000 A 
ATOM     15  O   UNL     1       2.393  12.538  20.998  0.00  0.00    +0.000 OA
ATOM     16  C   UNL     1       0.814  10.905  21.426  0.00  0.00    +0.000 A 
ATOM     17  C   UNL     1       1.433   9.873  20.747  0.00  0.00    +0.000 A 
ENDROOT
BRANCH   1  21
ATOM     18  C   UNL     1       2.585   5.372  18.607  0.00  0.00    +0.000 A 
ATOM     19  C   UNL     1       2.648   6.686  18.151  0.00  0.00    +0.000 A 
ATOM     20  C   UNL     1       2.171   7.725  18.970  0.00  0.00    +0.000 A 
ATOM     21  C   UNL     1       1.598   7.458  20.230  0.00  0.00    +0.000 A 
ATOM     22  C   UNL     1       1.529   6.129  20.660  0.00  0.00    +0.000 A 
ATOM     23  C   UNL     1       2.011   5.094  19.857  0.00  0.00    +0.000 A 
BRANCH  18  25
ATOM     24  N   UNL     1       4.420   3.972  17.817  0.00  0.00    +0.000 N 
ATOM     25  C   UNL     1       3.078   4.233  17.786  0.00  0.00    +0.000 C 
ATOM     26  O   UNL     1       2.319   3.533  17.130  0.00  0.00    +0.000 OA
ATOM     27  H   UNL     1       4.718   3.134  17.333  0.00  0.00    +0.000 HD
ATOM     28  H   UNL     1       5.035   4.350  18.522  0.00  0.00    +0.000 HD
ENDBRANCH  18  25
ENDBRANCH   1  21
TORSDOF 2
ENDMDL
