MODEL 1
REMARK VINA RESULT:      -9.1      0.000      0.000
REMARK  Name = 
REMARK  5 active torsions:
REMARK  status: ('A' for Active; 'I' for Inactive)
REMARK    1  A    between atoms: C_1  and  O_2
REMARK    2  A    between atoms: O_2  and  C_3
REMARK    3  A    between atoms: C_6  and  C_7
REMARK    4  A    between atoms: C_7  and  N_8
REMARK    5  A    between atoms: N_17  and  C_18
REMARK                            x       y       z     vdW  Elec       q    Type
REMARK                         _______ _______ _______ _____ _____    ______ ____
ROOT
ATOM      1  N   UNL     1       3.987   3.584  17.729  0.00  0.00    +0.000 NA
ATOM      2  C   UNL     1       2.610   4.092  17.536  0.00  0.00    +0.000 C 
ATOM      3  C   UNL     1       1.869   4.534  18.833  0.00  0.00    +0.000 C 
ATOM      4  C   UNL     1       1.588   3.357  19.793  0.00  0.00    +0.000 C 
ATOM      5  C   UNL     1       2.722   2.926  20.717  0.00  0.00    +0.000 C 
ATOM      6  C   UNL     1       4.052   2.780  20.017  0.00  0.00    +0.000 C 
ATOM      7  O   UNL     1       4.755   1.784  20.209  0.00  0.00    +0.000 OA
ATOM      8  C   UNL     1       4.502   3.906  19.084  0.00  0.00    +0.000 C 
ATOM      9  C   UNL     1       4.100   5.272  19.698  0.00  0.00    +0.000 C 
ATOM     10  N   UNL     1       2.665   5.586  19.507  0.00  0.00    +0.000 N 
ENDROOT
BRANCH  10  11
ATOM     11  C   UNL     1       2.265   6.915  19.328  0.00  0.00    +0.000 A 
ATOM     12  C   UNL     1       1.649   7.674  20.333  0.00  0.00    +0.000 A 
ATOM     13  C   UNL     1       1.201   8.983  20.111  0.00  0.00    +0.000 A 
ATOM     14  C   UNL     1       1.375   9.572  18.867  0.00  0.00    +0.000 A 
ATOM     15  C   UNL     1       2.011   8.858  17.856  0.00  0.00    +0.000 A 
ATOM     16  C   UNL     1       2.453   7.548  18.089  0.00  0.00    +0.000 A 
ENDBRANCH  10  11
BRANCH   1  17
ATOM     17  C   UNL     1       4.898   4.048  16.669  0.00  0.00    +0.000 C 
BRANCH  17  21
ATOM     18  C   UNL     1       7.724   7.018  18.116  0.00  0.00    +0.000 A 
ATOM     19  C   UNL     1       6.669   7.386  17.273  0.00  0.00    +0.000 A 
ATOM     20  C   UNL     1       5.768   6.431  16.791  0.00  0.00    +0.000 A 
ATOM     21  C   UNL     1       5.917   5.076  17.128  0.00  0.00    +0.000 A 
ATOM     22  C   UNL     1       6.990   4.715  17.956  0.00  0.00    +0.000 A 
ATOM     23  C   UNL     1       7.888   5.674  18.447  0.00  0.00    +0.000 A 
BRANCH  18  25
ATOM     24  C   UNL     1       8.204   9.339  18.021  0.00  0.00    +0.000 C 
ATOM     25  O   UNL     1       8.550   8.043  18.494  0.00  0.00    +0.000 OA
ENDBRANCH  18  25
ENDBRANCH  17  21
ENDBRANCH   1  17
TORSDOF 4
ENDMDL
MODEL 2
REMARK VINA RESULT:      -9.0      0.181      1.367
REMARK  Name = 
REMARK  5 active torsions:
REMARK  status: ('A' for Active; 'I' for Inactive)
REMARK    1  A    between atoms: C_1  and  O_2
REMARK    2  A    between atoms: O_2  and  C_3
REMARK    3  A    between atoms: C_6  and  C_7
REMARK    4  A    between atoms: C_7  and  N_8
REMARK    5  A    between atoms: N_17  and  C_18
REMARK                            x       y       z     vdW  Elec       q    Type
REMARK                         _______ _______ _______ _____ _____    ______ ____
ROOT
ATOM      1  N   UNL     1       4.088   3.448  17.798  0.00  0.00    +0.000 NA
ATOM      2  C   UNL     1       2.710   3.919  17.537  0.00  0.00    +0.000 C 
ATOM      3  C   UNL     1       1.895   4.343  18.795  0.00  0.00    +0.000 C 
ATOM      4  C   UNL     1       1.597   3.159  19.742  0.00  0.00    +0.000 C 
ATOM      5  C   UNL     1       2.695   2.758  20.721  0.00  0.00    +0.000 C 
ATOM      6  C   UNL     1       4.061   2.646  20.088  0.00  0.00    +0.000 C 
ATOM      7  O   UNL     1       4.780   1.670  20.316  0.00  0.00    +0.000 OA
ATOM      8  C   UNL     1       4.528   3.784  19.177  0.00  0.00    +0.000 C 
ATOM      9  C   UNL     1       4.060   5.139  19.768  0.00  0.00    +0.000 C 
ATOM     10  N   UNL     1       2.629   5.415  19.506  0.00  0.00    +0.000 N 
ENDROOT
BRANCH  10  11
ATOM     11  C   UNL     1       2.204   6.733  19.305  0.00  0.00    +0.000 A 
ATOM     12  C   UNL     1       2.331   7.404  18.081  0.00  0.00    +0.000 A 
ATOM     13  C   UNL     1       1.954   8.745  17.921  0.00  0.00    +0.000 A 
ATOM     14  C   UNL     1       1.422   9.446  18.994  0.00  0.00    +0.000 A 
ATOM     15  C   UNL     1       1.253   8.801  20.215  0.00  0.00    +0.000 A 
ATOM     16  C   UNL     1       1.636   7.461  20.363  0.00  0.00    +0.000 A 
ENDBRANCH  10  11
BRANCH   1  17
ATOM     17  C   UNL     1       5.038   3.935  16.784  0.00  0.00    +0.000 C 
BRANCH  17  21
ATOM     18  C   UNL     1       7.655   7.192  17.987  0.00  0.00    +0.000 A 
ATOM     19  C   UNL     1       7.937   5.874  18.360  0.00  0.00    +0.000 A 
ATOM     20  C   UNL     1       7.089   4.825  17.991  0.00  0.00    +0.000 A 
ATOM     21  C   UNL     1       5.922   5.078  17.253  0.00  0.00    +0.000 A 
ATOM     22  C   UNL     1       5.636   6.406  16.903  0.00  0.00    +0.000 A 
ATOM     23  C   UNL     1       6.492   7.457  17.265  0.00  0.00    +0.000 A 
BRANCH  18  25
ATOM     24  C   UNL     1       8.304   9.473  18.047  0.00  0.00    +0.000 C 
ATOM     25  O   UNL     1       8.548   8.127  18.437  0.00  0.00    +0.000 OA
ENDBRANCH  18  25
ENDBRANCH  17  21
ENDBRANCH   1  17
TORSDOF 4
ENDMDL
MODEL 3
REMARK VINA RESULT:      -8.9      0.921      1.411
REMARK  Name = 
REMARK  5 active torsions:
REMARK  status: ('A' for Active; 'I' for Inactive)
REMARK    1  A    between atoms: C_1  and  O_2
REMARK    2  A    between atoms: O_2  and  C_3
REMARK    3  A    between atoms: C_6  and  C_7
REMARK    4  A    between atoms: C_7  and  N_8
REMARK    5  A    between atoms: N_17  and  C_18
REMARK                            x       y       z     vdW  Elec       q    Type
REMARK                         _______ _______ _______ _____ _____    ______ ____
ROOT
ATOM      1  N   UNL     1       3.181   3.241  18.071  0.00  0.00    +0.000 NA
ATOM      2  C   UNL     1       1.816   3.767  18.292  0.00  0.00    +0.000 C 
ATOM      3  C   UNL     1       1.551   4.377  19.701  0.00  0.00    +0.000 C 
ATOM      4  C   UNL     1       1.618   3.325  20.830  0.00  0.00    +0.000 C 
ATOM      5  C   UNL     1       2.999   2.964  21.365  0.00  0.00    +0.000 C 
ATOM      6  C   UNL     1       4.017   2.697  20.282  0.00  0.00    +0.000 C 
ATOM      7  O   UNL     1       4.752   1.707  20.343  0.00  0.00    +0.000 OA
ATOM      8  C   UNL     1       4.120   3.696  19.128  0.00  0.00    +0.000 C 
ATOM      9  C   UNL     1       3.938   5.134  19.676  0.00  0.00    +0.000 C 
ATOM     10  N   UNL     1       2.520   5.471  19.942  0.00  0.00    +0.000 N 
ENDROOT
BRANCH  10  11
ATOM     11  C   UNL     1       2.073   6.784  19.753  0.00  0.00    +0.000 A 
ATOM     12  C   UNL     1       2.259   7.495  18.559  0.00  0.00    +0.000 A 
ATOM     13  C   UNL     1       1.857   8.830  18.415  0.00  0.00    +0.000 A 
ATOM     14  C   UNL     1       1.242   9.485  19.472  0.00  0.00    +0.000 A 
ATOM     15  C   UNL     1       1.014   8.799  20.661  0.00  0.00    +0.000 A 
ATOM     16  C   UNL     1       1.422   7.465  20.794  0.00  0.00    +0.000 A 
ENDBRANCH  10  11
BRANCH   1  17
ATOM     17  C   UNL     1       3.680   3.552  16.721  0.00  0.00    +0.000 C 
BRANCH  17  21
ATOM     18  C   UNL     1       7.012   6.343  16.810  0.00  0.00    +0.000 A 
ATOM     19  C   UNL     1       5.703   6.799  16.618  0.00  0.00    +0.000 A 
ATOM     20  C   UNL     1       4.630   5.903  16.571  0.00  0.00    +0.000 A 
ATOM     21  C   UNL     1       4.848   4.522  16.695  0.00  0.00    +0.000 A 
ATOM     22  C   UNL     1       6.166   4.073  16.865  0.00  0.00    +0.000 A 
ATOM     23  C   UNL     1       7.242   4.972  16.922  0.00  0.00    +0.000 A 
BRANCH  18  25
ATOM     24  C   UNL     1       7.857   8.321  17.811  0.00  0.00    +0.000 C 
ATOM     25  O   UNL     1       7.973   7.318  16.808  0.00  0.00    +0.000 OA
ENDBRANCH  18  25
ENDBRANCH  17  21
ENDBRANCH   1  17
TORSDOF 4
ENDMDL
MODEL 4
REMARK VINA RESULT:      -8.6      2.593      6.046
REMARK  Name = 
REMARK  5 active torsions:
REMARK  status: ('A' for Active; 'I' for Inactive)
REMARK    1  A    between atoms: C_1  and  O_2
REMARK    2  A    between atoms: O_2  and  C_3
REMARK    3  A    between atoms: C_6  and  C_7
REMARK    4  A    between atoms: C_7  and  N_8
REMARK    5  A    between atoms: N_17  and  C_18
REMARK                            x       y       z     vdW  Elec       q    Type
REMARK                         _______ _______ _______ _____ _____    ______ ____
ROOT
ATOM      1  N   UNL     1       2.646   5.810  19.091  0.00  0.00    +0.000 NA
ATOM      2  C   UNL     1       4.114   5.688  19.230  0.00  0.00    +0.000 C 
ATOM      3  C   UNL     1       4.708   4.292  18.877  0.00  0.00    +0.000 C 
ATOM      4  C   UNL     1       4.255   3.185  19.855  0.00  0.00    +0.000 C 
ATOM      5  C   UNL     1       2.893   2.548  19.603  0.00  0.00    +0.000 C 
ATOM      6  C   UNL     1       1.796   3.551  19.336  0.00  0.00    +0.000 C 
ATOM      7  O   UNL     1       0.705   3.454  19.905  0.00  0.00    +0.000 OA
ATOM      8  C   UNL     1       2.072   4.671  18.330  0.00  0.00    +0.000 C 
ATOM      9  C   UNL     1       2.905   4.106  17.151  0.00  0.00    +0.000 C 
ATOM     10  N   UNL     1       4.339   3.949  17.484  0.00  0.00    +0.000 N 
ENDROOT
BRANCH  10  11
ATOM     11  C   UNL     1       5.306   4.144  16.492  0.00  0.00    +0.000 A 
ATOM     12  C   UNL     1       6.610   4.580  16.765  0.00  0.00    +0.000 A 
ATOM     13  C   UNL     1       7.543   4.827  15.748  0.00  0.00    +0.000 A 
ATOM     14  C   UNL     1       7.190   4.626  14.422  0.00  0.00    +0.000 A 
ATOM     15  C   UNL     1       5.913   4.164  14.117  0.00  0.00    +0.000 A 
ATOM     16  C   UNL     1       4.988   3.923  15.143  0.00  0.00    +0.000 A 
ENDBRANCH  10  11
BRANCH   1  17
ATOM     17  C   UNL     1       2.252   7.108  18.518  0.00  0.00    +0.000 C 
BRANCH  17  21
ATOM     18  C   UNL     1       0.640   9.923  21.413  0.00  0.00    +0.000 A 
ATOM     19  C   UNL     1       0.759  10.275  20.064  0.00  0.00    +0.000 A 
ATOM     20  C   UNL     1       1.293   9.379  19.132  0.00  0.00    +0.000 A 
ATOM     21  C   UNL     1       1.742   8.112  19.538  0.00  0.00    +0.000 A 
ATOM     22  C   UNL     1       1.639   7.777  20.896  0.00  0.00    +0.000 A 
ATOM     23  C   UNL     1       1.094   8.672  21.829  0.00  0.00    +0.000 A 
BRANCH  18  25
ATOM     24  C   UNL     1      -0.904  10.500  23.119  0.00  0.00    +0.000 C 
ATOM     25  O   UNL     1       0.128  10.900  22.224  0.00  0.00    +0.000 OA
ENDBRANCH  18  25
ENDBRANCH  17  21
ENDBRANCH   1  17
TORSDOF 4
ENDMDL
MODEL 5
REMARK VINA RESULT:      -8.5      2.597      6.131
REMARK  Name = 
REMARK  5 active torsions:
REMARK  status: ('A' for Active; 'I' for Inactive)
REMARK    1  A    between atoms: C_1  and  O_2
REMARK    2  A    between atoms: O_2  and  C_3
REMARK    3  A    between atoms: C_6  and  C_7
REMARK    4  A    between atoms: C_7  and  N_8
REMARK    5  A    between atoms: N_17  and  C_18
REMARK                            x       y       z     vdW  Elec       q    Type
REMARK                         _______ _______ _______ _____ _____    ______ ____
ROOT
ATOM      1  N   UNL     1       2.632   5.884  19.295  0.00  0.00    +0.000 NA
ATOM      2  C   UNL     1       4.096   5.709  19.424  0.00  0.00    +0.000 C 
ATOM      3  C   UNL     1       4.641   4.301  19.036  0.00  0.00    +0.000 C 
ATOM      4  C   UNL     1       4.153   3.187  19.989  0.00  0.00    +0.000 C 
ATOM      5  C   UNL     1       2.769   2.604  19.728  0.00  0.00    +0.000 C 
ATOM      6  C   UNL     1       1.706   3.650  19.490  0.00  0.00    +0.000 C 
ATOM      7  O   UNL     1       0.615   3.577  20.062  0.00  0.00    +0.000 OA
ATOM      8  C   UNL     1       2.017   4.784  18.510  0.00  0.00    +0.000 C 
ATOM      9  C   UNL     1       2.825   4.219  17.314  0.00  0.00    +0.000 C 
ATOM     10  N   UNL     1       4.255   4.005  17.637  0.00  0.00    +0.000 N 
ENDROOT
BRANCH  10  11
ATOM     11  C   UNL     1       5.224   4.190  16.645  0.00  0.00    +0.000 A 
ATOM     12  C   UNL     1       6.550   4.552  16.925  0.00  0.00    +0.000 A 
ATOM     13  C   UNL     1       7.488   4.792  15.911  0.00  0.00    +0.000 A 
ATOM     14  C   UNL     1       7.117   4.659  14.580  0.00  0.00    +0.000 A 
ATOM     15  C   UNL     1       5.817   4.271  14.268  0.00  0.00    +0.000 A 
ATOM     16  C   UNL     1       4.888   4.037  15.291  0.00  0.00    +0.000 A 
ENDBRANCH  10  11
BRANCH   1  17
ATOM     17  C   UNL     1       2.281   7.208  18.755  0.00  0.00    +0.000 C 
BRANCH  17  21
ATOM     18  C   UNL     1       0.672   9.984  21.689  0.00  0.00    +0.000 A 
ATOM     19  C   UNL     1       1.114   8.713  22.074  0.00  0.00    +0.000 A 
ATOM     20  C   UNL     1       1.616   7.810  21.132  0.00  0.00    +0.000 A 
ATOM     21  C   UNL     1       1.667   8.155  19.772  0.00  0.00    +0.000 A 
ATOM     22  C   UNL     1       1.201   9.422  19.393  0.00  0.00    +0.000 A 
ATOM     23  C   UNL     1       0.707  10.332  20.339  0.00  0.00    +0.000 A 
BRANCH  18  25
ATOM     24  C   UNL     1      -1.140  11.267  22.526  0.00  0.00    +0.000 C 
ATOM     25  O   UNL     1       0.178  10.759  22.703  0.00  0.00    +0.000 OA
ENDBRANCH  18  25
ENDBRANCH  17  21
ENDBRANCH   1  17
TORSDOF 4
ENDMDL
MODEL 6
REMARK VINA RESULT:      -8.2      2.689      6.757
REMARK  Name = 
REMARK  5 active torsions:
REMARK  status: ('A' for Active; 'I' for Inactive)
REMARK    1  A    between atoms: C_1  and  O_2
REMARK    2  A    between atoms: O_2  and  C_3
REMARK    3  A    between atoms: C_6  and  C_7
REMARK    4  A    between atoms: C_7  and  N_8
REMARK    5  A    between atoms: N_17  and  C_18
REMARK                            x       y       z     vdW  Elec       q    Type
REMARK                         _______ _______ _______ _____ _____    ______ ____
ROOT
ATOM      1  N   UNL     1       4.662   6.211  17.656  0.00  0.00    +0.000 NA
ATOM      2  C   UNL     1       5.315   6.965  16.563  0.00  0.00    +0.000 C 
ATOM      3  C   UNL     1       6.763   6.513  16.207  0.00  0.00    +0.000 C 
ATOM      4  C   UNL     1       7.769   6.774  17.350  0.00  0.00    +0.000 C 
ATOM      5  C   UNL     1       7.836   5.738  18.467  0.00  0.00    +0.000 C 
ATOM      6  C   UNL     1       6.482   5.321  18.989  0.00  0.00    +0.000 C 
ATOM      7  O   UNL     1       6.270   5.261  20.204  0.00  0.00    +0.000 OA
ATOM      8  C   UNL     1       5.398   4.960  17.972  0.00  0.00    +0.000 C 
ATOM      9  C   UNL     1       6.040   4.188  16.791  0.00  0.00    +0.000 C 
ATOM     10  N   UNL     1       6.742   5.079  15.838  0.00  0.00    +0.000 N 
ENDROOT
BRANCH  10  11
ATOM     11  C   UNL     1       6.759   4.761  14.476  0.00  0.00    +0.000 A 
ATOM     12  C   UNL     1       5.922   3.793  13.902  0.00  0.00    +0.000 A 
ATOM     13  C   UNL     1       6.000   3.448  12.546  0.00  0.00    +0.000 A 
ATOM     14  C   UNL     1       6.919   4.081  11.723  0.00  0.00    +0.000 A 
ATOM     15  C   UNL     1       7.745   5.069  12.253  0.00  0.00    +0.000 A 
ATOM     16  C   UNL     1       7.659   5.404  13.611  0.00  0.00    +0.000 A 
ENDBRANCH  10  11
BRANCH   1  17
ATOM     17  C   UNL     1       3.239   5.955  17.375  0.00  0.00    +0.000 C 
BRANCH  17  21
ATOM     18  C   UNL     1       1.175   3.366  20.192  0.00  0.00    +0.000 A 
ATOM     19  C   UNL     1       1.937   4.450  20.643  0.00  0.00    +0.000 A 
ATOM     20  C   UNL     1       2.617   5.275  19.742  0.00  0.00    +0.000 A 
ATOM     21  C   UNL     1       2.565   5.018  18.363  0.00  0.00    +0.000 A 
ATOM     22  C   UNL     1       1.816   3.917  17.922  0.00  0.00    +0.000 A 
ATOM     23  C   UNL     1       1.126   3.096  18.826  0.00  0.00    +0.000 A 
BRANCH  18  25
ATOM     24  C   UNL     1       1.398   2.295  22.297  0.00  0.00    +0.000 C 
ATOM     25  O   UNL     1       0.583   2.622  21.178  0.00  0.00    +0.000 OA
ENDBRANCH  18  25
ENDBRANCH  17  21
ENDBRANCH   1  17
TORSDOF 4
ENDMDL
MODEL 7
REMARK VINA RESULT:      -8.2      2.956      6.491
REMARK  Name = 
REMARK  5 active torsions:
REMARK  status: ('A' for Active; 'I' for Inactive)
REMARK    1  A    between atoms: C_1  and  O_2
REMARK    2  A    between atoms: O_2  and  C_3
REMARK    3  A    between atoms: C_6  and  C_7
REMARK    4  A    between atoms: C_7  and  N_8
REMARK    5  A    between atoms: N_17  and  C_18
REMARK                            x       y       z     vdW  Elec       q    Type
REMARK                         _______ _______ _______ _____ _____    ______ ____
ROOT
ATOM      1  N   UNL     1       4.573   6.648  17.622  0.00  0.00    +0.000 NA
ATOM      2  C   UNL     1       5.858   6.923  16.941  0.00  0.00    +0.000 C 
ATOM      3  C   UNL     1       6.796   5.693  16.756  0.00  0.00    +0.000 C 
ATOM      4  C   UNL     1       7.320   5.133  18.098  0.00  0.00    +0.000 C 
ATOM      5  C   UNL     1       6.404   4.183  18.861  0.00  0.00    +0.000 C 
ATOM      6  C   UNL     1       4.979   4.672  18.969  0.00  0.00    +0.000 C 
ATOM      7  O   UNL     1       4.385   4.636  20.050  0.00  0.00    +0.000 OA
ATOM      8  C   UNL     1       4.297   5.191  17.702  0.00  0.00    +0.000 C 
ATOM      9  C   UNL     1       4.722   4.315  16.496  0.00  0.00    +0.000 C 
ATOM     10  N   UNL     1       6.075   4.647  15.994  0.00  0.00    +0.000 N 
ENDROOT
BRANCH  10  11
ATOM     11  C   UNL     1       6.354   4.534  14.628  0.00  0.00    +0.000 A 
ATOM     12  C   UNL     1       5.612   3.726  13.756  0.00  0.00    +0.000 A 
ATOM     13  C   UNL     1       5.948   3.581  12.402  0.00  0.00    +0.000 A 
ATOM     14  C   UNL     1       7.041   4.261  11.885  0.00  0.00    +0.000 A 
ATOM     15  C   UNL     1       7.782   5.097  12.716  0.00  0.00    +0.000 A 
ATOM     16  C   UNL     1       7.437   5.232  14.068  0.00  0.00    +0.000 A 
ENDBRANCH  10  11
BRANCH   1  17
ATOM     17  C   UNL     1       3.456   7.387  17.011  0.00  0.00    +0.000 C 
BRANCH  17  21
ATOM     18  C   UNL     1       0.914   9.369  19.928  0.00  0.00    +0.000 A 
ATOM     19  C   UNL     1       1.545   8.158  20.236  0.00  0.00    +0.000 A 
ATOM     20  C   UNL     1       2.349   7.508  19.294  0.00  0.00    +0.000 A 
ATOM     21  C   UNL     1       2.523   8.049  18.011  0.00  0.00    +0.000 A 
ATOM     22  C   UNL     1       1.869   9.252  17.705  0.00  0.00    +0.000 A 
ATOM     23  C   UNL     1       1.070   9.909  18.653  0.00  0.00    +0.000 A 
BRANCH  18  25
ATOM     24  C   UNL     1      -0.319   8.968  21.916  0.00  0.00    +0.000 C 
ATOM     25  O   UNL     1       0.133   9.886  20.927  0.00  0.00    +0.000 OA
ENDBRANCH  18  25
ENDBRANCH  17  21
ENDBRANCH   1  17
TORSDOF 4
ENDMDL
MODEL 8
REMARK VINA RESULT:      -8.0      2.966      6.371
REMARK  Name = 
REMARK  5 active torsions:
REMARK  status: ('A' for Active; 'I' for Inactive)
REMARK    1  A    between atoms: C_1  and  O_2
REMARK    2  A    between atoms: O_2  and  C_3
REMARK    3  A    between atoms: C_6  and  C_7
REMARK    4  A    between atoms: C_7  and  N_8
REMARK    5  A    between atoms: N_17  and  C_18
REMARK                            x       y       z     vdW  Elec       q    Type
REMARK                         _______ _______ _______ _____ _____    ______ ____
ROOT
ATOM      1  N   UNL     1       4.484   6.651  17.679  0.00  0.00    +0.000 NA
ATOM      2  C   UNL     1       5.791   6.907  17.033  0.00  0.00    +0.000 C 
ATOM      3  C   UNL     1       6.712   5.661  16.863  0.00  0.00    +0.000 C 
ATOM      4  C   UNL     1       7.191   5.083  18.213  0.00  0.00    +0.000 C 
ATOM      5  C   UNL     1       6.238   4.144  18.945  0.00  0.00    +0.000 C 
ATOM      6  C   UNL     1       4.820   4.657  19.021  0.00  0.00    +0.000 C 
ATOM      7  O   UNL     1       4.197   4.624  20.086  0.00  0.00    +0.000 OA
ATOM      8  C   UNL     1       4.181   5.198  17.740  0.00  0.00    +0.000 C 
ATOM      9  C   UNL     1       4.620   4.324  16.538  0.00  0.00    +0.000 C 
ATOM     10  N   UNL     1       5.992   4.635  16.074  0.00  0.00    +0.000 N 
ENDROOT
BRANCH  10  11
ATOM     11  C   UNL     1       6.304   4.527  14.714  0.00  0.00    +0.000 A 
ATOM     12  C   UNL     1       5.602   3.698  13.828  0.00  0.00    +0.000 A 
ATOM     13  C   UNL     1       5.972   3.560  12.483  0.00  0.00    +0.000 A 
ATOM     14  C   UNL     1       7.058   4.268  11.988  0.00  0.00    +0.000 A 
ATOM     15  C   UNL     1       7.759   5.123  12.834  0.00  0.00    +0.000 A 
ATOM     16  C   UNL     1       7.380   5.251  14.177  0.00  0.00    +0.000 A 
ENDBRANCH  10  11
BRANCH   1  17
ATOM     17  C   UNL     1       3.397   7.414  17.045  0.00  0.00    +0.000 C 
BRANCH  17  21
ATOM     18  C   UNL     1       0.773   9.544  19.780  0.00  0.00    +0.000 A 
ATOM     19  C   UNL     1       1.043  10.055  18.505  0.00  0.00    +0.000 A 
ATOM     20  C   UNL     1       1.900   9.382  17.629  0.00  0.00    +0.000 A 
ATOM     21  C   UNL     1       2.526   8.188  18.020  0.00  0.00    +0.000 A 
ATOM     22  C   UNL     1       2.265   7.696  19.307  0.00  0.00    +0.000 A 
ATOM     23  C   UNL     1       1.398   8.365  20.183  0.00  0.00    +0.000 A 
BRANCH  18  25
ATOM     24  C   UNL     1       0.494  11.515  21.071  0.00  0.00    +0.000 C 
ATOM     25  O   UNL     1      -0.060  10.313  20.549  0.00  0.00    +0.000 OA
ENDBRANCH  18  25
ENDBRANCH  17  21
ENDBRANCH   1  17
TORSDOF 4
ENDMDL
MODEL 9
REMARK VINA RESULT:      -7.9      2.979      6.519
REMARK  Name = 
REMARK  5 active torsions:
REMARK  status: ('A' for Active; 'I' for Inactive)
REMARK    1  A    between atoms: C_1  and  O_2
REMARK    2  A    between atoms: O_2  and  C_3
REMARK    3  A    between atoms: C_6  and  C_7
REMARK    4  A    between atoms: C_7  and  N_8
REMARK    5  A    between atoms: N_17  and  C_18
REMARK                            x       y       z     vdW  Elec       q    Type
REMARK                         _______ _______ _______ _____ _____    ______ ____
ROOT
ATOM      1  N   UNL     1       4.693   6.227  17.836  0.00  0.00    +0.000 NA
ATOM      2  C   UNL     1       5.294   6.901  16.664  0.00  0.00    +0.000 C 
ATOM      3  C   UNL     1       6.656   6.319  16.180  0.00  0.00    +0.000 C 
ATOM      4  C   UNL     1       7.790   6.513  17.211  0.00  0.00    +0.000 C 
ATOM      5  C   UNL     1       7.882   5.498  18.344  0.00  0.00    +0.000 C 
ATOM      6  C   UNL     1       6.557   5.210  19.009  0.00  0.00    +0.000 C 
ATOM      7  O   UNL     1       6.463   5.192  20.239  0.00  0.00    +0.000 OA
ATOM      8  C   UNL     1       5.349   4.924  18.114  0.00  0.00    +0.000 C 
ATOM      9  C   UNL     1       5.802   4.077  16.897  0.00  0.00    +0.000 C 
ATOM     10  N   UNL     1       6.478   4.884  15.855  0.00  0.00    +0.000 N 
ENDROOT
BRANCH  10  11
ATOM     11  C   UNL     1       6.331   4.540  14.507  0.00  0.00    +0.000 A 
ATOM     12  C   UNL     1       5.205   3.873  14.003  0.00  0.00    +0.000 A 
ATOM     13  C   UNL     1       5.108   3.483  12.660  0.00  0.00    +0.000 A 
ATOM     14  C   UNL     1       6.142   3.768  11.780  0.00  0.00    +0.000 A 
ATOM     15  C   UNL     1       7.261   4.456  12.241  0.00  0.00    +0.000 A 
ATOM     16  C   UNL     1       7.348   4.839  13.587  0.00  0.00    +0.000 A 
ENDBRANCH  10  11
BRANCH   1  17
ATOM     17  C   UNL     1       3.233   6.090  17.704  0.00  0.00    +0.000 C 
BRANCH  17  21
ATOM     18  C   UNL     1       1.095   9.215  19.841  0.00  0.00    +0.000 A 
ATOM     19  C   UNL     1       1.513   8.055  20.502  0.00  0.00    +0.000 A 
ATOM     20  C   UNL     1       2.186   7.039  19.815  0.00  0.00    +0.000 A 
ATOM     21  C   UNL     1       2.436   7.155  18.438  0.00  0.00    +0.000 A 
ATOM     22  C   UNL     1       1.994   8.312  17.781  0.00  0.00    +0.000 A 
ATOM     23  C   UNL     1       1.329   9.335  18.472  0.00  0.00    +0.000 A 
BRANCH  18  25
ATOM     24  C   UNL     1      -0.598  10.872  19.978  0.00  0.00    +0.000 C 
ATOM     25  O   UNL     1       0.424  10.118  20.621  0.00  0.00    +0.000 OA
ENDBRANCH  18  25
ENDBRANCH  17  21
ENDBRANCH   1  17
TORSDOF 4
ENDMDL
