MODEL 1
REMARK VINA RESULT:      -6.7      0.000      0.000
REMARK  Name = 
REMARK  1 active torsions:
REMARK  status: ('A' for Active; 'I' for Inactive)
REMARK    1  A    between atoms: C_1  and  C_2
REMARK                            x       y       z     vdW  Elec       q    Type
REMARK                         _______ _______ _______ _____ _____    ______ ____
ROOT
ATOM      1  C   UNL     1      -0.005  14.260  18.775  0.00  0.00    +0.000 C 
ATOM      2  C   UNL     1      -0.529  12.908  19.173  0.00  0.00    +0.000 C 
ATOM      3  O   UNL     1      -1.679  12.786  19.597  0.00  0.00    +0.000 OA
ATOM      4  N   UNL     1       0.313  11.827  18.980  0.00  0.00    +0.000 N 
ATOM      5  C   UNL     1      -0.200  10.482  19.267  0.00  0.00    +0.000 C 
ATOM      6  C   UNL     1       0.328   9.470  18.243  0.00  0.00    +0.000 C 
ATOM      7  N   UNL     1       1.799   9.524  18.243  0.00  0.00    +0.000 N 
ATOM      8  C   UNL     1       2.542   8.391  18.034  0.00  0.00    +0.000 C 
ATOM      9  N   UNL     1       3.439   8.138  17.109  0.00  0.00    +0.000 NA
ATOM     10  C   UNL     1       3.857   6.851  17.416  0.00  0.00    +0.000 A 
ATOM     11  C   UNL     1       4.784   6.045  16.758  0.00  0.00    +0.000 A 
ATOM     12  C   UNL     1       5.029   4.768  17.313  0.00  0.00    +0.000 A 
ATOM     13  C   UNL     1       4.377   4.318  18.482  0.00  0.00    +0.000 A 
ATOM     14  C   UNL     1       3.440   5.145  19.126  0.00  0.00    +0.000 A 
ATOM     15  C   UNL     1       2.700   4.898  20.300  0.00  0.00    +0.000 A 
ATOM     16  C   UNL     1       1.830   5.887  20.806  0.00  0.00    +0.000 A 
ATOM     17  C   UNL     1       1.662   7.129  20.166  0.00  0.00    +0.000 A 
ATOM     18  C   UNL     1       2.382   7.327  18.990  0.00  0.00    +0.000 A 
ATOM     19  C   UNL     1       3.236   6.355  18.543  0.00  0.00    +0.000 A 
ATOM     20  C   UNL     1       2.310  10.834  17.825  0.00  0.00    +0.000 C 
ATOM     21  C   UNL     1       1.775  11.909  18.797  0.00  0.00    +0.000 C 
ENDROOT
TORSDOF 0
ENDMDL
MODEL 2
REMARK VINA RESULT:      -6.5      5.444      7.645
REMARK  Name = 
REMARK  1 active torsions:
REMARK  status: ('A' for Active; 'I' for Inactive)
REMARK    1  A    between atoms: C_1  and  C_2
REMARK                            x       y       z     vdW  Elec       q    Type
REMARK                         _______ _______ _______ _____ _____    ______ ____
ROOT
ATOM      1  C   UNL     1      -4.290  16.648  24.896  0.00  0.00    +0.000 C 
ATOM      2  C   UNL     1      -3.450  15.406  24.777  0.00  0.00    +0.000 C 
ATOM      3  O   UNL     1      -2.872  14.948  25.764  0.00  0.00    +0.000 OA
ATOM      4  N   UNL     1      -3.419  14.786  23.541  0.00  0.00    +0.000 N 
ATOM      5  C   UNL     1      -2.689  13.519  23.412  0.00  0.00    +0.000 C 
ATOM      6  C   UNL     1      -3.428  12.560  22.470  0.00  0.00    +0.000 C 
ATOM      7  N   UNL     1      -3.624  13.231  21.175  0.00  0.00    +0.000 N 
ATOM      8  C   UNL     1      -3.581  12.520  20.004  0.00  0.00    +0.000 C 
ATOM      9  N   UNL     1      -4.494  12.394  19.068  0.00  0.00    +0.000 NA
ATOM     10  C   UNL     1      -3.875  11.577  18.131  0.00  0.00    +0.000 A 
ATOM     11  C   UNL     1      -4.376  11.080  16.930  0.00  0.00    +0.000 A 
ATOM     12  C   UNL     1      -3.506  10.278  16.158  0.00  0.00    +0.000 A 
ATOM     13  C   UNL     1      -2.185   9.990  16.568  0.00  0.00    +0.000 A 
ATOM     14  C   UNL     1      -1.703  10.498  17.787  0.00  0.00    +0.000 A 
ATOM     15  C   UNL     1      -0.426  10.346  18.366  0.00  0.00    +0.000 A 
ATOM     16  C   UNL     1      -0.130  10.975  19.593  0.00  0.00    +0.000 A 
ATOM     17  C   UNL     1      -1.081  11.754  20.279  0.00  0.00    +0.000 A 
ATOM     18  C   UNL     1      -2.342  11.854  19.697  0.00  0.00    +0.000 A 
ATOM     19  C   UNL     1      -2.585  11.252  18.492  0.00  0.00    +0.000 A 
ATOM     20  C   UNL     1      -4.468  14.427  21.288  0.00  0.00    +0.000 C 
ATOM     21  C   UNL     1      -3.796  15.419  22.261  0.00  0.00    +0.000 C 
ENDROOT
TORSDOF 0
ENDMDL
MODEL 3
REMARK VINA RESULT:      -6.3      3.277      6.882
REMARK  Name = 
REMARK  1 active torsions:
REMARK  status: ('A' for Active; 'I' for Inactive)
REMARK    1  A    between atoms: C_1  and  C_2
REMARK                            x       y       z     vdW  Elec       q    Type
REMARK                         _______ _______ _______ _____ _____    ______ ____
ROOT
ATOM      1  C   UNL     1       3.315   1.765  18.124  0.00  0.00    +0.000 C 
ATOM      2  C   UNL     1       3.181   2.559  19.394  0.00  0.00    +0.000 C 
ATOM      3  O   UNL     1       3.485   2.058  20.477  0.00  0.00    +0.000 OA
ATOM      4  N   UNL     1       2.768   3.874  19.270  0.00  0.00    +0.000 N 
ATOM      5  C   UNL     1       2.720   4.707  20.478  0.00  0.00    +0.000 C 
ATOM      6  C   UNL     1       3.170   6.140  20.167  0.00  0.00    +0.000 C 
ATOM      7  N   UNL     1       2.331   6.672  19.082  0.00  0.00    +0.000 N 
ATOM      8  C   UNL     1       1.984   7.998  19.050  0.00  0.00    +0.000 C 
ATOM      9  N   UNL     1       2.203   8.898  18.118  0.00  0.00    +0.000 NA
ATOM     10  C   UNL     1       1.609  10.040  18.636  0.00  0.00    +0.000 A 
ATOM     11  C   UNL     1       1.549  11.323  18.095  0.00  0.00    +0.000 A 
ATOM     12  C   UNL     1       0.853  12.300  18.844  0.00  0.00    +0.000 A 
ATOM     13  C   UNL     1       0.237  12.004  20.080  0.00  0.00    +0.000 A 
ATOM     14  C   UNL     1       0.316  10.704  20.609  0.00  0.00    +0.000 A 
ATOM     15  C   UNL     1      -0.237  10.199  21.804  0.00  0.00    +0.000 A 
ATOM     16  C   UNL     1      -0.070   8.838  22.137  0.00  0.00    +0.000 A 
ATOM     17  C   UNL     1       0.648   7.952  21.313  0.00  0.00    +0.000 A 
ATOM     18  C   UNL     1       1.210   8.490  20.159  0.00  0.00    +0.000 A 
ATOM     19  C   UNL     1       1.006   9.810  19.854  0.00  0.00    +0.000 A 
ATOM     20  C   UNL     1       2.485   5.915  17.834  0.00  0.00    +0.000 C 
ATOM     21  C   UNL     1       2.086   4.446  18.093  0.00  0.00    +0.000 C 
ENDROOT
TORSDOF 0
ENDMDL
MODEL 4
REMARK VINA RESULT:      -6.3      0.988      1.055
REMARK  Name = 
REMARK  1 active torsions:
REMARK  status: ('A' for Active; 'I' for Inactive)
REMARK    1  A    between atoms: C_1  and  C_2
REMARK                            x       y       z     vdW  Elec       q    Type
REMARK                         _______ _______ _______ _____ _____    ______ ____
ROOT
ATOM      1  C   UNL     1      -0.829  14.418  20.328  0.00  0.00    +0.000 C 
ATOM      2  C   UNL     1      -1.234  12.987  20.554  0.00  0.00    +0.000 C 
ATOM      3  O   UNL     1      -2.335  12.721  21.037  0.00  0.00    +0.000 OA
ATOM      4  N   UNL     1      -0.346  12.011  20.138  0.00  0.00    +0.000 N 
ATOM      5  C   UNL     1      -0.750  10.605  20.254  0.00  0.00    +0.000 C 
ATOM      6  C   UNL     1      -0.248   9.794  19.053  0.00  0.00    +0.000 C 
ATOM      7  N   UNL     1       1.211   9.955  18.954  0.00  0.00    +0.000 N 
ATOM      8  C   UNL     1       2.003   8.922  18.522  0.00  0.00    +0.000 C 
ATOM      9  N   UNL     1       2.834   8.874  17.506  0.00  0.00    +0.000 NA
ATOM     10  C   UNL     1       3.354   7.589  17.584  0.00  0.00    +0.000 A 
ATOM     11  C   UNL     1       4.271   6.959  16.745  0.00  0.00    +0.000 A 
ATOM     12  C   UNL     1       4.639   5.636  17.081  0.00  0.00    +0.000 A 
ATOM     13  C   UNL     1       4.115   4.973  18.212  0.00  0.00    +0.000 A 
ATOM     14  C   UNL     1       3.186   5.626  19.041  0.00  0.00    +0.000 A 
ATOM     15  C   UNL     1       2.562   5.156  20.215  0.00  0.00    +0.000 A 
ATOM     16  C   UNL     1       1.678   5.994  20.926  0.00  0.00    +0.000 A 
ATOM     17  C   UNL     1       1.382   7.301  20.496  0.00  0.00    +0.000 A 
ATOM     18  C   UNL     1       1.988   7.721  19.315  0.00  0.00    +0.000 A 
ATOM     19  C   UNL     1       2.861   6.890  18.665  0.00  0.00    +0.000 A 
ATOM     20  C   UNL     1       1.605  11.347  18.704  0.00  0.00    +0.000 C 
ATOM     21  C   UNL     1       1.088  12.225  19.864  0.00  0.00    +0.000 C 
ENDROOT
TORSDOF 0
ENDMDL
MODEL 5
REMARK VINA RESULT:      -6.3      8.412      9.461
REMARK  Name = 
REMARK  1 active torsions:
REMARK  status: ('A' for Active; 'I' for Inactive)
REMARK    1  A    between atoms: C_1  and  C_2
REMARK                            x       y       z     vdW  Elec       q    Type
REMARK                         _______ _______ _______ _____ _____    ______ ____
ROOT
ATOM      1  C   UNL     1       5.209  12.096  26.589  0.00  0.00    +0.000 C 
ATOM      2  C   UNL     1       5.530  13.286  25.727  0.00  0.00    +0.000 C 
ATOM      3  O   UNL     1       5.149  14.411  26.052  0.00  0.00    +0.000 OA
ATOM      4  N   UNL     1       6.315  13.057  24.610  0.00  0.00    +0.000 N 
ATOM      5  C   UNL     1       6.728  14.209  23.800  0.00  0.00    +0.000 C 
ATOM      6  C   UNL     1       8.163  14.027  23.291  0.00  0.00    +0.000 C 
ATOM      7  N   UNL     1       8.241  12.759  22.548  0.00  0.00    +0.000 N 
ATOM      8  C   UNL     1       9.059  12.636  21.455  0.00  0.00    +0.000 C 
ATOM      9  N   UNL     1      10.044  11.794  21.237  0.00  0.00    +0.000 NA
ATOM     10  C   UNL     1      10.477  12.137  19.964  0.00  0.00    +0.000 A 
ATOM     11  C   UNL     1      11.522  11.599  19.215  0.00  0.00    +0.000 A 
ATOM     12  C   UNL     1      11.726  12.138  17.924  0.00  0.00    +0.000 A 
ATOM     13  C   UNL     1      10.915  13.169  17.402  0.00  0.00    +0.000 A 
ATOM     14  C   UNL     1       9.871  13.701  18.177  0.00  0.00    +0.000 A 
ATOM     15  C   UNL     1       8.943  14.709  17.842  0.00  0.00    +0.000 A 
ATOM     16  C   UNL     1       7.938  15.076  18.761  0.00  0.00    +0.000 A 
ATOM     17  C   UNL     1       7.830  14.469  20.027  0.00  0.00    +0.000 A 
ATOM     18  C   UNL     1       8.782  13.503  20.340  0.00  0.00    +0.000 A 
ATOM     19  C   UNL     1       9.727  13.154  19.412  0.00  0.00    +0.000 A 
ATOM     20  C   UNL     1       7.957  11.596  23.397  0.00  0.00    +0.000 C 
ATOM     21  C   UNL     1       6.534  11.742  23.978  0.00  0.00    +0.000 C 
ENDROOT
TORSDOF 0
ENDMDL
MODEL 6
REMARK VINA RESULT:      -6.3      2.342      4.079
REMARK  Name = 
REMARK  1 active torsions:
REMARK  status: ('A' for Active; 'I' for Inactive)
REMARK    1  A    between atoms: C_1  and  C_2
REMARK                            x       y       z     vdW  Elec       q    Type
REMARK                         _______ _______ _______ _____ _____    ______ ____
ROOT
ATOM      1  C   UNL     1       1.144  17.634  17.695  0.00  0.00    +0.000 C 
ATOM      2  C   UNL     1       0.161  16.796  18.467  0.00  0.00    +0.000 C 
ATOM      3  O   UNL     1      -0.917  17.271  18.824  0.00  0.00    +0.000 OA
ATOM      4  N   UNL     1       0.503  15.474  18.689  0.00  0.00    +0.000 N 
ATOM      5  C   UNL     1      -0.474  14.602  19.352  0.00  0.00    +0.000 C 
ATOM      6  C   UNL     1      -0.445  13.194  18.745  0.00  0.00    +0.000 C 
ATOM      7  N   UNL     1       0.928  12.671  18.833  0.00  0.00    +0.000 N 
ATOM      8  C   UNL     1       1.157  11.337  19.050  0.00  0.00    +0.000 C 
ATOM      9  N   UNL     1       1.827  10.474  18.320  0.00  0.00    +0.000 NA
ATOM     10  C   UNL     1       1.729   9.298  19.051  0.00  0.00    +0.000 A 
ATOM     11  C   UNL     1       2.228   8.032  18.752  0.00  0.00    +0.000 A 
ATOM     12  C   UNL     1       1.991   7.012  19.702  0.00  0.00    +0.000 A 
ATOM     13  C   UNL     1       1.289   7.250  20.903  0.00  0.00    +0.000 A 
ATOM     14  C   UNL     1       0.790   8.534  21.182  0.00  0.00    +0.000 A 
ATOM     15  C   UNL     1       0.086   8.984  22.318  0.00  0.00    +0.000 A 
ATOM     16  C   UNL     1      -0.298  10.338  22.418  0.00  0.00    +0.000 A 
ATOM     17  C   UNL     1      -0.009  11.271  21.404  0.00  0.00    +0.000 A 
ATOM     18  C   UNL     1       0.656  10.787  20.281  0.00  0.00    +0.000 A 
ATOM     19  C   UNL     1       1.036   9.472  20.230  0.00  0.00    +0.000 A 
ATOM     20  C   UNL     1       1.881  13.472  18.056  0.00  0.00    +0.000 C 
ATOM     21  C   UNL     1       1.868  14.919  18.594  0.00  0.00    +0.000 C 
ENDROOT
TORSDOF 0
ENDMDL
MODEL 7
REMARK VINA RESULT:      -6.2      8.781     10.074
REMARK  Name = 
REMARK  1 active torsions:
REMARK  status: ('A' for Active; 'I' for Inactive)
REMARK    1  A    between atoms: C_1  and  C_2
REMARK                            x       y       z     vdW  Elec       q    Type
REMARK                         _______ _______ _______ _____ _____    ______ ____
ROOT
ATOM      1  C   UNL     1       4.858  11.234  27.760  0.00  0.00    +0.000 C 
ATOM      2  C   UNL     1       4.948  10.865  26.305  0.00  0.00    +0.000 C 
ATOM      3  O   UNL     1       4.133  10.087  25.809  0.00  0.00    +0.000 OA
ATOM      4  N   UNL     1       5.936  11.485  25.561  0.00  0.00    +0.000 N 
ATOM      5  C   UNL     1       5.992  11.223  24.118  0.00  0.00    +0.000 C 
ATOM      6  C   UNL     1       6.371  12.494  23.348  0.00  0.00    +0.000 C 
ATOM      7  N   UNL     1       7.647  13.001  23.879  0.00  0.00    +0.000 N 
ATOM      8  C   UNL     1       8.557  13.609  23.053  0.00  0.00    +0.000 C 
ATOM      9  N   UNL     1       9.073  14.815  23.121  0.00  0.00    +0.000 NA
ATOM     10  C   UNL     1       9.937  14.851  22.035  0.00  0.00    +0.000 A 
ATOM     11  C   UNL     1      10.743  15.894  21.585  0.00  0.00    +0.000 A 
ATOM     12  C   UNL     1      11.545  15.639  20.449  0.00  0.00    +0.000 A 
ATOM     13  C   UNL     1      11.544  14.389  19.793  0.00  0.00    +0.000 A 
ATOM     14  C   UNL     1      10.718  13.352  20.260  0.00  0.00    +0.000 A 
ATOM     15  C   UNL     1      10.582  12.038  19.767  0.00  0.00    +0.000 A 
ATOM     16  C   UNL     1       9.714  11.130  20.411  0.00  0.00    +0.000 A 
ATOM     17  C   UNL     1       8.958  11.497  21.540  0.00  0.00    +0.000 A 
ATOM     18  C   UNL     1       9.090  12.811  21.981  0.00  0.00    +0.000 A 
ATOM     19  C   UNL     1       9.962  13.656  21.347  0.00  0.00    +0.000 A 
ATOM     20  C   UNL     1       7.550  13.390  25.291  0.00  0.00    +0.000 C 
ATOM     21  C   UNL     1       7.127  12.155  26.117  0.00  0.00    +0.000 C 
ENDROOT
TORSDOF 0
ENDMDL
MODEL 8
REMARK VINA RESULT:      -6.1      2.530      7.715
REMARK  Name = 
REMARK  1 active torsions:
REMARK  status: ('A' for Active; 'I' for Inactive)
REMARK    1  A    between atoms: C_1  and  C_2
REMARK                            x       y       z     vdW  Elec       q    Type
REMARK                         _______ _______ _______ _____ _____    ______ ____
ROOT
ATOM      1  C   UNL     1       2.153   5.363  20.153  0.00  0.00    +0.000 C 
ATOM      2  C   UNL     1       2.486   6.391  19.107  0.00  0.00    +0.000 C 
ATOM      3  O   UNL     1       3.082   6.065  18.080  0.00  0.00    +0.000 OA
ATOM      4  N   UNL     1       2.037   7.681  19.330  0.00  0.00    +0.000 N 
ATOM      5  C   UNL     1       2.259   8.688  18.286  0.00  0.00    +0.000 C 
ATOM      6  C   UNL     1       1.056   9.634  18.180  0.00  0.00    +0.000 C 
ATOM      7  N   UNL     1       0.813  10.236  19.501  0.00  0.00    +0.000 N 
ATOM      8  C   UNL     1       0.360  11.525  19.611  0.00  0.00    +0.000 C 
ATOM      9  N   UNL     1      -0.726  11.983  20.191  0.00  0.00    +0.000 NA
ATOM     10  C   UNL     1      -0.636  13.354  19.996  0.00  0.00    +0.000 A 
ATOM     11  C   UNL     1      -1.525  14.358  20.374  0.00  0.00    +0.000 A 
ATOM     12  C   UNL     1      -1.161  15.687  20.056  0.00  0.00    +0.000 A 
ATOM     13  C   UNL     1       0.046  15.998  19.392  0.00  0.00    +0.000 A 
ATOM     14  C   UNL     1       0.925  14.969  19.014  0.00  0.00    +0.000 A 
ATOM     15  C   UNL     1       2.174  15.064  18.367  0.00  0.00    +0.000 A 
ATOM     16  C   UNL     1       2.924  13.897  18.108  0.00  0.00    +0.000 A 
ATOM     17  C   UNL     1       2.460  12.618  18.469  0.00  0.00    +0.000 A 
ATOM     18  C   UNL     1       1.208  12.557  19.075  0.00  0.00    +0.000 A 
ATOM     19  C   UNL     1       0.520  13.712  19.334  0.00  0.00    +0.000 A 
ATOM     20  C   UNL     1       0.459   9.235  20.514  0.00  0.00    +0.000 C 
ATOM     21  C   UNL     1       1.618   8.223  20.638  0.00  0.00    +0.000 C 
ENDROOT
TORSDOF 0
ENDMDL
MODEL 9
REMARK VINA RESULT:      -5.9      1.478      2.881
REMARK  Name = 
REMARK  1 active torsions:
REMARK  status: ('A' for Active; 'I' for Inactive)
REMARK    1  A    between atoms: C_1  and  C_2
REMARK                            x       y       z     vdW  Elec       q    Type
REMARK                         _______ _______ _______ _____ _____    ______ ____
ROOT
ATOM      1  C   UNL     1      -1.903  13.533  19.841  0.00  0.00    +0.000 C 
ATOM      2  C   UNL     1      -0.521  13.203  19.345  0.00  0.00    +0.000 C 
ATOM      3  O   UNL     1       0.222  14.095  18.934  0.00  0.00    +0.000 OA
ATOM      4  N   UNL     1      -0.121  11.882  19.438  0.00  0.00    +0.000 N 
ATOM      5  C   UNL     1       1.254  11.541  19.054  0.00  0.00    +0.000 C 
ATOM      6  C   UNL     1       1.827  10.465  19.985  0.00  0.00    +0.000 C 
ATOM      7  N   UNL     1       0.930   9.298  19.964  0.00  0.00    +0.000 N 
ATOM      8  C   UNL     1       1.431   8.027  20.069  0.00  0.00    +0.000 C 
ATOM      9  N   UNL     1       1.166   7.094  20.956  0.00  0.00    +0.000 NA
ATOM     10  C   UNL     1       1.953   6.030  20.540  0.00  0.00    +0.000 A 
ATOM     11  C   UNL     1       2.106   4.770  21.116  0.00  0.00    +0.000 A 
ATOM     12  C   UNL     1       2.972   3.867  20.457  0.00  0.00    +0.000 A 
ATOM     13  C   UNL     1       3.652   4.209  19.268  0.00  0.00    +0.000 A 
ATOM     14  C   UNL     1       3.488   5.487  18.707  0.00  0.00    +0.000 A 
ATOM     15  C   UNL     1       4.054   6.018  17.530  0.00  0.00    +0.000 A 
ATOM     16  C   UNL     1       3.727   7.328  17.120  0.00  0.00    +0.000 A 
ATOM     17  C   UNL     1       2.850   8.143  17.860  0.00  0.00    +0.000 A 
ATOM     18  C   UNL     1       2.336   7.601  19.035  0.00  0.00    +0.000 A 
ATOM     19  C   UNL     1       2.655   6.317  19.388  0.00  0.00    +0.000 A 
ATOM     20  C   UNL     1      -0.409   9.614  20.476  0.00  0.00    +0.000 C 
ATOM     21  C   UNL     1      -1.026  10.727  19.601  0.00  0.00    +0.000 C 
ENDROOT
TORSDOF 0
ENDMDL
