MODEL 1
REMARK VINA RESULT:      -8.5      0.000      0.000
REMARK  Name = 
REMARK  7 active torsions:
REMARK  status: ('A' for Active; 'I' for Inactive)
REMARK    1  A    between atoms: C_1  and  N_2
REMARK    2  A    between atoms: C_5  and  N_6
REMARK    3  A    between atoms: C_7  and  C_9
REMARK    4  A    between atoms: C_11  and  C_12
REMARK    5  A    between atoms: C_21  and  N_22
REMARK    6  A    between atoms: C_23  and  C_24
REMARK    7  A    between atoms: C_27  and  N_28
REMARK                            x       y       z     vdW  Elec       q    Type
REMARK                         _______ _______ _______ _____ _____    ______ ____
ROOT
ATOM      1  N   UNL     1       3.133   6.898  18.113  0.00  0.00    +0.000 N 
ATOM      2  C   UNL     1       2.660   8.187  17.922  0.00  0.00    +0.000 C 
ATOM      3  O   UNL     1       2.956   8.893  16.959  0.00  0.00    +0.000 OA
ATOM      4  H   UNL     1       2.737   6.394  18.896  0.00  0.00    +0.000 HD
ENDROOT
BRANCH   1   9
ATOM      5  C   UNL     1       6.016   3.567  15.904  0.00  0.00    +0.000 C 
ATOM      6  N   UNL     1       5.283   4.765  16.252  0.00  0.00    +0.000 N 
ATOM      7  N   UNL     1       5.798   5.941  15.845  0.00  0.00    +0.000 NA
ATOM      8  C   UNL     1       5.053   6.852  16.469  0.00  0.00    +0.000 A 
ATOM      9  C   UNL     1       4.046   6.270  17.267  0.00  0.00    +0.000 A 
ATOM     10  C   UNL     1       4.113   4.905  16.976  0.00  0.00    +0.000 A 
BRANCH  10  11
ATOM     11  C   UNL     1       3.140   3.792  17.291  0.00  0.00    +0.000 C 
ATOM     12  C   UNL     1       3.632   2.852  18.409  0.00  0.00    +0.000 C 
ATOM     13  C   UNL     1       3.955   3.592  19.713  0.00  0.00    +0.000 C 
ATOM     14  C   UNL     1       2.784   3.654  20.690  0.00  0.00    +0.000 C 
ATOM     15  C   UNL     1       1.417   3.801  19.979  0.00  0.00    +0.000 C 
ATOM     16  F   UNL     1       0.972   2.587  19.551  0.00  0.00    +0.000 F 
ATOM     17  F   UNL     1       0.501   4.210  20.906  0.00  0.00    +0.000 F 
ATOM     18  C   UNL     1       1.435   4.793  18.811  0.00  0.00    +0.000 C 
ATOM     19  O   UNL     1       1.820   4.295  17.522  0.00  0.00    +0.000 OA
BRANCH  14  20
ATOM     20  N   UNL     1       2.875   2.478  21.590  0.00  0.00    +0.000 NA
ATOM     21  H   UNL     1       3.627   2.634  22.262  0.00  0.00    +0.000 HD
ATOM     22  H   UNL     1       3.174   1.671  21.040  0.00  0.00    +0.000 HD
ENDBRANCH  14  20
ENDBRANCH  10  11
ENDBRANCH   1   9
BRANCH   2  23
ATOM     23  C   UNL     1       1.699   8.630  18.955  0.00  0.00    +0.000 A 
ATOM     24  N   UNL     1       0.801   9.695  18.741  0.00  0.00    +0.000 NA
ATOM     25  C   UNL     1       0.036   9.870  19.810  0.00  0.00    +0.000 A 
ATOM     26  S   UNL     1       0.310   8.740  21.079  0.00  0.00    +0.000 S 
ATOM     27  C   UNL     1       1.618   8.058  20.220  0.00  0.00    +0.000 A 
BRANCH  25  28
ATOM     28  C   UNL     1      -1.017  10.887  19.966  0.00  0.00    +0.000 A 
ATOM     29  C   UNL     1      -2.048  10.999  19.029  0.00  0.00    +0.000 A 
ATOM     30  F   UNL     1      -2.114  10.161  17.983  0.00  0.00    +0.000 F 
ATOM     31  C   UNL     1      -3.058  11.960  19.155  0.00  0.00    +0.000 A 
ATOM     32  C   UNL     1      -3.058  12.841  20.234  0.00  0.00    +0.000 A 
ATOM     33  C   UNL     1      -2.048  12.750  21.185  0.00  0.00    +0.000 A 
ATOM     34  C   UNL     1      -1.043  11.788  21.044  0.00  0.00    +0.000 A 
ATOM     35  F   UNL     1      -0.086  11.769  21.984  0.00  0.00    +0.000 F 
ENDBRANCH  25  28
BRANCH  27  36
ATOM     36  N   UNL     1       2.369   7.099  20.798  0.00  0.00    +0.000 N 
ATOM     37  H   UNL     1       2.542   6.227  20.305  0.00  0.00    +0.000 HD
ATOM     38  H   UNL     1       2.388   7.017  21.816  0.00  0.00    +0.000 HD
ENDBRANCH  27  36
ENDBRANCH   2  23
TORSDOF 6
ENDMDL
MODEL 2
REMARK VINA RESULT:      -8.5      0.082      1.441
REMARK  Name = 
REMARK  7 active torsions:
REMARK  status: ('A' for Active; 'I' for Inactive)
REMARK    1  A    between atoms: C_1  and  N_2
REMARK    2  A    between atoms: C_5  and  N_6
REMARK    3  A    between atoms: C_7  and  C_9
REMARK    4  A    between atoms: C_11  and  C_12
REMARK    5  A    between atoms: C_21  and  N_22
REMARK    6  A    between atoms: C_23  and  C_24
REMARK    7  A    between atoms: C_27  and  N_28
REMARK                            x       y       z     vdW  Elec       q    Type
REMARK                         _______ _______ _______ _____ _____    ______ ____
ROOT
ATOM      1  N   UNL     1       3.189   6.899  18.094  0.00  0.00    +0.000 N 
ATOM      2  C   UNL     1       2.709   8.186  17.909  0.00  0.00    +0.000 C 
ATOM      3  O   UNL     1       3.005   8.900  16.953  0.00  0.00    +0.000 OA
ATOM      4  H   UNL     1       2.791   6.387  18.872  0.00  0.00    +0.000 HD
ENDROOT
BRANCH   1   9
ATOM      5  C   UNL     1       6.087   3.595  15.865  0.00  0.00    +0.000 C 
ATOM      6  N   UNL     1       5.352   4.789  16.224  0.00  0.00    +0.000 N 
ATOM      7  N   UNL     1       5.874   5.970  15.839  0.00  0.00    +0.000 NA
ATOM      8  C   UNL     1       5.124   6.873  16.469  0.00  0.00    +0.000 A 
ATOM      9  C   UNL     1       4.108   6.281  17.249  0.00  0.00    +0.000 A 
ATOM     10  C   UNL     1       4.176   4.921  16.938  0.00  0.00    +0.000 A 
BRANCH  10  11
ATOM     11  C   UNL     1       3.198   3.805  17.228  0.00  0.00    +0.000 C 
ATOM     12  C   UNL     1       3.686   2.837  18.323  0.00  0.00    +0.000 C 
ATOM     13  C   UNL     1       4.013   3.545  19.643  0.00  0.00    +0.000 C 
ATOM     14  C   UNL     1       2.842   3.589  20.622  0.00  0.00    +0.000 C 
ATOM     15  C   UNL     1       1.475   3.759  19.915  0.00  0.00    +0.000 C 
ATOM     16  F   UNL     1       1.024   2.557  19.459  0.00  0.00    +0.000 F 
ATOM     17  F   UNL     1       0.562   4.150  20.851  0.00  0.00    +0.000 F 
ATOM     18  C   UNL     1       1.497   4.778  18.771  0.00  0.00    +0.000 C 
ATOM     19  O   UNL     1       1.881   4.308  17.470  0.00  0.00    +0.000 OA
BRANCH  14  20
ATOM     20  N   UNL     1       2.927   2.392  21.494  0.00  0.00    +0.000 NA
ATOM     21  H   UNL     1       1.982   2.101  21.748  0.00  0.00    +0.000 HD
ATOM     22  H   UNL     1       3.366   2.664  22.375  0.00  0.00    +0.000 HD
ENDBRANCH  14  20
ENDBRANCH  10  11
ENDBRANCH   1   9
BRANCH   2  23
ATOM     23  C   UNL     1       1.741   8.617  18.941  0.00  0.00    +0.000 A 
ATOM     24  N   UNL     1       0.846   9.686  18.735  0.00  0.00    +0.000 NA
ATOM     25  C   UNL     1       0.073   9.848  19.800  0.00  0.00    +0.000 A 
ATOM     26  S   UNL     1       0.336   8.702  21.057  0.00  0.00    +0.000 S 
ATOM     27  C   UNL     1       1.650   8.029  20.199  0.00  0.00    +0.000 A 
BRANCH  25  28
ATOM     28  C   UNL     1      -0.980  10.864  19.961  0.00  0.00    +0.000 A 
ATOM     29  C   UNL     1      -0.980  11.726  21.061  0.00  0.00    +0.000 A 
ATOM     30  F   UNL     1      -0.002  11.664  21.978  0.00  0.00    +0.000 F 
ATOM     31  C   UNL     1      -1.973  12.698  21.237  0.00  0.00    +0.000 A 
ATOM     32  C   UNL     1      -2.999  12.828  20.305  0.00  0.00    +0.000 A 
ATOM     33  C   UNL     1      -3.022  11.988  19.198  0.00  0.00    +0.000 A 
ATOM     34  C   UNL     1      -2.026  11.020  19.037  0.00  0.00    +0.000 A 
ATOM     35  F   UNL     1      -2.121  10.227  17.959  0.00  0.00    +0.000 F 
ENDBRANCH  25  28
BRANCH  27  36
ATOM     36  N   UNL     1       2.396   7.062  20.769  0.00  0.00    +0.000 N 
ATOM     37  H   UNL     1       3.058   6.535  20.205  0.00  0.00    +0.000 HD
ATOM     38  H   UNL     1       2.029   6.550  21.574  0.00  0.00    +0.000 HD
ENDBRANCH  27  36
ENDBRANCH   2  23
TORSDOF 6
ENDMDL
MODEL 3
REMARK VINA RESULT:      -8.2      1.990      2.613
REMARK  Name = 
REMARK  7 active torsions:
REMARK  status: ('A' for Active; 'I' for Inactive)
REMARK    1  A    between atoms: C_1  and  N_2
REMARK    2  A    between atoms: C_5  and  N_6
REMARK    3  A    between atoms: C_7  and  C_9
REMARK    4  A    between atoms: C_11  and  C_12
REMARK    5  A    between atoms: C_21  and  N_22
REMARK    6  A    between atoms: C_23  and  C_24
REMARK    7  A    between atoms: C_27  and  N_28
REMARK                            x       y       z     vdW  Elec       q    Type
REMARK                         _______ _______ _______ _____ _____    ______ ____
ROOT
ATOM      1  N   UNL     1       2.370   7.796  18.257  0.00  0.00    +0.000 N 
ATOM      2  C   UNL     1       2.116   9.147  18.077  0.00  0.00    +0.000 C 
ATOM      3  O   UNL     1       2.859   9.911  17.465  0.00  0.00    +0.000 OA
ATOM      4  H   UNL     1       1.630   7.262  18.697  0.00  0.00    +0.000 HD
ENDROOT
BRANCH   1   9
ATOM      5  C   UNL     1       6.527   5.159  18.045  0.00  0.00    +0.000 C 
ATOM      6  N   UNL     1       5.346   5.929  17.720  0.00  0.00    +0.000 N 
ATOM      7  N   UNL     1       5.375   6.648  16.582  0.00  0.00    +0.000 NA
ATOM      8  C   UNL     1       4.275   7.397  16.645  0.00  0.00    +0.000 A 
ATOM      9  C   UNL     1       3.526   7.155  17.816  0.00  0.00    +0.000 A 
ATOM     10  C   UNL     1       4.163   6.069  18.422  0.00  0.00    +0.000 A 
BRANCH  10  11
ATOM     11  C   UNL     1       3.700   5.170  19.546  0.00  0.00    +0.000 C 
ATOM     12  C   UNL     1       2.187   4.881  19.510  0.00  0.00    +0.000 C 
ATOM     13  C   UNL     1       1.728   4.267  18.182  0.00  0.00    +0.000 C 
ATOM     14  C   UNL     1       1.717   2.740  18.184  0.00  0.00    +0.000 C 
ATOM     15  C   UNL     1       2.874   2.132  19.012  0.00  0.00    +0.000 C 
ATOM     16  F   UNL     1       2.553   2.117  20.336  0.00  0.00    +0.000 F 
ATOM     17  F   UNL     1       3.000   0.819  18.662  0.00  0.00    +0.000 F 
ATOM     18  C   UNL     1       4.216   2.844  18.808  0.00  0.00    +0.000 C 
ATOM     19  O   UNL     1       4.497   3.984  19.634  0.00  0.00    +0.000 OA
BRANCH  14  20
ATOM     20  N   UNL     1       0.368   2.291  18.608  0.00  0.00    +0.000 NA
ATOM     21  H   UNL     1       0.468   1.632  19.381  0.00  0.00    +0.000 HD
ATOM     22  H   UNL     1      -0.046   1.748  17.849  0.00  0.00    +0.000 HD
ENDBRANCH  14  20
ENDBRANCH  10  11
ENDBRANCH   1   9
BRANCH   2  23
ATOM     23  C   UNL     1       0.819   9.590  18.634  0.00  0.00    +0.000 A 
ATOM     24  N   UNL     1      -0.244  10.025  17.816  0.00  0.00    +0.000 NA
ATOM     25  C   UNL     1      -1.295  10.340  18.561  0.00  0.00    +0.000 A 
ATOM     26  S   UNL     1      -1.083  10.073  20.248  0.00  0.00    +0.000 S 
ATOM     27  C   UNL     1       0.549   9.642  19.998  0.00  0.00    +0.000 A 
BRANCH  25  28
ATOM     28  C   UNL     1      -2.590  10.836  18.067  0.00  0.00    +0.000 A 
ATOM     29  C   UNL     1      -3.091  10.419  16.831  0.00  0.00    +0.000 A 
ATOM     30  F   UNL     1      -2.414   9.535  16.082  0.00  0.00    +0.000 F 
ATOM     31  C   UNL     1      -4.318  10.880  16.339  0.00  0.00    +0.000 A 
ATOM     32  C   UNL     1      -5.079  11.778  17.083  0.00  0.00    +0.000 A 
ATOM     33  C   UNL     1      -4.609  12.206  18.319  0.00  0.00    +0.000 A 
ATOM     34  C   UNL     1      -3.379  11.741  18.795  0.00  0.00    +0.000 A 
ATOM     35  F   UNL     1      -2.973  12.211  19.984  0.00  0.00    +0.000 F 
ENDBRANCH  25  28
BRANCH  27  36
ATOM     36  N   UNL     1       1.346   9.397  21.058  0.00  0.00    +0.000 N 
ATOM     37  H   UNL     1       1.937  10.136  21.428  0.00  0.00    +0.000 HD
ATOM     38  H   UNL     1       1.708   8.453  21.209  0.00  0.00    +0.000 HD
ENDBRANCH  27  36
ENDBRANCH   2  23
TORSDOF 6
ENDMDL
MODEL 4
REMARK VINA RESULT:      -8.2      2.004      2.942
REMARK  Name = 
REMARK  7 active torsions:
REMARK  status: ('A' for Active; 'I' for Inactive)
REMARK    1  A    between atoms: C_1  and  N_2
REMARK    2  A    between atoms: C_5  and  N_6
REMARK    3  A    between atoms: C_7  and  C_9
REMARK    4  A    between atoms: C_11  and  C_12
REMARK    5  A    between atoms: C_21  and  N_22
REMARK    6  A    between atoms: C_23  and  C_24
REMARK    7  A    between atoms: C_27  and  N_28
REMARK                            x       y       z     vdW  Elec       q    Type
REMARK                         _______ _______ _______ _____ _____    ______ ____
ROOT
ATOM      1  N   UNL     1       2.428   7.807  18.089  0.00  0.00    +0.000 N 
ATOM      2  C   UNL     1       2.203   9.174  18.050  0.00  0.00    +0.000 C 
ATOM      3  O   UNL     1       2.985   9.987  17.560  0.00  0.00    +0.000 OA
ATOM      4  H   UNL     1       1.661   7.243  18.434  0.00  0.00    +0.000 HD
ENDROOT
BRANCH   1   9
ATOM      5  C   UNL     1       6.651   5.282  17.811  0.00  0.00    +0.000 C 
ATOM      6  N   UNL     1       5.444   6.019  17.505  0.00  0.00    +0.000 N 
ATOM      7  N   UNL     1       5.433   6.733  16.364  0.00  0.00    +0.000 NA
ATOM      8  C   UNL     1       4.314   7.453  16.444  0.00  0.00    +0.000 A 
ATOM      9  C   UNL     1       3.593   7.196  17.629  0.00  0.00    +0.000 A 
ATOM     10  C   UNL     1       4.270   6.130  18.228  0.00  0.00    +0.000 A 
BRANCH  10  11
ATOM     11  C   UNL     1       3.852   5.224  19.363  0.00  0.00    +0.000 C 
ATOM     12  C   UNL     1       2.364   4.828  19.309  0.00  0.00    +0.000 C 
ATOM     13  C   UNL     1       1.972   4.155  17.988  0.00  0.00    +0.000 C 
ATOM     14  C   UNL     1       2.069   2.632  18.023  0.00  0.00    +0.000 C 
ATOM     15  C   UNL     1       3.252   2.125  18.883  0.00  0.00    +0.000 C 
ATOM     16  F   UNL     1       2.909   2.114  20.201  0.00  0.00    +0.000 F 
ATOM     17  F   UNL     1       3.476   0.817  18.563  0.00  0.00    +0.000 F 
ATOM     18  C   UNL     1       4.544   2.925  18.684  0.00  0.00    +0.000 C 
ATOM     19  O   UNL     1       4.729   4.099  19.490  0.00  0.00    +0.000 OA
BRANCH  14  20
ATOM     20  N   UNL     1       0.748   2.098  18.435  0.00  0.00    +0.000 NA
ATOM     21  H   UNL     1       0.121   2.112  17.630  0.00  0.00    +0.000 HD
ATOM     22  H   UNL     1       0.332   2.745  19.106  0.00  0.00    +0.000 HD
ENDBRANCH  14  20
ENDBRANCH  10  11
ENDBRANCH   1   9
BRANCH   2  23
ATOM     23  C   UNL     1       0.890   9.579  18.597  0.00  0.00    +0.000 A 
ATOM     24  N   UNL     1      -0.164  10.027  17.774  0.00  0.00    +0.000 NA
ATOM     25  C   UNL     1      -1.233  10.301  18.508  0.00  0.00    +0.000 A 
ATOM     26  S   UNL     1      -1.050   9.979  20.189  0.00  0.00    +0.000 S 
ATOM     27  C   UNL     1       0.593   9.580  19.956  0.00  0.00    +0.000 A 
BRANCH  25  28
ATOM     28  C   UNL     1      -2.526  10.795  18.007  0.00  0.00    +0.000 A 
ATOM     29  C   UNL     1      -3.283  11.703  18.753  0.00  0.00    +0.000 A 
ATOM     30  F   UNL     1      -2.832  12.164  19.929  0.00  0.00    +0.000 F 
ATOM     31  C   UNL     1      -4.516  12.184  18.297  0.00  0.00    +0.000 A 
ATOM     32  C   UNL     1      -5.024  11.762  17.071  0.00  0.00    +0.000 A 
ATOM     33  C   UNL     1      -4.291  10.864  16.304  0.00  0.00    +0.000 A 
ATOM     34  C   UNL     1      -3.063  10.389  16.774  0.00  0.00    +0.000 A 
ATOM     35  F   UNL     1      -2.417   9.507  15.996  0.00  0.00    +0.000 F 
ENDBRANCH  25  28
BRANCH  27  36
ATOM     36  N   UNL     1       1.373   9.309  21.023  0.00  0.00    +0.000 N 
ATOM     37  H   UNL     1       1.104   8.575  21.672  0.00  0.00    +0.000 HD
ATOM     38  H   UNL     1       1.934  10.054  21.439  0.00  0.00    +0.000 HD
ENDBRANCH  27  36
ENDBRANCH   2  23
TORSDOF 6
ENDMDL
MODEL 5
REMARK VINA RESULT:      -8.1      2.264      2.922
REMARK  Name = 
REMARK  7 active torsions:
REMARK  status: ('A' for Active; 'I' for Inactive)
REMARK    1  A    between atoms: C_1  and  N_2
REMARK    2  A    between atoms: C_5  and  N_6
REMARK    3  A    between atoms: C_7  and  C_9
REMARK    4  A    between atoms: C_11  and  C_12
REMARK    5  A    between atoms: C_21  and  N_22
REMARK    6  A    between atoms: C_23  and  C_24
REMARK    7  A    between atoms: C_27  and  N_28
REMARK                            x       y       z     vdW  Elec       q    Type
REMARK                         _______ _______ _______ _____ _____    ______ ____
ROOT
ATOM      1  N   UNL     1       3.601   8.031  18.157  0.00  0.00    +0.000 N 
ATOM      2  C   UNL     1       2.240   8.245  18.008  0.00  0.00    +0.000 C 
ATOM      3  O   UNL     1       1.517   7.585  17.264  0.00  0.00    +0.000 OA
ATOM      4  H   UNL     1       4.059   8.582  18.873  0.00  0.00    +0.000 HD
ENDROOT
BRANCH   1   9
ATOM      5  C   UNL     1       6.641   4.367  16.884  0.00  0.00    +0.000 C 
ATOM      6  N   UNL     1       5.637   5.410  16.886  0.00  0.00    +0.000 N 
ATOM      7  N   UNL     1       5.399   6.035  15.718  0.00  0.00    +0.000 NA
ATOM      8  C   UNL     1       4.609   7.055  16.054  0.00  0.00    +0.000 A 
ATOM      9  C   UNL     1       4.324   7.082  17.436  0.00  0.00    +0.000 A 
ATOM     10  C   UNL     1       4.874   5.897  17.931  0.00  0.00    +0.000 A 
BRANCH  10  11
ATOM     11  C   UNL     1       4.676   5.213  19.264  0.00  0.00    +0.000 C 
ATOM     12  C   UNL     1       3.247   5.365  19.820  0.00  0.00    +0.000 C 
ATOM     13  C   UNL     1       2.172   4.854  18.854  0.00  0.00    +0.000 C 
ATOM     14  C   UNL     1       1.786   3.395  19.082  0.00  0.00    +0.000 C 
ATOM     15  C   UNL     1       2.984   2.517  19.516  0.00  0.00    +0.000 C 
ATOM     16  F   UNL     1       3.208   2.647  20.853  0.00  0.00    +0.000 F 
ATOM     17  F   UNL     1       2.636   1.209  19.340  0.00  0.00    +0.000 F 
ATOM     18  C   UNL     1       4.273   2.808  18.739  0.00  0.00    +0.000 C 
ATOM     19  O   UNL     1       5.124   3.854  19.231  0.00  0.00    +0.000 OA
BRANCH  14  20
ATOM     20  N   UNL     1       0.641   3.366  20.026  0.00  0.00    +0.000 NA
ATOM     21  H   UNL     1       0.406   2.393  20.229  0.00  0.00    +0.000 HD
ATOM     22  H   UNL     1      -0.180   3.743  19.551  0.00  0.00    +0.000 HD
ENDBRANCH  14  20
ENDBRANCH  10  11
ENDBRANCH   1   9
BRANCH   2  23
ATOM     23  C   UNL     1       1.703   9.307  18.886  0.00  0.00    +0.000 A 
ATOM     24  N   UNL     1       1.690  10.664  18.506  0.00  0.00    +0.000 NA
ATOM     25  C   UNL     1       1.135  11.401  19.458  0.00  0.00    +0.000 A 
ATOM     26  S   UNL     1       0.552  10.507  20.808  0.00  0.00    +0.000 S 
ATOM     27  C   UNL     1       1.195   9.065  20.159  0.00  0.00    +0.000 A 
BRANCH  25  28
ATOM     28  C   UNL     1       0.946  12.861  19.426  0.00  0.00    +0.000 A 
ATOM     29  C   UNL     1       1.776  13.706  20.168  0.00  0.00    +0.000 A 
ATOM     30  F   UNL     1       2.780  13.204  20.903  0.00  0.00    +0.000 F 
ATOM     31  C   UNL     1       1.613  15.096  20.156  0.00  0.00    +0.000 A 
ATOM     32  C   UNL     1       0.606  15.678  19.391  0.00  0.00    +0.000 A 
ATOM     33  C   UNL     1      -0.232  14.863  18.638  0.00  0.00    +0.000 A 
ATOM     34  C   UNL     1      -0.060  13.476  18.663  0.00  0.00    +0.000 A 
ATOM     35  F   UNL     1      -0.917  12.746  17.932  0.00  0.00    +0.000 F 
ENDBRANCH  25  28
BRANCH  27  36
ATOM     36  N   UNL     1       1.136   7.924  20.876  0.00  0.00    +0.000 N 
ATOM     37  H   UNL     1       0.623   7.904  21.752  0.00  0.00    +0.000 HD
ATOM     38  H   UNL     1       1.908   7.257  20.825  0.00  0.00    +0.000 HD
ENDBRANCH  27  36
ENDBRANCH   2  23
TORSDOF 6
ENDMDL
MODEL 6
REMARK VINA RESULT:      -8.0      1.958      2.586
REMARK  Name = 
REMARK  7 active torsions:
REMARK  status: ('A' for Active; 'I' for Inactive)
REMARK    1  A    between atoms: C_1  and  N_2
REMARK    2  A    between atoms: C_5  and  N_6
REMARK    3  A    between atoms: C_7  and  C_9
REMARK    4  A    between atoms: C_11  and  C_12
REMARK    5  A    between atoms: C_21  and  N_22
REMARK    6  A    between atoms: C_23  and  C_24
REMARK    7  A    between atoms: C_27  and  N_28
REMARK                            x       y       z     vdW  Elec       q    Type
REMARK                         _______ _______ _______ _____ _____    ______ ____
ROOT
ATOM      1  N   UNL     1       3.227   8.493  18.044  0.00  0.00    +0.000 N 
ATOM      2  C   UNL     1       1.870   8.729  17.892  0.00  0.00    +0.000 C 
ATOM      3  O   UNL     1       1.107   7.986  17.278  0.00  0.00    +0.000 OA
ATOM      4  H   UNL     1       3.721   9.134  18.654  0.00  0.00    +0.000 HD
ENDROOT
BRANCH   1   9
ATOM      5  C   UNL     1       5.716   4.297  17.351  0.00  0.00    +0.000 C 
ATOM      6  N   UNL     1       4.957   5.515  17.167  0.00  0.00    +0.000 N 
ATOM      7  N   UNL     1       5.118   6.168  16.000  0.00  0.00    +0.000 NA
ATOM      8  C   UNL     1       4.483   7.324  16.188  0.00  0.00    +0.000 A 
ATOM      9  C   UNL     1       3.900   7.416  17.469  0.00  0.00    +0.000 A 
ATOM     10  C   UNL     1       4.083   6.150  18.030  0.00  0.00    +0.000 A 
BRANCH  10  11
ATOM     11  C   UNL     1       3.457   5.526  19.257  0.00  0.00    +0.000 C 
ATOM     12  C   UNL     1       1.965   5.191  19.075  0.00  0.00    +0.000 C 
ATOM     13  C   UNL     1       1.702   4.267  17.879  0.00  0.00    +0.000 C 
ATOM     14  C   UNL     1       1.684   2.784  18.241  0.00  0.00    +0.000 C 
ATOM     15  C   UNL     1       2.706   2.424  19.347  0.00  0.00    +0.000 C 
ATOM     16  F   UNL     1       2.194   2.711  20.576  0.00  0.00    +0.000 F 
ATOM     17  F   UNL     1       2.877   1.070  19.340  0.00  0.00    +0.000 F 
ATOM     18  C   UNL     1       4.066   3.109  19.174  0.00  0.00    +0.000 C 
ATOM     19  O   UNL     1       4.228   4.419  19.736  0.00  0.00    +0.000 OA
BRANCH  14  20
ATOM     20  N   UNL     1       0.286   2.406  18.563  0.00  0.00    +0.000 NA
ATOM     21  H   UNL     1      -0.319   3.211  18.395  0.00  0.00    +0.000 HD
ATOM     22  H   UNL     1       0.221   2.230  19.566  0.00  0.00    +0.000 HD
ENDBRANCH  14  20
ENDBRANCH  10  11
ENDBRANCH   1   9
BRANCH   2  23
ATOM     23  C   UNL     1       1.390   9.936  18.600  0.00  0.00    +0.000 A 
ATOM     24  N   UNL     1       0.362   9.886  19.563  0.00  0.00    +0.000 NA
ATOM     25  C   UNL     1       0.143  11.095  20.061  0.00  0.00    +0.000 A 
ATOM     26  S   UNL     1       1.188  12.321  19.454  0.00  0.00    +0.000 S 
ATOM     27  C   UNL     1       1.887  11.213  18.360  0.00  0.00    +0.000 A 
BRANCH  25  28
ATOM     28  C   UNL     1      -0.855  11.443  21.087  0.00  0.00    +0.000 A 
ATOM     29  C   UNL     1      -1.936  12.274  20.780  0.00  0.00    +0.000 A 
ATOM     30  F   UNL     1      -2.102  12.747  19.535  0.00  0.00    +0.000 F 
ATOM     31  C   UNL     1      -2.895  12.620  21.739  0.00  0.00    +0.000 A 
ATOM     32  C   UNL     1      -2.791  12.138  23.041  0.00  0.00    +0.000 A 
ATOM     33  C   UNL     1      -1.729  11.305  23.374  0.00  0.00    +0.000 A 
ATOM     34  C   UNL     1      -0.777  10.971  22.407  0.00  0.00    +0.000 A 
ATOM     35  F   UNL     1       0.236  10.183  22.801  0.00  0.00    +0.000 F 
ENDBRANCH  25  28
BRANCH  27  36
ATOM     36  N   UNL     1       2.792  11.645  17.457  0.00  0.00    +0.000 N 
ATOM     37  H   UNL     1       2.478  12.108  16.608  0.00  0.00    +0.000 HD
ATOM     38  H   UNL     1       3.684  11.157  17.364  0.00  0.00    +0.000 HD
ENDBRANCH  27  36
ENDBRANCH   2  23
TORSDOF 6
ENDMDL
MODEL 7
REMARK VINA RESULT:      -8.0      3.104      8.910
REMARK  Name = 
REMARK  7 active torsions:
REMARK  status: ('A' for Active; 'I' for Inactive)
REMARK    1  A    between atoms: C_1  and  N_2
REMARK    2  A    between atoms: C_5  and  N_6
REMARK    3  A    between atoms: C_7  and  C_9
REMARK    4  A    between atoms: C_11  and  C_12
REMARK    5  A    between atoms: C_21  and  N_22
REMARK    6  A    between atoms: C_23  and  C_24
REMARK    7  A    between atoms: C_27  and  N_28
REMARK                            x       y       z     vdW  Elec       q    Type
REMARK                         _______ _______ _______ _____ _____    ______ ____
ROOT
ATOM      1  N   UNL     1      -0.086  10.012  20.441  0.00  0.00    +0.000 N 
ATOM      2  C   UNL     1       1.113   9.410  20.788  0.00  0.00    +0.000 C 
ATOM      3  O   UNL     1       1.629   9.493  21.901  0.00  0.00    +0.000 OA
ATOM      4  H   UNL     1      -0.445   9.784  19.522  0.00  0.00    +0.000 HD
ENDROOT
BRANCH   1   9
ATOM      5  C   UNL     1      -2.460  13.844  22.434  0.00  0.00    +0.000 C 
ATOM      6  N   UNL     1      -1.926  12.529  22.147  0.00  0.00    +0.000 N 
ATOM      7  N   UNL     1      -1.744  11.699  23.192  0.00  0.00    +0.000 NA
ATOM      8  C   UNL     1      -1.066  10.675  22.675  0.00  0.00    +0.000 A 
ATOM      9  C   UNL     1      -0.820  10.834  21.295  0.00  0.00    +0.000 A 
ATOM     10  C   UNL     1      -1.539  11.978  20.940  0.00  0.00    +0.000 A 
BRANCH  10  11
ATOM     11  C   UNL     1      -1.903  12.517  19.575  0.00  0.00    +0.000 C 
ATOM     12  C   UNL     1      -1.427  11.617  18.419  0.00  0.00    +0.000 C 
ATOM     13  C   UNL     1      -1.953  10.180  18.524  0.00  0.00    +0.000 C 
ATOM     14  C   UNL     1      -3.260   9.948  17.771  0.00  0.00    +0.000 C 
ATOM     15  C   UNL     1      -4.205  11.173  17.816  0.00  0.00    +0.000 C 
ATOM     16  F   UNL     1      -3.844  12.085  16.871  0.00  0.00    +0.000 F 
ATOM     17  F   UNL     1      -5.453  10.758  17.452  0.00  0.00    +0.000 F 
ATOM     18  C   UNL     1      -4.275  11.845  19.192  0.00  0.00    +0.000 C 
ATOM     19  O   UNL     1      -3.293  12.848  19.493  0.00  0.00    +0.000 OA
BRANCH  14  20
ATOM     20  N   UNL     1      -2.925   9.493  16.399  0.00  0.00    +0.000 NA
ATOM     21  H   UNL     1      -1.918   9.331  16.343  0.00  0.00    +0.000 HD
ATOM     22  H   UNL     1      -3.107  10.259  15.750  0.00  0.00    +0.000 HD
ENDBRANCH  14  20
ENDBRANCH  10  11
ENDBRANCH   1   9
BRANCH   2  23
ATOM     23  C   UNL     1       1.701   8.584  19.710  0.00  0.00    +0.000 A 
ATOM     24  N   UNL     1       1.992   7.216  19.882  0.00  0.00    +0.000 NA
ATOM     25  C   UNL     1       2.485   6.709  18.761  0.00  0.00    +0.000 A 
ATOM     26  S   UNL     1       2.561   7.816  17.446  0.00  0.00    +0.000 S 
ATOM     27  C   UNL     1       2.038   9.088  18.458  0.00  0.00    +0.000 A 
BRANCH  25  28
ATOM     28  C   UNL     1       2.910   5.314  18.553  0.00  0.00    +0.000 A 
ATOM     29  C   UNL     1       4.121   4.851  19.074  0.00  0.00    +0.000 A 
ATOM     30  F   UNL     1       4.908   5.661  19.799  0.00  0.00    +0.000 F 
ATOM     31  C   UNL     1       4.547   3.530  18.886  0.00  0.00    +0.000 A 
ATOM     32  C   UNL     1       3.761   2.635  18.165  0.00  0.00    +0.000 A 
ATOM     33  C   UNL     1       2.548   3.066  17.640  0.00  0.00    +0.000 A 
ATOM     34  C   UNL     1       2.138   4.389  17.832  0.00  0.00    +0.000 A 
ATOM     35  F   UNL     1       0.968   4.746  17.279  0.00  0.00    +0.000 F 
ENDBRANCH  25  28
BRANCH  27  36
ATOM     36  N   UNL     1       1.988  10.347  17.978  0.00  0.00    +0.000 N 
ATOM     37  H   UNL     1       1.543  11.079  18.524  0.00  0.00    +0.000 HD
ATOM     38  H   UNL     1       1.963  10.502  16.969  0.00  0.00    +0.000 HD
ENDBRANCH  27  36
ENDBRANCH   2  23
TORSDOF 6
ENDMDL
MODEL 8
REMARK VINA RESULT:      -8.0      3.104      8.811
REMARK  Name = 
REMARK  7 active torsions:
REMARK  status: ('A' for Active; 'I' for Inactive)
REMARK    1  A    between atoms: C_1  and  N_2
REMARK    2  A    between atoms: C_5  and  N_6
REMARK    3  A    between atoms: C_7  and  C_9
REMARK    4  A    between atoms: C_11  and  C_12
REMARK    5  A    between atoms: C_21  and  N_22
REMARK    6  A    between atoms: C_23  and  C_24
REMARK    7  A    between atoms: C_27  and  N_28
REMARK                            x       y       z     vdW  Elec       q    Type
REMARK                         _______ _______ _______ _____ _____    ______ ____
ROOT
ATOM      1  N   UNL     1      -0.092  10.004  20.438  0.00  0.00    +0.000 N 
ATOM      2  C   UNL     1       1.118   9.421  20.782  0.00  0.00    +0.000 C 
ATOM      3  O   UNL     1       1.640   9.522  21.891  0.00  0.00    +0.000 OA
ATOM      4  H   UNL     1      -0.455   9.763  19.524  0.00  0.00    +0.000 HD
ENDROOT
BRANCH   1   9
ATOM      5  C   UNL     1      -2.480  13.829  22.426  0.00  0.00    +0.000 C 
ATOM      6  N   UNL     1      -1.943  12.516  22.140  0.00  0.00    +0.000 N 
ATOM      7  N   UNL     1      -1.766  11.684  23.183  0.00  0.00    +0.000 NA
ATOM      8  C   UNL     1      -1.084  10.662  22.668  0.00  0.00    +0.000 A 
ATOM      9  C   UNL     1      -0.832  10.823  21.290  0.00  0.00    +0.000 A 
ATOM     10  C   UNL     1      -1.550  11.967  20.933  0.00  0.00    +0.000 A 
BRANCH  10  11
ATOM     11  C   UNL     1      -1.908  12.508  19.567  0.00  0.00    +0.000 C 
ATOM     12  C   UNL     1      -1.432  11.607  18.412  0.00  0.00    +0.000 C 
ATOM     13  C   UNL     1      -1.962  10.172  18.515  0.00  0.00    +0.000 C 
ATOM     14  C   UNL     1      -3.268   9.944  17.758  0.00  0.00    +0.000 C 
ATOM     15  C   UNL     1      -4.209  11.173  17.801  0.00  0.00    +0.000 C 
ATOM     16  F   UNL     1      -3.842  12.084  16.857  0.00  0.00    +0.000 F 
ATOM     17  F   UNL     1      -5.457  10.762  17.432  0.00  0.00    +0.000 F 
ATOM     18  C   UNL     1      -4.281  11.844  19.177  0.00  0.00    +0.000 C 
ATOM     19  O   UNL     1      -3.297  12.844  19.481  0.00  0.00    +0.000 OA
BRANCH  14  20
ATOM     20  N   UNL     1      -2.930   9.489  16.387  0.00  0.00    +0.000 NA
ATOM     21  H   UNL     1      -2.596   8.525  16.433  0.00  0.00    +0.000 HD
ATOM     22  H   UNL     1      -2.131  10.030  16.054  0.00  0.00    +0.000 HD
ENDBRANCH  14  20
ENDBRANCH  10  11
ENDBRANCH   1   9
BRANCH   2  23
ATOM     23  C   UNL     1       1.709   8.594  19.707  0.00  0.00    +0.000 A 
ATOM     24  N   UNL     1       2.012   7.229  19.887  0.00  0.00    +0.000 NA
ATOM     25  C   UNL     1       2.505   6.719  18.767  0.00  0.00    +0.000 A 
ATOM     26  S   UNL     1       2.570   7.820  17.446  0.00  0.00    +0.000 S 
ATOM     27  C   UNL     1       2.039   9.093  18.451  0.00  0.00    +0.000 A 
BRANCH  25  28
ATOM     28  C   UNL     1       2.941   5.327  18.566  0.00  0.00    +0.000 A 
ATOM     29  C   UNL     1       2.147   4.425  17.853  0.00  0.00    +0.000 A 
ATOM     30  F   UNL     1       0.985   4.819  17.310  0.00  0.00    +0.000 F 
ATOM     31  C   UNL     1       2.539   3.096  17.652  0.00  0.00    +0.000 A 
ATOM     32  C   UNL     1       3.748   2.636  18.168  0.00  0.00    +0.000 A 
ATOM     33  C   UNL     1       4.561   3.512  18.878  0.00  0.00    +0.000 A 
ATOM     34  C   UNL     1       4.154   4.835  19.074  0.00  0.00    +0.000 A 
ATOM     35  F   UNL     1       4.975   5.621  19.788  0.00  0.00    +0.000 F 
ENDBRANCH  25  28
BRANCH  27  36
ATOM     36  N   UNL     1       1.979  10.349  17.964  0.00  0.00    +0.000 N 
ATOM     37  H   UNL     1       2.751  10.716  17.416  0.00  0.00    +0.000 HD
ATOM     38  H   UNL     1       1.446  11.060  18.468  0.00  0.00    +0.000 HD
ENDBRANCH  27  36
ENDBRANCH   2  23
TORSDOF 6
ENDMDL
MODEL 9
REMARK VINA RESULT:      -8.0      1.959      2.813
REMARK  Name = 
REMARK  7 active torsions:
REMARK  status: ('A' for Active; 'I' for Inactive)
REMARK    1  A    between atoms: C_1  and  N_2
REMARK    2  A    between atoms: C_5  and  N_6
REMARK    3  A    between atoms: C_7  and  C_9
REMARK    4  A    between atoms: C_11  and  C_12
REMARK    5  A    between atoms: C_21  and  N_22
REMARK    6  A    between atoms: C_23  and  C_24
REMARK    7  A    between atoms: C_27  and  N_28
REMARK                            x       y       z     vdW  Elec       q    Type
REMARK                         _______ _______ _______ _____ _____    ______ ____
ROOT
ATOM      1  N   UNL     1       3.251   8.478  18.014  0.00  0.00    +0.000 N 
ATOM      2  C   UNL     1       1.890   8.703  17.882  0.00  0.00    +0.000 C 
ATOM      3  O   UNL     1       1.122   7.949  17.285  0.00  0.00    +0.000 OA
ATOM      4  H   UNL     1       3.750   9.127  18.610  0.00  0.00    +0.000 HD
ENDROOT
BRANCH   1   9
ATOM      5  C   UNL     1       5.747   4.288  17.309  0.00  0.00    +0.000 C 
ATOM      6  N   UNL     1       4.984   5.504  17.128  0.00  0.00    +0.000 N 
ATOM      7  N   UNL     1       5.133   6.156  15.959  0.00  0.00    +0.000 NA
ATOM      8  C   UNL     1       4.497   7.310  16.150  0.00  0.00    +0.000 A 
ATOM      9  C   UNL     1       3.923   7.403  17.435  0.00  0.00    +0.000 A 
ATOM     10  C   UNL     1       4.114   6.137  17.996  0.00  0.00    +0.000 A 
BRANCH  10  11
ATOM     11  C   UNL     1       3.499   5.514  19.229  0.00  0.00    +0.000 C 
ATOM     12  C   UNL     1       2.004   5.185  19.063  0.00  0.00    +0.000 C 
ATOM     13  C   UNL     1       1.723   4.265  17.869  0.00  0.00    +0.000 C 
ATOM     14  C   UNL     1       1.704   2.781  18.228  0.00  0.00    +0.000 C 
ATOM     15  C   UNL     1       2.737   2.415  19.322  0.00  0.00    +0.000 C 
ATOM     16  F   UNL     1       2.240   2.702  20.557  0.00  0.00    +0.000 F 
ATOM     17  F   UNL     1       2.902   1.060  19.310  0.00  0.00    +0.000 F 
ATOM     18  C   UNL     1       4.098   3.094  19.135  0.00  0.00    +0.000 C 
ATOM     19  O   UNL     1       4.271   4.403  19.698  0.00  0.00    +0.000 OA
BRANCH  14  20
ATOM     20  N   UNL     1       0.308   2.408  18.564  0.00  0.00    +0.000 NA
ATOM     21  H   UNL     1       0.058   2.838  19.455  0.00  0.00    +0.000 HD
ATOM     22  H   UNL     1       0.274   1.402  18.737  0.00  0.00    +0.000 HD
ENDBRANCH  14  20
ENDBRANCH  10  11
ENDBRANCH   1   9
BRANCH   2  23
ATOM     23  C   UNL     1       1.412   9.911  18.589  0.00  0.00    +0.000 A 
ATOM     24  N   UNL     1       0.388   9.863  19.557  0.00  0.00    +0.000 NA
ATOM     25  C   UNL     1       0.170  11.073  20.053  0.00  0.00    +0.000 A 
ATOM     26  S   UNL     1       1.212  12.297  19.439  0.00  0.00    +0.000 S 
ATOM     27  C   UNL     1       1.908  11.188  18.344  0.00  0.00    +0.000 A 
BRANCH  25  28
ATOM     28  C   UNL     1      -0.824  11.422  21.081  0.00  0.00    +0.000 A 
ATOM     29  C   UNL     1      -0.717  10.918  22.380  0.00  0.00    +0.000 A 
ATOM     30  F   UNL     1       0.312  10.127  22.724  0.00  0.00    +0.000 F 
ATOM     31  C   UNL     1      -1.652  11.234  23.373  0.00  0.00    +0.000 A 
ATOM     32  C   UNL     1      -2.726  12.071  23.084  0.00  0.00    +0.000 A 
ATOM     33  C   UNL     1      -2.856  12.592  21.802  0.00  0.00    +0.000 A 
ATOM     34  C   UNL     1      -1.917  12.265  20.820  0.00  0.00    +0.000 A 
ATOM     35  F   UNL     1      -2.113  12.783  19.597  0.00  0.00    +0.000 F 
ENDBRANCH  25  28
BRANCH  27  36
ATOM     36  N   UNL     1       2.808  11.618  17.437  0.00  0.00    +0.000 N 
ATOM     37  H   UNL     1       3.735  11.903  17.740  0.00  0.00    +0.000 HD
ATOM     38  H   UNL     1       2.484  12.080  16.585  0.00  0.00    +0.000 HD
ENDBRANCH  27  36
ENDBRANCH   2  23
TORSDOF 6
ENDMDL
