MODEL 1
REMARK VINA RESULT:      -7.4      0.000      0.000
REMARK  Name = 
REMARK  4 active torsions:
REMARK  status: ('A' for Active; 'I' for Inactive)
REMARK    1  A    between atoms: C_2  and  C_18
REMARK    2  A    between atoms: N_3  and  C_4
REMARK    3  A    between atoms: C_4  and  N_5
REMARK    4  A    between atoms: C_8  and  C_9
REMARK                            x       y       z     vdW  Elec       q    Type
REMARK                         _______ _______ _______ _____ _____    ______ ____
ROOT
ATOM      1  N   UNL     1       2.980   2.197  19.776  0.00  0.00    +0.000 NA
ATOM      2  C   UNL     1       3.323   3.180  20.820  0.00  0.00    +0.000 C 
ATOM      3  C   UNL     1       2.139   3.923  21.434  0.00  0.00    +0.000 C 
ATOM      4  C   UNL     1       1.161   4.490  20.402  0.00  0.00    +0.000 C 
ATOM      5  C   UNL     1       0.749   3.362  19.450  0.00  0.00    +0.000 C 
ATOM      6  C   UNL     1       1.937   2.633  18.829  0.00  0.00    +0.000 C 
ENDROOT
BRANCH   4   7
ATOM      7  C   UNL     1       1.634   5.761  19.708  0.00  0.00    +0.000 A 
ATOM      8  C   UNL     1       2.278   5.779  18.453  0.00  0.00    +0.000 A 
ATOM      9  C   UNL     1       2.712   6.968  17.870  0.00  0.00    +0.000 A 
ATOM     10  C   UNL     1       2.502   8.168  18.522  0.00  0.00    +0.000 A 
ATOM     11  C   UNL     1       1.855   8.158  19.754  0.00  0.00    +0.000 A 
ATOM     12  N   UNL     1       1.419   6.981  20.358  0.00  0.00    +0.000 N 
ATOM     13  O   UNL     1       0.834   7.059  21.486  0.00  0.00    +0.000 OA
ENDBRANCH   4   7
BRANCH   1  14
ATOM     14  C   UNL     1       4.159   1.828  18.987  0.00  0.00    +0.000 C 
BRANCH  14  17
ATOM     15  O   UNL     1       4.450   3.605  16.829  0.00  0.00    +0.000 OA
ATOM     16  C   UNL     1       5.131   3.759  17.837  0.00  0.00    +0.000 C 
ATOM     17  N   UNL     1       5.029   2.955  18.943  0.00  0.00    +0.000 N 
ATOM     18  H   UNL     1       5.659   3.058  19.727  0.00  0.00    +0.000 HD
BRANCH  16  19
ATOM     19  C   UNL     1       6.065   4.905  17.925  0.00  0.00    +0.000 A 
ATOM     20  C   UNL     1       6.826   5.004  19.084  0.00  0.00    +0.000 A 
ATOM     21  N   UNL     1       7.765   5.960  19.303  0.00  0.00    +0.000 NA
ATOM     22  C   UNL     1       7.951   6.866  18.324  0.00  0.00    +0.000 A 
ATOM     23  C   UNL     1       7.232   6.872  17.145  0.00  0.00    +0.000 A 
ATOM     24  C   UNL     1       6.270   5.881  16.948  0.00  0.00    +0.000 A 
ATOM     25 CL   UNL     1       5.365   5.974  15.477  0.00  0.00    +0.000 Cl
ENDBRANCH  16  19
ENDBRANCH  14  17
ENDBRANCH   1  14
TORSDOF 4
ENDMDL
MODEL 2
REMARK VINA RESULT:      -7.2      3.427      6.300
REMARK  Name = 
REMARK  4 active torsions:
REMARK  status: ('A' for Active; 'I' for Inactive)
REMARK    1  A    between atoms: C_2  and  C_18
REMARK    2  A    between atoms: N_3  and  C_4
REMARK    3  A    between atoms: C_4  and  N_5
REMARK    4  A    between atoms: C_8  and  C_9
REMARK                            x       y       z     vdW  Elec       q    Type
REMARK                         _______ _______ _______ _____ _____    ______ ____
ROOT
ATOM      1  N   UNL     1       1.828   9.617  17.562  0.00  0.00    +0.000 NA
ATOM      2  C   UNL     1       0.498   9.021  17.777  0.00  0.00    +0.000 C 
ATOM      3  C   UNL     1      -0.638  10.017  18.000  0.00  0.00    +0.000 C 
ATOM      4  C   UNL     1      -0.316  11.104  19.028  0.00  0.00    +0.000 C 
ATOM      5  C   UNL     1       1.011  11.765  18.639  0.00  0.00    +0.000 C 
ATOM      6  C   UNL     1       2.145  10.765  18.431  0.00  0.00    +0.000 C 
ENDROOT
BRANCH   4   7
ATOM      7  C   UNL     1      -0.393  10.650  20.480  0.00  0.00    +0.000 A 
ATOM      8  C   UNL     1      -0.005   9.370  20.926  0.00  0.00    +0.000 A 
ATOM      9  C   UNL     1      -0.115   8.995  22.263  0.00  0.00    +0.000 A 
ATOM     10  C   UNL     1      -0.605   9.897  23.190  0.00  0.00    +0.000 A 
ATOM     11  C   UNL     1      -0.976  11.166  22.758  0.00  0.00    +0.000 A 
ATOM     12  N   UNL     1      -0.880  11.560  21.425  0.00  0.00    +0.000 N 
ATOM     13  O   UNL     1      -1.240  12.740  21.114  0.00  0.00    +0.000 OA
ENDBRANCH   4   7
BRANCH   1  14
ATOM     14  C   UNL     1       2.891   8.624  17.746  0.00  0.00    +0.000 C 
BRANCH  14  17
ATOM     15  O   UNL     1       4.185   6.136  17.928  0.00  0.00    +0.000 OA
ATOM     16  C   UNL     1       2.981   6.209  18.139  0.00  0.00    +0.000 C 
ATOM     17  N   UNL     1       2.280   7.387  18.100  0.00  0.00    +0.000 N 
ATOM     18  H   UNL     1       1.274   7.404  18.201  0.00  0.00    +0.000 HD
BRANCH  16  19
ATOM     19  C   UNL     1       2.229   4.996  18.533  0.00  0.00    +0.000 A 
ATOM     20  C   UNL     1       2.152   3.974  17.593  0.00  0.00    +0.000 A 
ATOM     21  N   UNL     1       1.549   2.778  17.812  0.00  0.00    +0.000 NA
ATOM     22  C   UNL     1       0.986   2.591  19.021  0.00  0.00    +0.000 A 
ATOM     23  C   UNL     1       0.985   3.549  20.016  0.00  0.00    +0.000 A 
ATOM     24  C   UNL     1       1.608   4.771  19.763  0.00  0.00    +0.000 A 
ATOM     25 CL   UNL     1       1.524   5.949  21.027  0.00  0.00    +0.000 Cl
ENDBRANCH  16  19
ENDBRANCH  14  17
ENDBRANCH   1  14
TORSDOF 4
ENDMDL
MODEL 3
REMARK VINA RESULT:      -7.1      2.688      5.698
REMARK  Name = 
REMARK  4 active torsions:
REMARK  status: ('A' for Active; 'I' for Inactive)
REMARK    1  A    between atoms: C_2  and  C_18
REMARK    2  A    between atoms: N_3  and  C_4
REMARK    3  A    between atoms: C_4  and  N_5
REMARK    4  A    between atoms: C_8  and  C_9
REMARK                            x       y       z     vdW  Elec       q    Type
REMARK                         _______ _______ _______ _____ _____    ______ ____
ROOT
ATOM      1  N   UNL     1       4.854   5.951  17.296  0.00  0.00    +0.000 NA
ATOM      2  C   UNL     1       5.235   5.870  18.717  0.00  0.00    +0.000 C 
ATOM      3  C   UNL     1       5.650   4.485  19.207  0.00  0.00    +0.000 C 
ATOM      4  C   UNL     1       4.683   3.369  18.801  0.00  0.00    +0.000 C 
ATOM      5  C   UNL     1       4.462   3.444  17.286  0.00  0.00    +0.000 C 
ATOM      6  C   UNL     1       4.035   4.827  16.806  0.00  0.00    +0.000 C 
ENDROOT
BRANCH   4   7
ATOM      7  C   UNL     1       3.402   3.306  19.623  0.00  0.00    +0.000 A 
ATOM      8  C   UNL     1       2.211   3.977  19.277  0.00  0.00    +0.000 A 
ATOM      9  C   UNL     1       1.071   3.905  20.075  0.00  0.00    +0.000 A 
ATOM     10  C   UNL     1       1.092   3.151  21.233  0.00  0.00    +0.000 A 
ATOM     11  C   UNL     1       2.260   2.475  21.572  0.00  0.00    +0.000 A 
ATOM     12  N   UNL     1       3.412   2.538  20.792  0.00  0.00    +0.000 N 
ATOM     13  O   UNL     1       4.438   1.888  21.173  0.00  0.00    +0.000 OA
ENDBRANCH   4   7
BRANCH   1  14
ATOM     14  C   UNL     1       4.115   7.185  17.014  0.00  0.00    +0.000 C 
BRANCH  14  17
ATOM     15  O   UNL     1       2.179   9.217  17.162  0.00  0.00    +0.000 OA
ATOM     16  C   UNL     1       2.366   8.488  18.129  0.00  0.00    +0.000 C 
ATOM     17  N   UNL     1       3.270   7.456  18.128  0.00  0.00    +0.000 N 
ATOM     18  H   UNL     1       3.459   6.923  18.966  0.00  0.00    +0.000 HD
BRANCH  16  19
ATOM     19  C   UNL     1       1.541   8.655  19.347  0.00  0.00    +0.000 A 
ATOM     20  C   UNL     1       1.716   7.714  20.355  0.00  0.00    +0.000 A 
ATOM     21  N   UNL     1       1.080   7.751  21.554  0.00  0.00    +0.000 NA
ATOM     22  C   UNL     1       0.222   8.769  21.757  0.00  0.00    +0.000 A 
ATOM     23  C   UNL     1      -0.042   9.742  20.814  0.00  0.00    +0.000 A 
ATOM     24  C   UNL     1       0.622   9.677  19.589  0.00  0.00    +0.000 A 
ATOM     25 CL   UNL     1       0.207  10.891  18.428  0.00  0.00    +0.000 Cl
ENDBRANCH  16  19
ENDBRANCH  14  17
ENDBRANCH   1  14
TORSDOF 4
ENDMDL
MODEL 4
REMARK VINA RESULT:      -7.1      3.985      6.452
REMARK  Name = 
REMARK  4 active torsions:
REMARK  status: ('A' for Active; 'I' for Inactive)
REMARK    1  A    between atoms: C_2  and  C_18
REMARK    2  A    between atoms: N_3  and  C_4
REMARK    3  A    between atoms: C_4  and  N_5
REMARK    4  A    between atoms: C_8  and  C_9
REMARK                            x       y       z     vdW  Elec       q    Type
REMARK                         _______ _______ _______ _____ _____    ______ ____
ROOT
ATOM      1  N   UNL     1       2.001   9.615  18.822  0.00  0.00    +0.000 NA
ATOM      2  C   UNL     1       1.689  10.927  18.227  0.00  0.00    +0.000 C 
ATOM      3  C   UNL     1       0.777  11.824  19.060  0.00  0.00    +0.000 C 
ATOM      4  C   UNL     1      -0.472  11.115  19.591  0.00  0.00    +0.000 C 
ATOM      5  C   UNL     1      -0.036   9.839  20.319  0.00  0.00    +0.000 C 
ATOM      6  C   UNL     1       0.864   8.941  19.475  0.00  0.00    +0.000 C 
ENDROOT
BRANCH   4   7
ATOM      7  C   UNL     1      -1.573  10.908  18.559  0.00  0.00    +0.000 A 
ATOM      8  C   UNL     1      -1.455  10.055  17.442  0.00  0.00    +0.000 A 
ATOM      9  C   UNL     1      -2.484   9.917  16.513  0.00  0.00    +0.000 A 
ATOM     10  C   UNL     1      -3.662  10.620  16.685  0.00  0.00    +0.000 A 
ATOM     11  C   UNL     1      -3.790  11.453  17.793  0.00  0.00    +0.000 A 
ATOM     12  N   UNL     1      -2.771  11.610  18.730  0.00  0.00    +0.000 N 
ATOM     13  O   UNL     1      -2.970  12.391  19.715  0.00  0.00    +0.000 OA
ENDBRANCH   4   7
BRANCH   1  14
ATOM     14  C   UNL     1       2.538   8.691  17.817  0.00  0.00    +0.000 C 
BRANCH  14  17
ATOM     15  O   UNL     1       4.094   6.351  17.825  0.00  0.00    +0.000 OA
ATOM     16  C   UNL     1       2.898   6.284  18.088  0.00  0.00    +0.000 C 
ATOM     17  N   UNL     1       2.076   7.381  18.134  0.00  0.00    +0.000 N 
ATOM     18  H   UNL     1       1.080   7.286  18.275  0.00  0.00    +0.000 HD
BRANCH  16  19
ATOM     19  C   UNL     1       2.297   4.981  18.451  0.00  0.00    +0.000 A 
ATOM     20  C   UNL     1       2.318   3.988  17.478  0.00  0.00    +0.000 A 
ATOM     21  N   UNL     1       1.859   2.725  17.664  0.00  0.00    +0.000 NA
ATOM     22  C   UNL     1       1.345   2.436  18.875  0.00  0.00    +0.000 A 
ATOM     23  C   UNL     1       1.254   3.354  19.903  0.00  0.00    +0.000 A 
ATOM     24  C   UNL     1       1.730   4.647  19.682  0.00  0.00    +0.000 A 
ATOM     25 CL   UNL     1       1.538   5.766  20.988  0.00  0.00    +0.000 Cl
ENDBRANCH  16  19
ENDBRANCH  14  17
ENDBRANCH   1  14
TORSDOF 4
ENDMDL
MODEL 5
REMARK VINA RESULT:      -7.1      1.588      1.843
REMARK  Name = 
REMARK  4 active torsions:
REMARK  status: ('A' for Active; 'I' for Inactive)
REMARK    1  A    between atoms: C_2  and  C_18
REMARK    2  A    between atoms: N_3  and  C_4
REMARK    3  A    between atoms: C_4  and  N_5
REMARK    4  A    between atoms: C_8  and  C_9
REMARK                            x       y       z     vdW  Elec       q    Type
REMARK                         _______ _______ _______ _____ _____    ______ ____
ROOT
ATOM      1  N   UNL     1       2.393   2.240  19.723  0.00  0.00    +0.000 NA
ATOM      2  C   UNL     1       3.380   3.119  20.375  0.00  0.00    +0.000 C 
ATOM      3  C   UNL     1       2.806   4.133  21.362  0.00  0.00    +0.000 C 
ATOM      4  C   UNL     1       1.604   4.911  20.820  0.00  0.00    +0.000 C 
ATOM      5  C   UNL     1       0.569   3.909  20.298  0.00  0.00    +0.000 C 
ATOM      6  C   UNL     1       1.147   2.908  19.302  0.00  0.00    +0.000 C 
ENDROOT
BRANCH   4   7
ATOM      7  C   UNL     1       1.955   6.023  19.840  0.00  0.00    +0.000 A 
ATOM      8  C   UNL     1       2.535   5.803  18.573  0.00  0.00    +0.000 A 
ATOM      9  C   UNL     1       2.858   6.857  17.722  0.00  0.00    +0.000 A 
ATOM     10  C   UNL     1       2.599   8.157  18.112  0.00  0.00    +0.000 A 
ATOM     11  C   UNL     1       2.014   8.381  19.354  0.00  0.00    +0.000 A 
ATOM     12  N   UNL     1       1.689   7.342  20.224  0.00  0.00    +0.000 N 
ATOM     13  O   UNL     1       1.155   7.633  21.342  0.00  0.00    +0.000 OA
ENDBRANCH   4   7
BRANCH   1  14
ATOM     14  C   UNL     1       2.961   1.590  18.538  0.00  0.00    +0.000 C 
BRANCH  14  17
ATOM     15  O   UNL     1       2.996   3.469  16.448  0.00  0.00    +0.000 OA
ATOM     16  C   UNL     1       4.027   3.232  17.067  0.00  0.00    +0.000 C 
ATOM     17  N   UNL     1       4.088   2.352  18.118  0.00  0.00    +0.000 N 
ATOM     18  H   UNL     1       4.968   2.117  18.556  0.00  0.00    +0.000 HD
BRANCH  16  19
ATOM     19  C   UNL     1       5.268   3.969  16.738  0.00  0.00    +0.000 A 
ATOM     20  C   UNL     1       5.747   3.841  15.439  0.00  0.00    +0.000 A 
ATOM     21  N   UNL     1       6.838   4.490  14.959  0.00  0.00    +0.000 NA
ATOM     22  C   UNL     1       7.491   5.300  15.815  0.00  0.00    +0.000 A 
ATOM     23  C   UNL     1       7.113   5.479  17.131  0.00  0.00    +0.000 A 
ATOM     24  C   UNL     1       5.990   4.796  17.599  0.00  0.00    +0.000 A 
ATOM     25 CL   UNL     1       5.601   5.019  19.270  0.00  0.00    +0.000 Cl
ENDBRANCH  16  19
ENDBRANCH  14  17
ENDBRANCH   1  14
TORSDOF 4
ENDMDL
MODEL 6
REMARK VINA RESULT:      -7.1      3.889      6.006
REMARK  Name = 
REMARK  4 active torsions:
REMARK  status: ('A' for Active; 'I' for Inactive)
REMARK    1  A    between atoms: C_2  and  C_18
REMARK    2  A    between atoms: N_3  and  C_4
REMARK    3  A    between atoms: C_4  and  N_5
REMARK    4  A    between atoms: C_8  and  C_9
REMARK                            x       y       z     vdW  Elec       q    Type
REMARK                         _______ _______ _______ _____ _____    ______ ____
ROOT
ATOM      1  N   UNL     1       1.201   9.316  20.800  0.00  0.00    +0.000 NA
ATOM      2  C   UNL     1       1.301   9.650  19.368  0.00  0.00    +0.000 C 
ATOM      3  C   UNL     1       1.030  11.111  19.015  0.00  0.00    +0.000 C 
ATOM      4  C   UNL     1      -0.239  11.678  19.657  0.00  0.00    +0.000 C 
ATOM      5  C   UNL     1      -0.184  11.411  21.165  0.00  0.00    +0.000 C 
ATOM      6  C   UNL     1       0.074   9.947  21.510  0.00  0.00    +0.000 C 
ENDROOT
BRANCH   4   7
ATOM      7  C   UNL     1      -1.537  11.247  18.987  0.00  0.00    +0.000 A 
ATOM      8  C   UNL     1      -1.651  10.126  18.139  0.00  0.00    +0.000 A 
ATOM      9  C   UNL     1      -2.859   9.786  17.532  0.00  0.00    +0.000 A 
ATOM     10  C   UNL     1      -3.985  10.552  17.769  0.00  0.00    +0.000 A 
ATOM     11  C   UNL     1      -3.882  11.651  18.616  0.00  0.00    +0.000 A 
ATOM     12  N   UNL     1      -2.684  12.012  19.228  0.00  0.00    +0.000 N 
ATOM     13  O   UNL     1      -2.676  13.031  19.990  0.00  0.00    +0.000 OA
ENDBRANCH   4   7
BRANCH   1  14
ATOM     14  C   UNL     1       1.088   7.868  21.000  0.00  0.00    +0.000 C 
BRANCH  14  17
ATOM     15  O   UNL     1       1.546   5.101  20.820  0.00  0.00    +0.000 OA
ATOM     16  C   UNL     1       2.207   5.871  20.132  0.00  0.00    +0.000 C 
ATOM     17  N   UNL     1       2.026   7.231  20.139  0.00  0.00    +0.000 N 
ATOM     18  H   UNL     1       2.639   7.845  19.622  0.00  0.00    +0.000 HD
BRANCH  16  19
ATOM     19  C   UNL     1       3.207   5.334  19.181  0.00  0.00    +0.000 A 
ATOM     20  C   UNL     1       4.542   5.605  19.457  0.00  0.00    +0.000 A 
ATOM     21  N   UNL     1       5.584   5.143  18.720  0.00  0.00    +0.000 NA
ATOM     22  C   UNL     1       5.283   4.381  17.650  0.00  0.00    +0.000 A 
ATOM     23  C   UNL     1       3.991   4.073  17.275  0.00  0.00    +0.000 A 
ATOM     24  C   UNL     1       2.939   4.564  18.048  0.00  0.00    +0.000 A 
ATOM     25 CL   UNL     1       1.343   4.190  17.495  0.00  0.00    +0.000 Cl
ENDBRANCH  16  19
ENDBRANCH  14  17
ENDBRANCH   1  14
TORSDOF 4
ENDMDL
MODEL 7
REMARK VINA RESULT:      -7.0      3.030      6.839
REMARK  Name = 
REMARK  4 active torsions:
REMARK  status: ('A' for Active; 'I' for Inactive)
REMARK    1  A    between atoms: C_2  and  C_18
REMARK    2  A    between atoms: N_3  and  C_4
REMARK    3  A    between atoms: C_4  and  N_5
REMARK    4  A    between atoms: C_8  and  C_9
REMARK                            x       y       z     vdW  Elec       q    Type
REMARK                         _______ _______ _______ _____ _____    ______ ____
ROOT
ATOM      1  N   UNL     1       5.129   5.775  18.376  0.00  0.00    +0.000 NA
ATOM      2  C   UNL     1       5.861   4.512  18.178  0.00  0.00    +0.000 C 
ATOM      3  C   UNL     1       7.250   4.649  17.559  0.00  0.00    +0.000 C 
ATOM      4  C   UNL     1       7.288   5.542  16.316  0.00  0.00    +0.000 C 
ATOM      5  C   UNL     1       6.635   6.885  16.660  0.00  0.00    +0.000 C 
ATOM      6  C   UNL     1       5.242   6.741  17.266  0.00  0.00    +0.000 C 
ENDROOT
BRANCH   4   7
ATOM      7  C   UNL     1       6.756   4.889  15.047  0.00  0.00    +0.000 A 
ATOM      8  C   UNL     1       5.595   4.089  14.999  0.00  0.00    +0.000 A 
ATOM      9  C   UNL     1       5.162   3.496  13.816  0.00  0.00    +0.000 A 
ATOM     10  C   UNL     1       5.872   3.697  12.648  0.00  0.00    +0.000 A 
ATOM     11  C   UNL     1       7.011   4.497  12.685  0.00  0.00    +0.000 A 
ATOM     12  N   UNL     1       7.465   5.095  13.858  0.00  0.00    +0.000 N 
ATOM     13  O   UNL     1       8.514   5.813  13.805  0.00  0.00    +0.000 OA
ENDBRANCH   4   7
BRANCH   1  14
ATOM     14  C   UNL     1       3.700   5.531  18.598  0.00  0.00    +0.000 C 
BRANCH  14  17
ATOM     15  O   UNL     1       1.775   5.876  20.616  0.00  0.00    +0.000 OA
ATOM     16  C   UNL     1       2.142   6.842  19.958  0.00  0.00    +0.000 C 
ATOM     17  N   UNL     1       3.098   6.765  18.976  0.00  0.00    +0.000 N 
ATOM     18  H   UNL     1       3.322   7.562  18.398  0.00  0.00    +0.000 HD
BRANCH  16  19
ATOM     19  C   UNL     1       1.603   8.187  20.263  0.00  0.00    +0.000 A 
ATOM     20  C   UNL     1       1.448   8.510  21.606  0.00  0.00    +0.000 A 
ATOM     21  N   UNL     1       1.019   9.716  22.057  0.00  0.00    +0.000 NA
ATOM     22  C   UNL     1       0.721  10.644  21.127  0.00  0.00    +0.000 A 
ATOM     23  C   UNL     1       0.818  10.419  19.769  0.00  0.00    +0.000 A 
ATOM     24  C   UNL     1       1.257   9.169  19.332  0.00  0.00    +0.000 A 
ATOM     25 CL   UNL     1       1.303   8.929  17.619  0.00  0.00    +0.000 Cl
ENDBRANCH  16  19
ENDBRANCH  14  17
ENDBRANCH   1  14
TORSDOF 4
ENDMDL
MODEL 8
REMARK VINA RESULT:      -7.0      3.699      5.464
REMARK  Name = 
REMARK  4 active torsions:
REMARK  status: ('A' for Active; 'I' for Inactive)
REMARK    1  A    between atoms: C_2  and  C_18
REMARK    2  A    between atoms: N_3  and  C_4
REMARK    3  A    between atoms: C_4  and  N_5
REMARK    4  A    between atoms: C_8  and  C_9
REMARK                            x       y       z     vdW  Elec       q    Type
REMARK                         _______ _______ _______ _____ _____    ______ ____
ROOT
ATOM      1  N   UNL     1       1.939   8.606  19.491  0.00  0.00    +0.000 NA
ATOM      2  C   UNL     1       1.874   9.251  18.167  0.00  0.00    +0.000 C 
ATOM      3  C   UNL     1       1.633  10.758  18.183  0.00  0.00    +0.000 C 
ATOM      4  C   UNL     1       0.483  11.191  19.096  0.00  0.00    +0.000 C 
ATOM      5  C   UNL     1       0.714  10.592  20.488  0.00  0.00    +0.000 C 
ATOM      6  C   UNL     1       0.941   9.084  20.466  0.00  0.00    +0.000 C 
ENDROOT
BRANCH   4   7
ATOM      7  C   UNL     1      -0.908  10.947  18.527  0.00  0.00    +0.000 A 
ATOM      8  C   UNL     1      -1.208   9.940  17.585  0.00  0.00    +0.000 A 
ATOM      9  C   UNL     1      -2.495   9.772  17.078  0.00  0.00    +0.000 A 
ATOM     10  C   UNL     1      -3.516  10.597  17.509  0.00  0.00    +0.000 A 
ATOM     11  C   UNL     1      -3.230  11.583  18.449  0.00  0.00    +0.000 A 
ATOM     12  N   UNL     1      -1.950  11.773  18.965  0.00  0.00    +0.000 N 
ATOM     13  O   UNL     1      -1.773  12.697  19.822  0.00  0.00    +0.000 OA
ENDBRANCH   4   7
BRANCH   1  14
ATOM     14  C   UNL     1       1.781   7.152  19.381  0.00  0.00    +0.000 C 
BRANCH  14  17
ATOM     15  O   UNL     1       4.141   5.635  19.540  0.00  0.00    +0.000 OA
ATOM     16  C   UNL     1       3.722   5.991  18.445  0.00  0.00    +0.000 C 
ATOM     17  N   UNL     1       2.564   6.707  18.279  0.00  0.00    +0.000 N 
ATOM     18  H   UNL     1       2.287   7.054  17.371  0.00  0.00    +0.000 HD
BRANCH  16  19
ATOM     19  C   UNL     1       4.437   5.580  17.215  0.00  0.00    +0.000 A 
ATOM     20  C   UNL     1       4.968   6.597  16.430  0.00  0.00    +0.000 A 
ATOM     21  N   UNL     1       5.696   6.391  15.303  0.00  0.00    +0.000 NA
ATOM     22  C   UNL     1       5.899   5.112  14.933  0.00  0.00    +0.000 A 
ATOM     23  C   UNL     1       5.397   4.030  15.628  0.00  0.00    +0.000 A 
ATOM     24  C   UNL     1       4.648   4.270  16.781  0.00  0.00    +0.000 A 
ATOM     25 CL   UNL     1       3.999   2.877  17.575  0.00  0.00    +0.000 Cl
ENDBRANCH  16  19
ENDBRANCH  14  17
ENDBRANCH   1  14
TORSDOF 4
ENDMDL
MODEL 9
REMARK VINA RESULT:      -6.9      3.768      6.261
REMARK  Name = 
REMARK  4 active torsions:
REMARK  status: ('A' for Active; 'I' for Inactive)
REMARK    1  A    between atoms: C_2  and  C_18
REMARK    2  A    between atoms: N_3  and  C_4
REMARK    3  A    between atoms: C_4  and  N_5
REMARK    4  A    between atoms: C_8  and  C_9
REMARK                            x       y       z     vdW  Elec       q    Type
REMARK                         _______ _______ _______ _____ _____    ______ ____
ROOT
ATOM      1  N   UNL     1       2.041   9.440  18.956  0.00  0.00    +0.000 NA
ATOM      2  C   UNL     1       1.797  10.658  18.162  0.00  0.00    +0.000 C 
ATOM      3  C   UNL     1       1.004  11.754  18.870  0.00  0.00    +0.000 C 
ATOM      4  C   UNL     1      -0.263  11.251  19.565  0.00  0.00    +0.000 C 
ATOM      5  C   UNL     1       0.115  10.080  20.479  0.00  0.00    +0.000 C 
ATOM      6  C   UNL     1       0.895   8.982  19.763  0.00  0.00    +0.000 C 
ENDROOT
BRANCH   4   7
ATOM      7  C   UNL     1      -1.433  10.969  18.631  0.00  0.00    +0.000 A 
ATOM      8  C   UNL     1      -1.380  10.061  17.553  0.00  0.00    +0.000 A 
ATOM      9  C   UNL     1      -2.472   9.856  16.714  0.00  0.00    +0.000 A 
ATOM     10  C   UNL     1      -3.649  10.545  16.938  0.00  0.00    +0.000 A 
ATOM     11  C   UNL     1      -3.713  11.431  18.008  0.00  0.00    +0.000 A 
ATOM     12  N   UNL     1      -2.631  11.657  18.857  0.00  0.00    +0.000 N 
ATOM     13  O   UNL     1      -2.773  12.484  19.814  0.00  0.00    +0.000 OA
ENDBRANCH   4   7
BRANCH   1  14
ATOM     14  C   UNL     1       2.448   8.321  18.101  0.00  0.00    +0.000 C 
BRANCH  14  17
ATOM     15  O   UNL     1       3.551   5.806  17.503  0.00  0.00    +0.000 OA
ATOM     16  C   UNL     1       2.770   5.918  18.440  0.00  0.00    +0.000 C 
ATOM     17  N   UNL     1       2.211   7.113  18.816  0.00  0.00    +0.000 N 
ATOM     18  H   UNL     1       1.509   7.159  19.541  0.00  0.00    +0.000 HD
BRANCH  16  19
ATOM     19  C   UNL     1       2.450   4.737  19.275  0.00  0.00    +0.000 A 
ATOM     20  C   UNL     1       2.309   4.956  20.641  0.00  0.00    +0.000 A 
ATOM     21  N   UNL     1       1.965   3.996  21.537  0.00  0.00    +0.000 NA
ATOM     22  C   UNL     1       1.760   2.756  21.053  0.00  0.00    +0.000 A 
ATOM     23  C   UNL     1       1.897   2.427  19.719  0.00  0.00    +0.000 A 
ATOM     24  C   UNL     1       2.255   3.432  18.820  0.00  0.00    +0.000 A 
ATOM     25 CL   UNL     1       2.466   2.946  17.173  0.00  0.00    +0.000 Cl
ENDBRANCH  16  19
ENDBRANCH  14  17
ENDBRANCH   1  14
TORSDOF 4
ENDMDL
