MODEL 1
REMARK VINA RESULT:      -6.7      0.000      0.000
REMARK  Name = 
REMARK  6 active torsions:
REMARK  status: ('A' for Active; 'I' for Inactive)
REMARK    1  A    between atoms: C_1  and  O_2
REMARK    2  A    between atoms: O_2  and  C_3
REMARK    3  A    between atoms: N_6  and  C_7
REMARK    4  A    between atoms: C_10  and  C_11
REMARK    5  A    between atoms: C_18  and  C_19
REMARK    6  A    between atoms: C_21  and  N_22
REMARK                            x       y       z     vdW  Elec       q    Type
REMARK                         _______ _______ _______ _____ _____    ______ ____
ROOT
ATOM      1  C   UNL     1       3.914   5.203  18.517  0.00  0.00    +0.000 C 
ATOM      2  C   UNL     1       3.325   4.171  19.496  0.00  0.00    +0.000 C 
ATOM      3  C   UNL     1       1.970   3.719  18.904  0.00  0.00    +0.000 C 
ATOM      4  N   UNL     1       2.137   2.960  17.663  0.00  0.00    +0.000 NA
ATOM      5  C   UNL     1       2.608   1.608  17.957  0.00  0.00    +0.000 C 
ATOM      6  C   UNL     1       2.896   3.699  16.636  0.00  0.00    +0.000 C 
ATOM      7  C   UNL     1       4.190   4.339  17.141  0.00  0.00    +0.000 C 
ATOM      8  C   UNL     1       5.027   5.147  16.047  0.00  0.00    +0.000 C 
ATOM      9  C   UNL     1       6.166   5.788  16.863  0.00  0.00    +0.000 C 
ATOM     10  C   UNL     1       5.647   6.569  17.816  0.00  0.00    +0.000 C 
ATOM     11  O   UNL     1       5.173   5.802  18.927  0.00  0.00    +0.000 OA
ENDROOT
BRANCH   8  12
ATOM     12  C   UNL     1       5.608   4.650  14.699  0.00  0.00    +0.000 A 
ATOM     13  C   UNL     1       5.083   3.661  13.883  0.00  0.00    +0.000 A 
ATOM     14  C   UNL     1       5.763   3.279  12.699  0.00  0.00    +0.000 A 
ATOM     15  C   UNL     1       6.982   3.867  12.357  0.00  0.00    +0.000 A 
ATOM     16  F   UNL     1       7.623   3.479  11.238  0.00  0.00    +0.000 F 
ATOM     17  C   UNL     1       7.551   4.838  13.162  0.00  0.00    +0.000 A 
ATOM     18  C   UNL     1       6.865   5.224  14.319  0.00  0.00    +0.000 A 
ENDBRANCH   8  12
BRANCH  10  19
ATOM     19  N   UNL     1       4.914   7.703  17.514  0.00  0.00    +0.000 N 
ATOM     20  H   UNL     1       4.849   7.888  16.514  0.00  0.00    +0.000 HD
ATOM     21  H   UNL     1       3.960   7.615  17.861  0.00  0.00    +0.000 HD
ENDBRANCH  10  19
BRANCH   1  23
ATOM     22  C   UNL     1       2.527   6.667  19.866  0.00  0.00    +0.000 C 
ATOM     23  O   UNL     1       2.941   6.299  18.509  0.00  0.00    +0.000 OA
ENDBRANCH   1  23
BRANCH   9  24
ATOM     24  C   UNL     1       7.239   4.928  17.252  0.00  0.00    +0.000 C 
ATOM     25  N   UNL     1       8.082   4.218  17.617  0.00  0.00    +0.000 NA
ENDBRANCH   9  24
TORSDOF 4
ENDMDL
MODEL 2
REMARK VINA RESULT:      -6.6      0.831      1.301
REMARK  Name = 
REMARK  6 active torsions:
REMARK  status: ('A' for Active; 'I' for Inactive)
REMARK    1  A    between atoms: C_1  and  O_2
REMARK    2  A    between atoms: O_2  and  C_3
REMARK    3  A    between atoms: N_6  and  C_7
REMARK    4  A    between atoms: C_10  and  C_11
REMARK    5  A    between atoms: C_18  and  C_19
REMARK    6  A    between atoms: C_21  and  N_22
REMARK                            x       y       z     vdW  Elec       q    Type
REMARK                         _______ _______ _______ _____ _____    ______ ____
ROOT
ATOM      1  C   UNL     1       3.660   4.865  18.796  0.00  0.00    +0.000 C 
ATOM      2  C   UNL     1       3.442   3.764  19.849  0.00  0.00    +0.000 C 
ATOM      3  C   UNL     1       2.394   2.789  19.264  0.00  0.00    +0.000 C 
ATOM      4  N   UNL     1       2.910   2.059  18.104  0.00  0.00    +0.000 NA
ATOM      5  C   UNL     1       3.835   1.012  18.535  0.00  0.00    +0.000 C 
ATOM      6  C   UNL     1       3.398   2.951  17.034  0.00  0.00    +0.000 C 
ATOM      7  C   UNL     1       4.323   4.069  17.514  0.00  0.00    +0.000 C 
ATOM      8  C   UNL     1       4.862   5.049  16.375  0.00  0.00    +0.000 C 
ATOM      9  C   UNL     1       5.625   6.134  17.160  0.00  0.00    +0.000 C 
ATOM     10  C   UNL     1       4.794   6.729  18.021  0.00  0.00    +0.000 C 
ATOM     11  O   UNL     1       4.575   5.925  19.184  0.00  0.00    +0.000 OA
ENDROOT
BRANCH   8  12
ATOM     12  C   UNL     1       5.668   4.711  15.095  0.00  0.00    +0.000 A 
ATOM     13  C   UNL     1       6.928   5.182  14.759  0.00  0.00    +0.000 A 
ATOM     14  C   UNL     1       7.516   4.820  13.521  0.00  0.00    +0.000 A 
ATOM     15  C   UNL     1       6.826   4.018  12.612  0.00  0.00    +0.000 A 
ATOM     16  F   UNL     1       7.393   3.700  11.433  0.00  0.00    +0.000 F 
ATOM     17  C   UNL     1       5.554   3.552  12.901  0.00  0.00    +0.000 A 
ATOM     18  C   UNL     1       4.988   3.896  14.133  0.00  0.00    +0.000 A 
ENDBRANCH   8  12
BRANCH  10  19
ATOM     19  N   UNL     1       3.710   7.475  17.595  0.00  0.00    +0.000 N 
ATOM     20  H   UNL     1       2.822   7.152  17.975  0.00  0.00    +0.000 HD
ATOM     21  H   UNL     1       3.815   8.450  17.874  0.00  0.00    +0.000 HD
ENDBRANCH  10  19
BRANCH   1  23
ATOM     22  C   UNL     1       1.849   5.999  19.946  0.00  0.00    +0.000 C 
ATOM     23  O   UNL     1       2.349   5.507  18.659  0.00  0.00    +0.000 OA
ENDBRANCH   1  23
BRANCH   9  24
ATOM     24  C   UNL     1       6.917   5.776  17.657  0.00  0.00    +0.000 C 
ATOM     25  N   UNL     1       7.941   5.474  18.112  0.00  0.00    +0.000 NA
ENDBRANCH   9  24
TORSDOF 4
ENDMDL
MODEL 3
REMARK VINA RESULT:      -6.4      3.503      6.636
REMARK  Name = 
REMARK  6 active torsions:
REMARK  status: ('A' for Active; 'I' for Inactive)
REMARK    1  A    between atoms: C_1  and  O_2
REMARK    2  A    between atoms: O_2  and  C_3
REMARK    3  A    between atoms: N_6  and  C_7
REMARK    4  A    between atoms: C_10  and  C_11
REMARK    5  A    between atoms: C_18  and  C_19
REMARK    6  A    between atoms: C_21  and  N_22
REMARK                            x       y       z     vdW  Elec       q    Type
REMARK                         _______ _______ _______ _____ _____    ______ ____
ROOT
ATOM      1  C   UNL     1       5.164   4.543  17.222  0.00  0.00    +0.000 C 
ATOM      2  C   UNL     1       6.692   4.468  17.396  0.00  0.00    +0.000 C 
ATOM      3  C   UNL     1       7.296   5.589  16.519  0.00  0.00    +0.000 C 
ATOM      4  N   UNL     1       6.957   6.923  17.021  0.00  0.00    +0.000 NA
ATOM      5  C   UNL     1       7.757   7.237  18.203  0.00  0.00    +0.000 C 
ATOM      6  C   UNL     1       5.503   7.135  17.152  0.00  0.00    +0.000 C 
ATOM      7  C   UNL     1       4.758   6.005  17.865  0.00  0.00    +0.000 C 
ATOM      8  C   UNL     1       3.182   6.211  18.016  0.00  0.00    +0.000 C 
ATOM      9  C   UNL     1       2.699   4.879  18.621  0.00  0.00    +0.000 C 
ATOM     10  C   UNL     1       3.025   3.873  17.803  0.00  0.00    +0.000 C 
ATOM     11  O   UNL     1       4.407   3.522  17.925  0.00  0.00    +0.000 OA
ENDROOT
BRANCH   8  12
ATOM     12  C   UNL     1       2.409   7.369  18.697  0.00  0.00    +0.000 A 
ATOM     13  C   UNL     1       2.035   7.447  20.029  0.00  0.00    +0.000 A 
ATOM     14  C   UNL     1       1.280   8.553  20.493  0.00  0.00    +0.000 A 
ATOM     15  C   UNL     1       0.874   9.558  19.614  0.00  0.00    +0.000 A 
ATOM     16  F   UNL     1       0.141  10.591  20.069  0.00  0.00    +0.000 F 
ATOM     17  C   UNL     1       1.204   9.500  18.271  0.00  0.00    +0.000 A 
ATOM     18  C   UNL     1       1.966   8.415  17.823  0.00  0.00    +0.000 A 
ENDBRANCH   8  12
BRANCH  10  19
ATOM     19  N   UNL     1       2.487   3.758  16.534  0.00  0.00    +0.000 N 
ATOM     20  H   UNL     1       2.507   4.629  16.005  0.00  0.00    +0.000 HD
ATOM     21  H   UNL     1       3.003   3.068  15.988  0.00  0.00    +0.000 HD
ENDBRANCH  10  19
BRANCH   1  23
ATOM     22  C   UNL     1       5.934   3.349  15.255  0.00  0.00    +0.000 C 
ATOM     23  O   UNL     1       4.944   4.285  15.796  0.00  0.00    +0.000 OA
ENDBRANCH   1  23
BRANCH   9  24
ATOM     24  C   UNL     1       2.946   4.680  20.014  0.00  0.00    +0.000 C 
ATOM     25  N   UNL     1       3.091   4.499  21.152  0.00  0.00    +0.000 NA
ENDBRANCH   9  24
TORSDOF 4
ENDMDL
MODEL 4
REMARK VINA RESULT:      -6.0      9.350     12.154
REMARK  Name = 
REMARK  6 active torsions:
REMARK  status: ('A' for Active; 'I' for Inactive)
REMARK    1  A    between atoms: C_1  and  O_2
REMARK    2  A    between atoms: O_2  and  C_3
REMARK    3  A    between atoms: N_6  and  C_7
REMARK    4  A    between atoms: C_10  and  C_11
REMARK    5  A    between atoms: C_18  and  C_19
REMARK    6  A    between atoms: C_21  and  N_22
REMARK                            x       y       z     vdW  Elec       q    Type
REMARK                         _______ _______ _______ _____ _____    ______ ____
ROOT
ATOM      1  C   UNL     1       9.716  13.784  18.815  0.00  0.00    +0.000 C 
ATOM      2  C   UNL     1       9.490  12.796  17.656  0.00  0.00    +0.000 C 
ATOM      3  C   UNL     1      10.488  11.633  17.862  0.00  0.00    +0.000 C 
ATOM      4  N   UNL     1      10.174  10.843  19.054  0.00  0.00    +0.000 NA
ATOM      5  C   UNL     1       9.021   9.981  18.802  0.00  0.00    +0.000 C 
ATOM      6  C   UNL     1      10.114  11.658  20.283  0.00  0.00    +0.000 C 
ATOM      7  C   UNL     1       9.281  12.934  20.158  0.00  0.00    +0.000 C 
ATOM      8  C   UNL     1       9.204  13.833  21.475  0.00  0.00    +0.000 C 
ATOM      9  C   UNL     1       8.444  15.091  21.011  0.00  0.00    +0.000 C 
ATOM     10  C   UNL     1       9.114  15.673  20.011  0.00  0.00    +0.000 C 
ATOM     11  O   UNL     1       8.907  14.991  18.770  0.00  0.00    +0.000 OA
ENDROOT
BRANCH   8  12
ATOM     12  C   UNL     1       8.702  13.452  22.891  0.00  0.00    +0.000 A 
ATOM     13  C   UNL     1       8.758  14.239  24.031  0.00  0.00    +0.000 A 
ATOM     14  C   UNL     1       8.303  13.726  25.272  0.00  0.00    +0.000 A 
ATOM     15  C   UNL     1       7.829  12.418  25.372  0.00  0.00    +0.000 A 
ATOM     16  F   UNL     1       7.419  11.943  26.563  0.00  0.00    +0.000 F 
ATOM     17  C   UNL     1       7.785  11.594  24.261  0.00  0.00    +0.000 A 
ATOM     18  C   UNL     1       8.217  12.112  23.035  0.00  0.00    +0.000 A 
ENDBRANCH   8  12
BRANCH  10  19
ATOM     19  N   UNL     1      10.372  16.219  20.193  0.00  0.00    +0.000 N 
ATOM     20  H   UNL     1      10.366  17.071  20.751  0.00  0.00    +0.000 HD
ATOM     21  H   UNL     1      10.983  15.556  20.669  0.00  0.00    +0.000 HD
ENDBRANCH  10  19
BRANCH   1  23
ATOM     22  C   UNL     1      11.345  14.758  17.303  0.00  0.00    +0.000 C 
ATOM     23  O   UNL     1      11.102  14.233  18.650  0.00  0.00    +0.000 OA
ENDBRANCH   1  23
BRANCH   9  24
ATOM     24  C   UNL     1       7.030  14.963  20.847  0.00  0.00    +0.000 C 
ATOM     25  N   UNL     1       5.877  14.853  20.774  0.00  0.00    +0.000 NA
ENDBRANCH   9  24
TORSDOF 4
ENDMDL
MODEL 5
REMARK VINA RESULT:      -6.0      9.317     12.103
REMARK  Name = 
REMARK  6 active torsions:
REMARK  status: ('A' for Active; 'I' for Inactive)
REMARK    1  A    between atoms: C_1  and  O_2
REMARK    2  A    between atoms: O_2  and  C_3
REMARK    3  A    between atoms: N_6  and  C_7
REMARK    4  A    between atoms: C_10  and  C_11
REMARK    5  A    between atoms: C_18  and  C_19
REMARK    6  A    between atoms: C_21  and  N_22
REMARK                            x       y       z     vdW  Elec       q    Type
REMARK                         _______ _______ _______ _____ _____    ______ ____
ROOT
ATOM      1  C   UNL     1       9.852  13.733  19.003  0.00  0.00    +0.000 C 
ATOM      2  C   UNL     1       9.604  12.913  17.724  0.00  0.00    +0.000 C 
ATOM      3  C   UNL     1      10.496  11.653  17.823  0.00  0.00    +0.000 C 
ATOM      4  N   UNL     1      10.064  10.756  18.896  0.00  0.00    +0.000 NA
ATOM      5  C   UNL     1       8.859  10.031  18.497  0.00  0.00    +0.000 C 
ATOM      6  C   UNL     1      10.009  11.420  20.213  0.00  0.00    +0.000 C 
ATOM      7  C   UNL     1       9.288  12.768  20.214  0.00  0.00    +0.000 C 
ATOM      8  C   UNL     1       9.219  13.508  21.628  0.00  0.00    +0.000 C 
ATOM      9  C   UNL     1       8.585  14.871  21.293  0.00  0.00    +0.000 C 
ATOM     10  C   UNL     1       9.345  15.510  20.398  0.00  0.00    +0.000 C 
ATOM     11  O   UNL     1       9.145  15.000  19.077  0.00  0.00    +0.000 OA
ENDROOT
BRANCH   8  12
ATOM     12  C   UNL     1       8.622  13.004  22.966  0.00  0.00    +0.000 A 
ATOM     13  C   UNL     1       7.904  11.835  23.167  0.00  0.00    +0.000 A 
ATOM     14  C   UNL     1       7.374  11.536  24.448  0.00  0.00    +0.000 A 
ATOM     15  C   UNL     1       7.537  12.425  25.511  0.00  0.00    +0.000 A 
ATOM     16  F   UNL     1       7.011  12.133  26.715  0.00  0.00    +0.000 F 
ATOM     17  C   UNL     1       8.223  13.615  25.341  0.00  0.00    +0.000 A 
ATOM     18  C   UNL     1       8.760  13.895  24.079  0.00  0.00    +0.000 A 
ENDBRANCH   8  12
BRANCH  10  19
ATOM     19  N   UNL     1      10.632  15.921  20.693  0.00  0.00    +0.000 N 
ATOM     20  H   UNL     1      11.351  15.376  20.219  0.00  0.00    +0.000 HD
ATOM     21  H   UNL     1      10.769  16.894  20.417  0.00  0.00    +0.000 HD
ENDBRANCH  10  19
BRANCH   1  23
ATOM     22  C   UNL     1      11.628  14.719  17.676  0.00  0.00    +0.000 C 
ATOM     23  O   UNL     1      11.275  14.079  18.947  0.00  0.00    +0.000 OA
ENDBRANCH   1  23
BRANCH   9  24
ATOM     24  C   UNL     1       7.174  14.883  21.062  0.00  0.00    +0.000 C 
ATOM     25  N   UNL     1       6.023  14.851  20.915  0.00  0.00    +0.000 NA
ENDBRANCH   9  24
TORSDOF 4
ENDMDL
MODEL 6
REMARK VINA RESULT:      -5.9      5.978      8.471
REMARK  Name = 
REMARK  6 active torsions:
REMARK  status: ('A' for Active; 'I' for Inactive)
REMARK    1  A    between atoms: C_1  and  O_2
REMARK    2  A    between atoms: O_2  and  C_3
REMARK    3  A    between atoms: N_6  and  C_7
REMARK    4  A    between atoms: C_10  and  C_11
REMARK    5  A    between atoms: C_18  and  C_19
REMARK    6  A    between atoms: C_21  and  N_22
REMARK                            x       y       z     vdW  Elec       q    Type
REMARK                         _______ _______ _______ _____ _____    ______ ____
ROOT
ATOM      1  C   UNL     1      -0.871  11.871  19.487  0.00  0.00    +0.000 C 
ATOM      2  C   UNL     1      -2.365  12.038  19.152  0.00  0.00    +0.000 C 
ATOM      3  C   UNL     1      -2.510  11.792  17.632  0.00  0.00    +0.000 C 
ATOM      4  N   UNL     1      -2.230  10.401  17.271  0.00  0.00    +0.000 NA
ATOM      5  C   UNL     1      -3.352   9.544  17.649  0.00  0.00    +0.000 C 
ATOM      6  C   UNL     1      -0.896   9.950  17.713  0.00  0.00    +0.000 C 
ATOM      7  C   UNL     1      -0.564  10.283  19.168  0.00  0.00    +0.000 C 
ATOM      8  C   UNL     1       0.875   9.807  19.669  0.00  0.00    +0.000 C 
ATOM      9  C   UNL     1       0.980  10.401  21.087  0.00  0.00    +0.000 C 
ATOM     10  C   UNL     1       0.854  11.730  21.024  0.00  0.00    +0.000 C 
ATOM     11  O   UNL     1      -0.513  12.124  20.873  0.00  0.00    +0.000 OA
ENDROOT
BRANCH   8  12
ATOM     12  C   UNL     1       1.481   8.381  19.687  0.00  0.00    +0.000 A 
ATOM     13  C   UNL     1       1.399   7.458  20.718  0.00  0.00    +0.000 A 
ATOM     14  C   UNL     1       2.054   6.205  20.606  0.00  0.00    +0.000 A 
ATOM     15  C   UNL     1       2.817   5.899  19.479  0.00  0.00    +0.000 A 
ATOM     16  F   UNL     1       3.448   4.713  19.399  0.00  0.00    +0.000 F 
ATOM     17  C   UNL     1       2.946   6.807  18.442  0.00  0.00    +0.000 A 
ATOM     18  C   UNL     1       2.280   8.034  18.550  0.00  0.00    +0.000 A 
ENDBRANCH   8  12
BRANCH  10  19
ATOM     19  N   UNL     1       1.782  12.523  20.374  0.00  0.00    +0.000 N 
ATOM     20  H   UNL     1       2.188  13.243  20.970  0.00  0.00    +0.000 HD
ATOM     21  H   UNL     1       2.555  11.957  20.027  0.00  0.00    +0.000 HD
ENDBRANCH  10  19
BRANCH   1  23
ATOM     22  C   UNL     1      -0.654  14.255  19.097  0.00  0.00    +0.000 C 
ATOM     23  O   UNL     1      -0.201  12.916  18.710  0.00  0.00    +0.000 OA
ENDBRANCH   1  23
BRANCH   9  24
ATOM     24  C   UNL     1       0.248   9.734  22.117  0.00  0.00    +0.000 C 
ATOM     25  N   UNL     1      -0.381   9.240  22.959  0.00  0.00    +0.000 NA
ENDBRANCH   9  24
TORSDOF 4
ENDMDL
MODEL 7
REMARK VINA RESULT:      -5.9     10.666     14.126
REMARK  Name = 
REMARK  6 active torsions:
REMARK  status: ('A' for Active; 'I' for Inactive)
REMARK    1  A    between atoms: C_1  and  O_2
REMARK    2  A    between atoms: O_2  and  C_3
REMARK    3  A    between atoms: N_6  and  C_7
REMARK    4  A    between atoms: C_10  and  C_11
REMARK    5  A    between atoms: C_18  and  C_19
REMARK    6  A    between atoms: C_21  and  N_22
REMARK                            x       y       z     vdW  Elec       q    Type
REMARK                         _______ _______ _______ _____ _____    ______ ____
ROOT
ATOM      1  C   UNL     1      -4.136  10.912  17.721  0.00  0.00    +0.000 C 
ATOM      2  C   UNL     1      -3.067   9.804  17.704  0.00  0.00    +0.000 C 
ATOM      3  C   UNL     1      -1.693  10.513  17.682  0.00  0.00    +0.000 C 
ATOM      4  N   UNL     1      -1.424  11.231  18.930  0.00  0.00    +0.000 NA
ATOM      5  C   UNL     1      -1.068  10.290  19.990  0.00  0.00    +0.000 C 
ATOM      6  C   UNL     1      -2.474  12.213  19.265  0.00  0.00    +0.000 C 
ATOM      7  C   UNL     1      -3.902  11.674  19.164  0.00  0.00    +0.000 C 
ATOM      8  C   UNL     1      -5.055  12.719  19.519  0.00  0.00    +0.000 C 
ATOM      9  C   UNL     1      -6.351  11.954  19.189  0.00  0.00    +0.000 C 
ATOM     10  C   UNL     1      -6.341  11.593  17.902  0.00  0.00    +0.000 C 
ATOM     11  O   UNL     1      -5.513  10.448  17.681  0.00  0.00    +0.000 OA
ENDROOT
BRANCH   8  12
ATOM     12  C   UNL     1      -5.278  13.522  20.825  0.00  0.00    +0.000 A 
ATOM     13  C   UNL     1      -4.723  13.257  22.067  0.00  0.00    +0.000 A 
ATOM     14  C   UNL     1      -5.067  14.057  23.186  0.00  0.00    +0.000 A 
ATOM     15  C   UNL     1      -5.991  15.095  23.062  0.00  0.00    +0.000 A 
ATOM     16  F   UNL     1      -6.319  15.832  24.140  0.00  0.00    +0.000 F 
ATOM     17  C   UNL     1      -6.587  15.371  21.844  0.00  0.00    +0.000 A 
ATOM     18  C   UNL     1      -6.229  14.591  20.739  0.00  0.00    +0.000 A 
ENDBRANCH   8  12
BRANCH  10  19
ATOM     19  N   UNL     1      -6.359  12.526  16.880  0.00  0.00    +0.000 N 
ATOM     20  H   UNL     1      -6.368  12.108  15.951  0.00  0.00    +0.000 HD
ATOM     21  H   UNL     1      -7.189  13.114  16.948  0.00  0.00    +0.000 HD
ENDBRANCH  10  19
BRANCH   1  23
ATOM     22  C   UNL     1      -3.799  10.731  15.325  0.00  0.00    +0.000 C 
ATOM     23  O   UNL     1      -3.930  11.641  16.467  0.00  0.00    +0.000 OA
ENDBRANCH   1  23
BRANCH   9  24
ATOM     24  C   UNL     1      -6.768  10.963  20.130  0.00  0.00    +0.000 C 
ATOM     25  N   UNL     1      -7.162  10.179  20.891  0.00  0.00    +0.000 NA
ENDBRANCH   9  24
TORSDOF 4
ENDMDL
MODEL 8
REMARK VINA RESULT:      -5.9      3.534      6.676
REMARK  Name = 
REMARK  6 active torsions:
REMARK  status: ('A' for Active; 'I' for Inactive)
REMARK    1  A    between atoms: C_1  and  O_2
REMARK    2  A    between atoms: O_2  and  C_3
REMARK    3  A    between atoms: N_6  and  C_7
REMARK    4  A    between atoms: C_10  and  C_11
REMARK    5  A    between atoms: C_18  and  C_19
REMARK    6  A    between atoms: C_21  and  N_22
REMARK                            x       y       z     vdW  Elec       q    Type
REMARK                         _______ _______ _______ _____ _____    ______ ____
ROOT
ATOM      1  C   UNL     1       5.087   4.564  17.254  0.00  0.00    +0.000 C 
ATOM      2  C   UNL     1       6.612   4.521  17.460  0.00  0.00    +0.000 C 
ATOM      3  C   UNL     1       7.218   5.594  16.527  0.00  0.00    +0.000 C 
ATOM      4  N   UNL     1       6.853   6.952  16.939  0.00  0.00    +0.000 NA
ATOM      5  C   UNL     1       7.626   7.349  18.114  0.00  0.00    +0.000 C 
ATOM      6  C   UNL     1       5.394   7.151  17.030  0.00  0.00    +0.000 C 
ATOM      7  C   UNL     1       4.650   6.057  17.798  0.00  0.00    +0.000 C 
ATOM      8  C   UNL     1       3.069   6.251  17.906  0.00  0.00    +0.000 C 
ATOM      9  C   UNL     1       2.591   4.952  18.583  0.00  0.00    +0.000 C 
ATOM     10  C   UNL     1       2.946   3.902  17.836  0.00  0.00    +0.000 C 
ATOM     11  O   UNL     1       4.329   3.578  18.005  0.00  0.00    +0.000 OA
ENDROOT
BRANCH   8  12
ATOM     12  C   UNL     1       2.268   7.437  18.500  0.00  0.00    +0.000 A 
ATOM     13  C   UNL     1       1.801   8.548  17.815  0.00  0.00    +0.000 A 
ATOM     14  C   UNL     1       1.125   9.581  18.512  0.00  0.00    +0.000 A 
ATOM     15  C   UNL     1       0.952   9.513  19.895  0.00  0.00    +0.000 A 
ATOM     16  F   UNL     1       0.324  10.512  20.542  0.00  0.00    +0.000 F 
ATOM     17  C   UNL     1       1.431   8.433  20.617  0.00  0.00    +0.000 A 
ATOM     18  C   UNL     1       2.079   7.407  19.920  0.00  0.00    +0.000 A 
ENDBRANCH   8  12
BRANCH  10  19
ATOM     19  N   UNL     1       2.434   3.701  16.567  0.00  0.00    +0.000 N 
ATOM     20  H   UNL     1       2.808   4.347  15.872  0.00  0.00    +0.000 HD
ATOM     21  H   UNL     1       2.648   2.759  16.240  0.00  0.00    +0.000 HD
ENDBRANCH  10  19
BRANCH   1  23
ATOM     22  C   UNL     1       6.015   3.420  15.326  0.00  0.00    +0.000 C 
ATOM     23  O   UNL     1       4.897   4.216  15.843  0.00  0.00    +0.000 OA
ENDBRANCH   1  23
BRANCH   9  24
ATOM     24  C   UNL     1       2.814   4.842  19.991  0.00  0.00    +0.000 C 
ATOM     25  N   UNL     1       2.970   4.700  21.133  0.00  0.00    +0.000 NA
ENDBRANCH   9  24
TORSDOF 4
ENDMDL
MODEL 9
REMARK VINA RESULT:      -5.9     11.232     13.681
REMARK  Name = 
REMARK  6 active torsions:
REMARK  status: ('A' for Active; 'I' for Inactive)
REMARK    1  A    between atoms: C_1  and  O_2
REMARK    2  A    between atoms: O_2  and  C_3
REMARK    3  A    between atoms: N_6  and  C_7
REMARK    4  A    between atoms: C_10  and  C_11
REMARK    5  A    between atoms: C_18  and  C_19
REMARK    6  A    between atoms: C_21  and  N_22
REMARK                            x       y       z     vdW  Elec       q    Type
REMARK                         _______ _______ _______ _____ _____    ______ ____
ROOT
ATOM      1  C   UNL     1      -5.972  13.299  22.135  0.00  0.00    +0.000 C 
ATOM      2  C   UNL     1      -5.569  14.537  22.957  0.00  0.00    +0.000 C 
ATOM      3  C   UNL     1      -4.289  14.156  23.736  0.00  0.00    +0.000 C 
ATOM      4  N   UNL     1      -3.145  13.945  22.847  0.00  0.00    +0.000 NA
ATOM      5  C   UNL     1      -2.631  15.228  22.372  0.00  0.00    +0.000 C 
ATOM      6  C   UNL     1      -3.404  12.930  21.807  0.00  0.00    +0.000 C 
ATOM      7  C   UNL     1      -4.731  13.104  21.068  0.00  0.00    +0.000 C 
ATOM      8  C   UNL     1      -5.035  12.015  19.940  0.00  0.00    +0.000 C 
ATOM      9  C   UNL     1      -6.469  12.352  19.488  0.00  0.00    +0.000 C 
ATOM     10  C   UNL     1      -7.297  12.276  20.536  0.00  0.00    +0.000 C 
ATOM     11  O   UNL     1      -7.200  13.434  21.370  0.00  0.00    +0.000 OA
ENDROOT
BRANCH   8  12
ATOM     12  C   UNL     1      -4.200  11.645  18.688  0.00  0.00    +0.000 A 
ATOM     13  C   UNL     1      -2.831  11.795  18.530  0.00  0.00    +0.000 A 
ATOM     14  C   UNL     1      -2.216  11.457  17.298  0.00  0.00    +0.000 A 
ATOM     15  C   UNL     1      -2.979  11.006  16.221  0.00  0.00    +0.000 A 
ATOM     16  F   UNL     1      -2.380  10.708  15.053  0.00  0.00    +0.000 F 
ATOM     17  C   UNL     1      -4.353  10.872  16.332  0.00  0.00    +0.000 A 
ATOM     18  C   UNL     1      -4.951  11.188  17.557  0.00  0.00    +0.000 A 
ENDBRANCH   8  12
BRANCH  10  19
ATOM     19  N   UNL     1      -7.538  11.082  21.192  0.00  0.00    +0.000 N 
ATOM     20  H   UNL     1      -6.971  10.960  22.030  0.00  0.00    +0.000 HD
ATOM     21  H   UNL     1      -8.513  11.025  21.483  0.00  0.00    +0.000 HD
ENDBRANCH  10  19
BRANCH   1  23
ATOM     22  C   UNL     1      -7.198  12.727  24.149  0.00  0.00    +0.000 C 
ATOM     23  O   UNL     1      -6.244  12.265  23.137  0.00  0.00    +0.000 OA
ENDBRANCH   1  23
BRANCH   9  24
ATOM     24  C   UNL     1      -6.622  13.485  18.631  0.00  0.00    +0.000 C 
ATOM     25  N   UNL     1      -6.687  14.407  17.928  0.00  0.00    +0.000 NA
ENDBRANCH   9  24
TORSDOF 4
ENDMDL
