MODEL 1
REMARK VINA RESULT:      -6.8      0.000      0.000
REMARK  Name = 
REMARK  11 active torsions:
REMARK  status: ('A' for Active; 'I' for Inactive)
REMARK    1  A    between atoms: C_4  and  O_5
REMARK    2  A    between atoms: N_9  and  C_10
REMARK    3  A    between atoms: C_10  and  C_11
REMARK    4  A    between atoms: C_11  and  C_12
REMARK    5  A    between atoms: C_12  and  C_13
REMARK    6  A    between atoms: C_13  and  P_14
REMARK    7  A    between atoms: P_14  and  O_16
REMARK    8  A    between atoms: P_14  and  C_17
REMARK    9  A    between atoms: C_17  and  P_18
REMARK   10  A    between atoms: P_18  and  O_20
REMARK   11  A    between atoms: P_18  and  O_21
REMARK                            x       y       z     vdW  Elec       q    Type
REMARK                         _______ _______ _______ _____ _____    ______ ____
ROOT
ATOM      1  C   UNL     1       4.925   3.299  16.846  0.00  0.00    +0.000 C 
ENDROOT
BRANCH   1   9
ATOM      2  N   UNL     1       8.450   5.231  20.331  0.00  0.00    +0.000 N 
ATOM      3  C   UNL     1       7.797   5.667  19.196  0.00  0.00    +0.000 A 
ATOM      4  N   UNL     1       8.079   6.902  18.761  0.00  0.00    +0.000 NA
ATOM      5  C   UNL     1       7.465   7.325  17.640  0.00  0.00    +0.000 A 
ATOM      6  C   UNL     1       6.566   6.515  16.955  0.00  0.00    +0.000 A 
ATOM      7  N   UNL     1       5.813   6.651  15.809  0.00  0.00    +0.000 NA
ATOM      8  C   UNL     1       5.172   5.506  15.685  0.00  0.00    +0.000 A 
ATOM      9  N   UNL     1       5.472   4.637  16.702  0.00  0.00    +0.000 N 
ATOM     10  C   UNL     1       6.356   5.275  17.533  0.00  0.00    +0.000 A 
ATOM     11  N   UNL     1       6.921   4.812  18.657  0.00  0.00    +0.000 NA
ATOM     12  H   UNL     1       8.751   6.015  20.889  0.00  0.00    +0.000 HD
ATOM     13  H   UNL     1       7.915   4.508  20.787  0.00  0.00    +0.000 HD
BRANCH   5  14
ATOM     14  O   UNL     1       7.807   8.588  17.244  0.00  0.00    +0.000 OA
ATOM     15  H   UNL     1       8.432   8.387  16.527  0.00  0.00    +0.000 HD
ENDBRANCH   5  14
ENDBRANCH   1   9
BRANCH   1  16
ATOM     16  C   UNL     1       3.719   3.210  17.782  0.00  0.00    +0.000 C 
BRANCH  16  17
ATOM     17  C   UNL     1       3.352   1.787  18.166  0.00  0.00    +0.000 C 
BRANCH  17  18
ATOM     18  C   UNL     1       2.382   1.808  19.352  0.00  0.00    +0.000 C 
BRANCH  18  19
ATOM     19  P   UNL     1       2.123   3.531  19.911  0.00  0.00    +0.000 P 
ATOM     20  O   UNL     1       0.603   3.325  19.801  0.00  0.00    +0.000 OA
BRANCH  19  21
ATOM     21  O   UNL     1       2.462   3.061  21.458  0.00  0.00    +0.000 OA
ATOM     22  H   UNL     1       3.419   3.187  21.651  0.00  0.00    +0.000 HD
ENDBRANCH  19  21
BRANCH  19  23
ATOM     23  C   UNL     1       1.863   5.254  20.470  0.00  0.00    +0.000 C 
BRANCH  23  24
ATOM     24  P   UNL     1       2.585   6.408  19.246  0.00  0.00    +0.000 P 
ATOM     25  O   UNL     1       2.144   7.615  20.074  0.00  0.00    +0.000 OA
BRANCH  24  26
ATOM     26  O   UNL     1       4.100   6.063  19.752  0.00  0.00    +0.000 OA
ATOM     27  H   UNL     1       4.450   5.258  19.325  0.00  0.00    +0.000 HD
ENDBRANCH  24  26
BRANCH  24  28
ATOM     28  O   UNL     1       3.268   7.498  18.090  0.00  0.00    +0.000 OA
ATOM     29  H   UNL     1       3.409   6.972  17.277  0.00  0.00    +0.000 HD
ENDBRANCH  24  28
ENDBRANCH  23  24
ENDBRANCH  19  23
ENDBRANCH  18  19
ENDBRANCH  17  18
ENDBRANCH  16  17
ENDBRANCH   1  16
TORSDOF 11
ENDMDL
MODEL 2
REMARK VINA RESULT:      -6.6      5.009      6.485
REMARK  Name = 
REMARK  11 active torsions:
REMARK  status: ('A' for Active; 'I' for Inactive)
REMARK    1  A    between atoms: C_4  and  O_5
REMARK    2  A    between atoms: N_9  and  C_10
REMARK    3  A    between atoms: C_10  and  C_11
REMARK    4  A    between atoms: C_11  and  C_12
REMARK    5  A    between atoms: C_12  and  C_13
REMARK    6  A    between atoms: C_13  and  P_14
REMARK    7  A    between atoms: P_14  and  O_16
REMARK    8  A    between atoms: P_14  and  C_17
REMARK    9  A    between atoms: C_17  and  P_18
REMARK   10  A    between atoms: P_18  and  O_20
REMARK   11  A    between atoms: P_18  and  O_21
REMARK                            x       y       z     vdW  Elec       q    Type
REMARK                         _______ _______ _______ _____ _____    ______ ____
ROOT
ATOM      1  C   UNL     1       2.352   6.836  19.608  0.00  0.00    +0.000 C 
ENDROOT
BRANCH   1   9
ATOM      2  N   UNL     1      -0.277   9.399  23.458  0.00  0.00    +0.000 N 
ATOM      3  C   UNL     1       0.094   9.632  22.150  0.00  0.00    +0.000 A 
ATOM      4  N   UNL     1      -0.240  10.815  21.618  0.00  0.00    +0.000 NA
ATOM      5  C   UNL     1       0.139  11.061  20.351  0.00  0.00    +0.000 A 
ATOM      6  C   UNL     1       0.850  10.122  19.611  0.00  0.00    +0.000 A 
ATOM      7  N   UNL     1       1.378  10.083  18.340  0.00  0.00    +0.000 NA
ATOM      8  C   UNL     1       1.958   8.903  18.247  0.00  0.00    +0.000 A 
ATOM      9  N   UNL     1       1.825   8.173  19.401  0.00  0.00    +0.000 N 
ATOM     10  C   UNL     1       1.105   8.937  20.281  0.00  0.00    +0.000 A 
ATOM     11  N   UNL     1       0.731   8.632  21.533  0.00  0.00    +0.000 NA
ATOM     12  H   UNL     1      -1.065   9.975  23.711  0.00  0.00    +0.000 HD
ATOM     13  H   UNL     1      -0.345   8.407  23.632  0.00  0.00    +0.000 HD
BRANCH   5  14
ATOM     14  O   UNL     1      -0.221  12.290  19.875  0.00  0.00    +0.000 OA
ATOM     15  H   UNL     1      -0.584  12.044  19.006  0.00  0.00    +0.000 HD
ENDBRANCH   5  14
ENDBRANCH   1   9
BRANCH   1  16
ATOM     16  C   UNL     1       2.607   6.053  18.320  0.00  0.00    +0.000 C 
BRANCH  16  17
ATOM     17  C   UNL     1       1.998   4.662  18.324  0.00  0.00    +0.000 C 
BRANCH  17  18
ATOM     18  C   UNL     1       3.107   3.615  18.465  0.00  0.00    +0.000 C 
BRANCH  18  19
ATOM     19  P   UNL     1       4.743   4.431  18.388  0.00  0.00    +0.000 P 
ATOM     20  O   UNL     1       5.240   3.514  19.516  0.00  0.00    +0.000 OA
BRANCH  19  21
ATOM     21  O   UNL     1       5.086   3.573  17.018  0.00  0.00    +0.000 OA
ATOM     22  H   UNL     1       5.875   3.951  16.567  0.00  0.00    +0.000 HD
ENDBRANCH  19  21
BRANCH  19  23
ATOM     23  C   UNL     1       6.379   5.247  18.311  0.00  0.00    +0.000 C 
BRANCH  23  24
ATOM     24  P   UNL     1       6.974   5.258  16.580  0.00  0.00    +0.000 P 
ATOM     25  O   UNL     1       7.667   6.605  16.791  0.00  0.00    +0.000 OA
BRANCH  24  26
ATOM     26  O   UNL     1       8.106   4.129  16.917  0.00  0.00    +0.000 OA
ATOM     27  H   UNL     1       8.397   4.175  17.847  0.00  0.00    +0.000 HD
ENDBRANCH  24  26
BRANCH  24  28
ATOM     28  O   UNL     1       7.537   5.270  14.944  0.00  0.00    +0.000 OA
ATOM     29  H   UNL     1       8.281   4.634  14.914  0.00  0.00    +0.000 HD
ENDBRANCH  24  28
ENDBRANCH  23  24
ENDBRANCH  19  23
ENDBRANCH  18  19
ENDBRANCH  17  18
ENDBRANCH  16  17
ENDBRANCH   1  16
TORSDOF 11
ENDMDL
MODEL 3
REMARK VINA RESULT:      -6.5      3.191      5.888
REMARK  Name = 
REMARK  11 active torsions:
REMARK  status: ('A' for Active; 'I' for Inactive)
REMARK    1  A    between atoms: C_4  and  O_5
REMARK    2  A    between atoms: N_9  and  C_10
REMARK    3  A    between atoms: C_10  and  C_11
REMARK    4  A    between atoms: C_11  and  C_12
REMARK    5  A    between atoms: C_12  and  C_13
REMARK    6  A    between atoms: C_13  and  P_14
REMARK    7  A    between atoms: P_14  and  O_16
REMARK    8  A    between atoms: P_14  and  C_17
REMARK    9  A    between atoms: C_17  and  P_18
REMARK   10  A    between atoms: P_18  and  O_20
REMARK   11  A    between atoms: P_18  and  O_21
REMARK                            x       y       z     vdW  Elec       q    Type
REMARK                         _______ _______ _______ _____ _____    ______ ____
ROOT
ATOM      1  C   UNL     1       3.886   3.762  16.534  0.00  0.00    +0.000 C 
ENDROOT
BRANCH   1   9
ATOM      2  N   UNL     1       2.224   6.983  20.429  0.00  0.00    +0.000 N 
ATOM      3  C   UNL     1       2.351   5.626  20.215  0.00  0.00    +0.000 A 
ATOM      4  N   UNL     1       1.953   4.808  21.199  0.00  0.00    +0.000 NA
ATOM      5  C   UNL     1       2.050   3.483  20.989  0.00  0.00    +0.000 A 
ATOM      6  C   UNL     1       2.550   2.972  19.796  0.00  0.00    +0.000 A 
ATOM      7  N   UNL     1       2.753   1.707  19.290  0.00  0.00    +0.000 NA
ATOM      8  C   UNL     1       3.244   1.898  18.082  0.00  0.00    +0.000 A 
ATOM      9  N   UNL     1       3.373   3.231  17.785  0.00  0.00    +0.000 N 
ATOM     10  C   UNL     1       2.943   3.932  18.880  0.00  0.00    +0.000 A 
ATOM     11  N   UNL     1       2.890   5.262  19.047  0.00  0.00    +0.000 NA
ATOM     12  H   UNL     1       2.212   7.186  21.416  0.00  0.00    +0.000 HD
ATOM     13  H   UNL     1       2.878   7.491  19.852  0.00  0.00    +0.000 HD
BRANCH   5  14
ATOM     14  O   UNL     1       1.616   2.707  22.026  0.00  0.00    +0.000 OA
ATOM     15  H   UNL     1       2.404   2.158  22.181  0.00  0.00    +0.000 HD
ENDBRANCH   5  14
ENDBRANCH   1   9
BRANCH   1  16
ATOM     16  C   UNL     1       5.356   3.439  16.269  0.00  0.00    +0.000 C 
BRANCH  16  17
ATOM     17  C   UNL     1       5.802   3.753  14.851  0.00  0.00    +0.000 C 
BRANCH  17  18
ATOM     18  C   UNL     1       6.789   4.923  14.870  0.00  0.00    +0.000 C 
BRANCH  18  19
ATOM     19  P   UNL     1       6.640   5.836  16.448  0.00  0.00    +0.000 P 
ATOM     20  O   UNL     1       7.933   6.598  16.116  0.00  0.00    +0.000 OA
BRANCH  19  21
ATOM     21  O   UNL     1       5.458   6.774  15.773  0.00  0.00    +0.000 OA
ATOM     22  H   UNL     1       4.571   6.465  16.064  0.00  0.00    +0.000 HD
ENDBRANCH  19  21
BRANCH  19  23
ATOM     23  C   UNL     1       6.491   6.749  18.027  0.00  0.00    +0.000 C 
BRANCH  23  24
ATOM     24  P   UNL     1       7.489   5.912  19.313  0.00  0.00    +0.000 P 
ATOM     25  O   UNL     1       6.240   5.263  19.909  0.00  0.00    +0.000 OA
BRANCH  24  26
ATOM     26  O   UNL     1       8.063   4.835  18.226  0.00  0.00    +0.000 OA
ATOM     27  H   UNL     1       7.758   5.037  17.321  0.00  0.00    +0.000 HD
ENDBRANCH  24  26
BRANCH  24  28
ATOM     28  O   UNL     1       8.432   5.121  20.528  0.00  0.00    +0.000 OA
ATOM     29  H   UNL     1       7.867   5.090  21.326  0.00  0.00    +0.000 HD
ENDBRANCH  24  28
ENDBRANCH  23  24
ENDBRANCH  19  23
ENDBRANCH  18  19
ENDBRANCH  17  18
ENDBRANCH  16  17
ENDBRANCH   1  16
TORSDOF 11
ENDMDL
MODEL 4
REMARK VINA RESULT:      -6.5      3.960      5.488
REMARK  Name = 
REMARK  11 active torsions:
REMARK  status: ('A' for Active; 'I' for Inactive)
REMARK    1  A    between atoms: C_4  and  O_5
REMARK    2  A    between atoms: N_9  and  C_10
REMARK    3  A    between atoms: C_10  and  C_11
REMARK    4  A    between atoms: C_11  and  C_12
REMARK    5  A    between atoms: C_12  and  C_13
REMARK    6  A    between atoms: C_13  and  P_14
REMARK    7  A    between atoms: P_14  and  O_16
REMARK    8  A    between atoms: P_14  and  C_17
REMARK    9  A    between atoms: C_17  and  P_18
REMARK   10  A    between atoms: P_18  and  O_20
REMARK   11  A    between atoms: P_18  and  O_21
REMARK                            x       y       z     vdW  Elec       q    Type
REMARK                         _______ _______ _______ _____ _____    ______ ____
ROOT
ATOM      1  C   UNL     1       3.172   6.366  17.882  0.00  0.00    +0.000 C 
ENDROOT
BRANCH   1   9
ATOM      2  N   UNL     1       6.796   5.403  14.109  0.00  0.00    +0.000 N 
ATOM      3  C   UNL     1       6.668   5.211  15.469  0.00  0.00    +0.000 A 
ATOM      4  N   UNL     1       7.700   4.648  16.110  0.00  0.00    +0.000 NA
ATOM      5  C   UNL     1       7.593   4.480  17.441  0.00  0.00    +0.000 A 
ATOM      6  C   UNL     1       6.451   4.870  18.132  0.00  0.00    +0.000 A 
ATOM      7  N   UNL     1       6.058   4.846  19.452  0.00  0.00    +0.000 NA
ATOM      8  C   UNL     1       4.855   5.384  19.460  0.00  0.00    +0.000 A 
ATOM      9  N   UNL     1       4.449   5.750  18.202  0.00  0.00    +0.000 N 
ATOM     10  C   UNL     1       5.458   5.415  17.337  0.00  0.00    +0.000 A 
ATOM     11  N   UNL     1       5.503   5.584  16.008  0.00  0.00    +0.000 NA
ATOM     12  H   UNL     1       7.471   4.761  13.723  0.00  0.00    +0.000 HD
ATOM     13  H   UNL     1       5.887   5.447  13.673  0.00  0.00    +0.000 HD
BRANCH   5  14
ATOM     14  O   UNL     1       8.685   3.913  18.035  0.00  0.00    +0.000 OA
ATOM     15  H   UNL     1       8.258   3.400  18.741  0.00  0.00    +0.000 HD
ENDBRANCH   5  14
ENDBRANCH   1   9
BRANCH   1  16
ATOM     16  C   UNL     1       3.246   7.872  17.629  0.00  0.00    +0.000 C 
BRANCH  16  17
ATOM     17  C   UNL     1       1.920   8.587  17.828  0.00  0.00    +0.000 C 
BRANCH  17  18
ATOM     18  C   UNL     1       1.661   8.784  19.324  0.00  0.00    +0.000 C 
BRANCH  18  19
ATOM     19  P   UNL     1       0.381  10.069  19.567  0.00  0.00    +0.000 P 
ATOM     20  O   UNL     1       0.847  10.241  21.022  0.00  0.00    +0.000 OA
BRANCH  19  21
ATOM     21  O   UNL     1       1.323  11.140  18.733  0.00  0.00    +0.000 OA
ATOM     22  H   UNL     1       0.766  11.850  18.342  0.00  0.00    +0.000 HD
ENDBRANCH  19  21
BRANCH  19  23
ATOM     23  C   UNL     1      -0.899  11.354  19.811  0.00  0.00    +0.000 C 
BRANCH  23  24
ATOM     24  P   UNL     1      -1.777  11.647  18.232  0.00  0.00    +0.000 P 
ATOM     25  O   UNL     1      -0.878  12.842  17.915  0.00  0.00    +0.000 OA
BRANCH  24  26
ATOM     26  O   UNL     1      -1.050  10.359  17.539  0.00  0.00    +0.000 OA
ATOM     27  H   UNL     1      -0.078  10.405  17.620  0.00  0.00    +0.000 HD
ENDBRANCH  24  26
BRANCH  24  28
ATOM     28  O   UNL     1      -2.607  11.925  16.740  0.00  0.00    +0.000 OA
ATOM     29  H   UNL     1      -2.042  12.541  16.231  0.00  0.00    +0.000 HD
ENDBRANCH  24  28
ENDBRANCH  23  24
ENDBRANCH  19  23
ENDBRANCH  18  19
ENDBRANCH  17  18
ENDBRANCH  16  17
ENDBRANCH   1  16
TORSDOF 11
ENDMDL
MODEL 5
REMARK VINA RESULT:      -6.3      4.332      5.943
REMARK  Name = 
REMARK  11 active torsions:
REMARK  status: ('A' for Active; 'I' for Inactive)
REMARK    1  A    between atoms: C_4  and  O_5
REMARK    2  A    between atoms: N_9  and  C_10
REMARK    3  A    between atoms: C_10  and  C_11
REMARK    4  A    between atoms: C_11  and  C_12
REMARK    5  A    between atoms: C_12  and  C_13
REMARK    6  A    between atoms: C_13  and  P_14
REMARK    7  A    between atoms: P_14  and  O_16
REMARK    8  A    between atoms: P_14  and  C_17
REMARK    9  A    between atoms: C_17  and  P_18
REMARK   10  A    between atoms: P_18  and  O_20
REMARK   11  A    between atoms: P_18  and  O_21
REMARK                            x       y       z     vdW  Elec       q    Type
REMARK                         _______ _______ _______ _____ _____    ______ ____
ROOT
ATOM      1  C   UNL     1       3.050   6.299  18.068  0.00  0.00    +0.000 C 
ENDROOT
BRANCH   1   9
ATOM      2  N   UNL     1       6.523   5.403  14.138  0.00  0.00    +0.000 N 
ATOM      3  C   UNL     1       6.459   5.212  15.503  0.00  0.00    +0.000 A 
ATOM      4  N   UNL     1       7.531   4.674  16.099  0.00  0.00    +0.000 NA
ATOM      5  C   UNL     1       7.487   4.508  17.434  0.00  0.00    +0.000 A 
ATOM      6  C   UNL     1       6.368   4.875  18.174  0.00  0.00    +0.000 A 
ATOM      7  N   UNL     1       6.035   4.847  19.511  0.00  0.00    +0.000 NA
ATOM      8  C   UNL     1       4.822   5.358  19.571  0.00  0.00    +0.000 A 
ATOM      9  N   UNL     1       4.352   5.712  18.331  0.00  0.00    +0.000 N 
ATOM     10  C   UNL     1       5.329   5.396  17.424  0.00  0.00    +0.000 A 
ATOM     11  N   UNL     1       5.311   5.562  16.093  0.00  0.00    +0.000 NA
ATOM     12  H   UNL     1       7.194   4.775  13.724  0.00  0.00    +0.000 HD
ATOM     13  H   UNL     1       5.594   5.426  13.744  0.00  0.00    +0.000 HD
BRANCH   5  14
ATOM     14  O   UNL     1       8.616   3.966  17.980  0.00  0.00    +0.000 OA
ATOM     15  H   UNL     1       8.776   4.587  18.711  0.00  0.00    +0.000 HD
ENDBRANCH   5  14
ENDBRANCH   1   9
BRANCH   1  16
ATOM     16  C   UNL     1       3.090   7.786  17.713  0.00  0.00    +0.000 C 
BRANCH  16  17
ATOM     17  C   UNL     1       1.759   8.492  17.904  0.00  0.00    +0.000 C 
BRANCH  17  18
ATOM     18  C   UNL     1       1.987  10.003  17.999  0.00  0.00    +0.000 C 
BRANCH  18  19
ATOM     19  P   UNL     1       0.702  10.759  19.061  0.00  0.00    +0.000 P 
ATOM     20  O   UNL     1       1.355  12.134  18.852  0.00  0.00    +0.000 OA
BRANCH  19  21
ATOM     21  O   UNL     1      -0.371  10.650  17.809  0.00  0.00    +0.000 OA
ATOM     22  H   UNL     1       0.105  10.674  16.949  0.00  0.00    +0.000 HD
ENDBRANCH  19  21
BRANCH  19  23
ATOM     23  C   UNL     1      -0.582  11.515  20.123  0.00  0.00    +0.000 C 
BRANCH  23  24
ATOM     24  P   UNL     1      -2.071  11.872  19.120  0.00  0.00    +0.000 P 
ATOM     25  O   UNL     1      -2.818  12.388  20.350  0.00  0.00    +0.000 OA
BRANCH  24  26
ATOM     26  O   UNL     1      -1.361  13.187  18.458  0.00  0.00    +0.000 OA
ATOM     27  H   UNL     1      -0.399  13.063  18.352  0.00  0.00    +0.000 HD
ENDBRANCH  24  26
BRANCH  24  28
ATOM     28  O   UNL     1      -3.478  12.209  18.172  0.00  0.00    +0.000 OA
ATOM     29  H   UNL     1      -3.764  13.109  18.429  0.00  0.00    +0.000 HD
ENDBRANCH  24  28
ENDBRANCH  23  24
ENDBRANCH  19  23
ENDBRANCH  18  19
ENDBRANCH  17  18
ENDBRANCH  16  17
ENDBRANCH   1  16
TORSDOF 11
ENDMDL
MODEL 6
REMARK VINA RESULT:      -6.3      4.969      6.623
REMARK  Name = 
REMARK  11 active torsions:
REMARK  status: ('A' for Active; 'I' for Inactive)
REMARK    1  A    between atoms: C_4  and  O_5
REMARK    2  A    between atoms: N_9  and  C_10
REMARK    3  A    between atoms: C_10  and  C_11
REMARK    4  A    between atoms: C_11  and  C_12
REMARK    5  A    between atoms: C_12  and  C_13
REMARK    6  A    between atoms: C_13  and  P_14
REMARK    7  A    between atoms: P_14  and  O_16
REMARK    8  A    between atoms: P_14  and  C_17
REMARK    9  A    between atoms: C_17  and  P_18
REMARK   10  A    between atoms: P_18  and  O_20
REMARK   11  A    between atoms: P_18  and  O_21
REMARK                            x       y       z     vdW  Elec       q    Type
REMARK                         _______ _______ _______ _____ _____    ______ ____
ROOT
ATOM      1  C   UNL     1       2.650   7.097  19.518  0.00  0.00    +0.000 C 
ENDROOT
BRANCH   1   9
ATOM      2  N   UNL     1      -0.087   9.338  23.491  0.00  0.00    +0.000 N 
ATOM      3  C   UNL     1       0.082   9.532  22.136  0.00  0.00    +0.000 A 
ATOM      4  N   UNL     1      -0.571  10.559  21.575  0.00  0.00    +0.000 NA
ATOM      5  C   UNL     1      -0.392  10.770  20.258  0.00  0.00    +0.000 A 
ATOM      6  C   UNL     1       0.436   9.951  19.498  0.00  0.00    +0.000 A 
ATOM      7  N   UNL     1       0.824   9.919  18.176  0.00  0.00    +0.000 NA
ATOM      8  C   UNL     1       1.648   8.895  18.088  0.00  0.00    +0.000 A 
ATOM      9  N   UNL     1       1.809   8.259  19.292  0.00  0.00    +0.000 N 
ATOM     10  C   UNL     1       1.027   8.918  20.205  0.00  0.00    +0.000 A 
ATOM     11  N   UNL     1       0.866   8.649  21.509  0.00  0.00    +0.000 NA
ATOM     12  H   UNL     1      -0.956   9.744  23.801  0.00  0.00    +0.000 HD
ATOM     13  H   UNL     1       0.096   8.376  23.733  0.00  0.00    +0.000 HD
BRANCH   5  14
ATOM     14  O   UNL     1      -1.076  11.840  19.754  0.00  0.00    +0.000 OA
ATOM     15  H   UNL     1      -0.373  12.512  19.745  0.00  0.00    +0.000 HD
ENDBRANCH   5  14
ENDBRANCH   1   9
BRANCH   1  16
ATOM     16  C   UNL     1       1.928   5.758  19.363  0.00  0.00    +0.000 C 
BRANCH  16  17
ATOM     17  C   UNL     1       2.113   5.124  17.994  0.00  0.00    +0.000 C 
BRANCH  17  18
ATOM     18  C   UNL     1       2.852   3.791  18.141  0.00  0.00    +0.000 C 
BRANCH  18  19
ATOM     19  P   UNL     1       4.357   3.797  17.100  0.00  0.00    +0.000 P 
ATOM     20  O   UNL     1       4.221   5.319  16.935  0.00  0.00    +0.000 OA
BRANCH  19  21
ATOM     21  O   UNL     1       5.278   3.641  18.463  0.00  0.00    +0.000 OA
ATOM     22  H   UNL     1       5.304   2.700  18.751  0.00  0.00    +0.000 HD
ENDBRANCH  19  21
BRANCH  19  23
ATOM     23  C   UNL     1       5.862   3.804  16.059  0.00  0.00    +0.000 C 
BRANCH  23  24
ATOM     24  P   UNL     1       6.800   5.347  16.353  0.00  0.00    +0.000 P 
ATOM     25  O   UNL     1       7.861   4.590  17.152  0.00  0.00    +0.000 OA
BRANCH  24  26
ATOM     26  O   UNL     1       7.343   5.361  14.812  0.00  0.00    +0.000 OA
ATOM     27  H   UNL     1       7.406   6.269  14.459  0.00  0.00    +0.000 HD
ENDBRANCH  24  26
BRANCH  24  28
ATOM     28  O   UNL     1       7.688   6.806  16.631  0.00  0.00    +0.000 OA
ATOM     29  H   UNL     1       7.151   7.523  16.238  0.00  0.00    +0.000 HD
ENDBRANCH  24  28
ENDBRANCH  23  24
ENDBRANCH  19  23
ENDBRANCH  18  19
ENDBRANCH  17  18
ENDBRANCH  16  17
ENDBRANCH   1  16
TORSDOF 11
ENDMDL
MODEL 7
REMARK VINA RESULT:      -6.3      4.106      5.530
REMARK  Name = 
REMARK  11 active torsions:
REMARK  status: ('A' for Active; 'I' for Inactive)
REMARK    1  A    between atoms: C_4  and  O_5
REMARK    2  A    between atoms: N_9  and  C_10
REMARK    3  A    between atoms: C_10  and  C_11
REMARK    4  A    between atoms: C_11  and  C_12
REMARK    5  A    between atoms: C_12  and  C_13
REMARK    6  A    between atoms: C_13  and  P_14
REMARK    7  A    between atoms: P_14  and  O_16
REMARK    8  A    between atoms: P_14  and  C_17
REMARK    9  A    between atoms: C_17  and  P_18
REMARK   10  A    between atoms: P_18  and  O_20
REMARK   11  A    between atoms: P_18  and  O_21
REMARK                            x       y       z     vdW  Elec       q    Type
REMARK                         _______ _______ _______ _____ _____    ______ ____
ROOT
ATOM      1  C   UNL     1       3.181   6.206  17.842  0.00  0.00    +0.000 C 
ENDROOT
BRANCH   1   9
ATOM      2  N   UNL     1       6.880   5.244  14.142  0.00  0.00    +0.000 N 
ATOM      3  C   UNL     1       6.738   5.083  15.504  0.00  0.00    +0.000 A 
ATOM      4  N   UNL     1       7.776   4.565  16.174  0.00  0.00    +0.000 NA
ATOM      5  C   UNL     1       7.655   4.428  17.507  0.00  0.00    +0.000 A 
ATOM      6  C   UNL     1       6.494   4.805  18.173  0.00  0.00    +0.000 A 
ATOM      7  N   UNL     1       6.083   4.805  19.488  0.00  0.00    +0.000 NA
ATOM      8  C   UNL     1       4.867   5.310  19.466  0.00  0.00    +0.000 A 
ATOM      9  N   UNL     1       4.468   5.633  18.194  0.00  0.00    +0.000 N 
ATOM     10  C   UNL     1       5.497   5.303  17.351  0.00  0.00    +0.000 A 
ATOM     11  N   UNL     1       5.556   5.440  16.018  0.00  0.00    +0.000 NA
ATOM     12  H   UNL     1       7.577   4.611  13.781  0.00  0.00    +0.000 HD
ATOM     13  H   UNL     1       5.975   5.253  13.693  0.00  0.00    +0.000 HD
BRANCH   5  14
ATOM     14  O   UNL     1       8.754   3.906  18.129  0.00  0.00    +0.000 OA
ATOM     15  H   UNL     1       8.529   4.077  19.060  0.00  0.00    +0.000 HD
ENDBRANCH   5  14
ENDBRANCH   1   9
BRANCH   1  16
ATOM     16  C   UNL     1       3.200   7.722  17.640  0.00  0.00    +0.000 C 
BRANCH  16  17
ATOM     17  C   UNL     1       1.856   8.385  17.888  0.00  0.00    +0.000 C 
BRANCH  17  18
ATOM     18  C   UNL     1       1.758   8.820  19.353  0.00  0.00    +0.000 C 
BRANCH  18  19
ATOM     19  P   UNL     1       0.710  10.313  19.488  0.00  0.00    +0.000 P 
ATOM     20  O   UNL     1       0.167  10.046  18.075  0.00  0.00    +0.000 OA
BRANCH  19  21
ATOM     21  O   UNL     1      -0.328   9.474  20.462  0.00  0.00    +0.000 OA
ATOM     22  H   UNL     1      -0.786   8.772  19.947  0.00  0.00    +0.000 HD
ENDBRANCH  19  21
BRANCH  19  23
ATOM     23  C   UNL     1      -0.339  11.807  19.623  0.00  0.00    +0.000 C 
BRANCH  23  24
ATOM     24  P   UNL     1      -1.573  11.810  18.271  0.00  0.00    +0.000 P 
ATOM     25  O   UNL     1      -2.680  12.236  19.237  0.00  0.00    +0.000 OA
BRANCH  24  26
ATOM     26  O   UNL     1      -0.966  13.201  17.664  0.00  0.00    +0.000 OA
ATOM     27  H   UNL     1      -1.563  13.956  17.825  0.00  0.00    +0.000 HD
ENDBRANCH  24  26
BRANCH  24  28
ATOM     28  O   UNL     1      -2.740  11.814  16.994  0.00  0.00    +0.000 OA
ATOM     29  H   UNL     1      -2.851  12.751  16.737  0.00  0.00    +0.000 HD
ENDBRANCH  24  28
ENDBRANCH  23  24
ENDBRANCH  19  23
ENDBRANCH  18  19
ENDBRANCH  17  18
ENDBRANCH  16  17
ENDBRANCH   1  16
TORSDOF 11
ENDMDL
MODEL 8
REMARK VINA RESULT:      -6.2      3.891      6.121
REMARK  Name = 
REMARK  11 active torsions:
REMARK  status: ('A' for Active; 'I' for Inactive)
REMARK    1  A    between atoms: C_4  and  O_5
REMARK    2  A    between atoms: N_9  and  C_10
REMARK    3  A    between atoms: C_10  and  C_11
REMARK    4  A    between atoms: C_11  and  C_12
REMARK    5  A    between atoms: C_12  and  C_13
REMARK    6  A    between atoms: C_13  and  P_14
REMARK    7  A    between atoms: P_14  and  O_16
REMARK    8  A    between atoms: P_14  and  C_17
REMARK    9  A    between atoms: C_17  and  P_18
REMARK   10  A    between atoms: P_18  and  O_20
REMARK   11  A    between atoms: P_18  and  O_21
REMARK                            x       y       z     vdW  Elec       q    Type
REMARK                         _______ _______ _______ _____ _____    ______ ____
ROOT
ATOM      1  C   UNL     1       3.574   6.831  17.578  0.00  0.00    +0.000 C 
ENDROOT
BRANCH   1   9
ATOM      2  N   UNL     1       0.851   2.390  18.659  0.00  0.00    +0.000 N 
ATOM      3  C   UNL     1       2.130   2.870  18.846  0.00  0.00    +0.000 A 
ATOM      4  N   UNL     1       3.011   2.055  19.442  0.00  0.00    +0.000 NA
ATOM      5  C   UNL     1       4.269   2.506  19.606  0.00  0.00    +0.000 A 
ATOM      6  C   UNL     1       4.646   3.775  19.179  0.00  0.00    +0.000 A 
ATOM      7  N   UNL     1       5.821   4.495  19.189  0.00  0.00    +0.000 NA
ATOM      8  C   UNL     1       5.522   5.642  18.613  0.00  0.00    +0.000 A 
ATOM      9  N   UNL     1       4.205   5.699  18.234  0.00  0.00    +0.000 N 
ATOM     10  C   UNL     1       3.627   4.513  18.602  0.00  0.00    +0.000 A 
ATOM     11  N   UNL     1       2.355   4.122  18.435  0.00  0.00    +0.000 NA
ATOM     12  H   UNL     1       0.646   1.659  19.322  0.00  0.00    +0.000 HD
ATOM     13  H   UNL     1       0.196   3.155  18.586  0.00  0.00    +0.000 HD
BRANCH   5  14
ATOM     14  O   UNL     1       5.118   1.622  20.207  0.00  0.00    +0.000 OA
ATOM     15  H   UNL     1       5.520   1.202  19.427  0.00  0.00    +0.000 HD
ENDBRANCH   5  14
ENDBRANCH   1   9
BRANCH   1  16
ATOM     16  C   UNL     1       2.672   7.663  18.490  0.00  0.00    +0.000 C 
BRANCH  16  17
ATOM     17  C   UNL     1       2.305   9.018  17.908  0.00  0.00    +0.000 C 
BRANCH  17  18
ATOM     18  C   UNL     1       0.794   9.085  17.673  0.00  0.00    +0.000 C 
BRANCH  18  19
ATOM     19  P   UNL     1       0.030  10.241  18.868  0.00  0.00    +0.000 P 
ATOM     20  O   UNL     1       1.323  11.073  18.871  0.00  0.00    +0.000 OA
BRANCH  19  21
ATOM     21  O   UNL     1      -0.849  10.905  17.636  0.00  0.00    +0.000 OA
ATOM     22  H   UNL     1      -0.765  11.886  17.647  0.00  0.00    +0.000 HD
ENDBRANCH  19  21
BRANCH  19  23
ATOM     23  C   UNL     1      -0.733  11.398  20.063  0.00  0.00    +0.000 C 
BRANCH  23  24
ATOM     24  P   UNL     1      -0.410  10.815  21.768  0.00  0.00    +0.000 P 
ATOM     25  O   UNL     1      -0.314   9.366  21.290  0.00  0.00    +0.000 OA
BRANCH  24  26
ATOM     26  O   UNL     1       1.119  11.391  21.720  0.00  0.00    +0.000 OA
ATOM     27  H   UNL     1       1.139  12.350  21.539  0.00  0.00    +0.000 HD
ENDBRANCH  24  26
BRANCH  24  28
ATOM     28  O   UNL     1      -0.104  10.264  23.379  0.00  0.00    +0.000 OA
ATOM     29  H   UNL     1       0.862  10.125  23.434  0.00  0.00    +0.000 HD
ENDBRANCH  24  28
ENDBRANCH  23  24
ENDBRANCH  19  23
ENDBRANCH  18  19
ENDBRANCH  17  18
ENDBRANCH  16  17
ENDBRANCH   1  16
TORSDOF 11
ENDMDL
MODEL 9
REMARK VINA RESULT:      -6.2      4.400      5.884
REMARK  Name = 
REMARK  11 active torsions:
REMARK  status: ('A' for Active; 'I' for Inactive)
REMARK    1  A    between atoms: C_4  and  O_5
REMARK    2  A    between atoms: N_9  and  C_10
REMARK    3  A    between atoms: C_10  and  C_11
REMARK    4  A    between atoms: C_11  and  C_12
REMARK    5  A    between atoms: C_12  and  C_13
REMARK    6  A    between atoms: C_13  and  P_14
REMARK    7  A    between atoms: P_14  and  O_16
REMARK    8  A    between atoms: P_14  and  C_17
REMARK    9  A    between atoms: C_17  and  P_18
REMARK   10  A    between atoms: P_18  and  O_20
REMARK   11  A    between atoms: P_18  and  O_21
REMARK                            x       y       z     vdW  Elec       q    Type
REMARK                         _______ _______ _______ _____ _____    ______ ____
ROOT
ATOM      1  C   UNL     1       3.032   6.297  17.913  0.00  0.00    +0.000 C 
ENDROOT
BRANCH   1   9
ATOM      2  N   UNL     1       6.583   5.361  14.064  0.00  0.00    +0.000 N 
ATOM      3  C   UNL     1       6.493   5.187  15.429  0.00  0.00    +0.000 A 
ATOM      4  N   UNL     1       7.554   4.658  16.053  0.00  0.00    +0.000 NA
ATOM      5  C   UNL     1       7.484   4.507  17.389  0.00  0.00    +0.000 A 
ATOM      6  C   UNL     1       6.350   4.881  18.102  0.00  0.00    +0.000 A 
ATOM      7  N   UNL     1       5.990   4.868  19.432  0.00  0.00    +0.000 NA
ATOM      8  C   UNL     1       4.776   5.378  19.462  0.00  0.00    +0.000 A 
ATOM      9  N   UNL     1       4.330   5.716  18.209  0.00  0.00    +0.000 N 
ATOM     10  C   UNL     1       5.325   5.391  17.325  0.00  0.00    +0.000 A 
ATOM     11  N   UNL     1       5.333   5.541  15.992  0.00  0.00    +0.000 NA
ATOM     12  H   UNL     1       7.263   4.729  13.670  0.00  0.00    +0.000 HD
ATOM     13  H   UNL     1       5.663   5.377  13.651  0.00  0.00    +0.000 HD
BRANCH   5  14
ATOM     14  O   UNL     1       8.603   3.975  17.963  0.00  0.00    +0.000 OA
ATOM     15  H   UNL     1       8.968   4.761  18.404  0.00  0.00    +0.000 HD
ENDBRANCH   5  14
ENDBRANCH   1   9
BRANCH   1  16
ATOM     16  C   UNL     1       2.886   7.759  18.335  0.00  0.00    +0.000 C 
BRANCH  16  17
ATOM     17  C   UNL     1       1.726   8.473  17.661  0.00  0.00    +0.000 C 
BRANCH  17  18
ATOM     18  C   UNL     1       1.597   9.891  18.226  0.00  0.00    +0.000 C 
BRANCH  18  19
ATOM     19  P   UNL     1      -0.168  10.365  18.314  0.00  0.00    +0.000 P 
ATOM     20  O   UNL     1      -0.205   9.908  19.781  0.00  0.00    +0.000 OA
BRANCH  19  21
ATOM     21  O   UNL     1       0.283  11.952  18.418  0.00  0.00    +0.000 OA
ATOM     22  H   UNL     1       0.426  12.204  19.358  0.00  0.00    +0.000 HD
ENDBRANCH  19  21
BRANCH  19  23
ATOM     23  C   UNL     1      -1.933  10.840  18.401  0.00  0.00    +0.000 C 
BRANCH  23  24
ATOM     24  P   UNL     1      -2.773  10.356  16.849  0.00  0.00    +0.000 P 
ATOM     25  O   UNL     1      -4.141  10.687  17.446  0.00  0.00    +0.000 OA
BRANCH  24  26
ATOM     26  O   UNL     1      -2.279  11.725  16.105  0.00  0.00    +0.000 OA
ATOM     27  H   UNL     1      -2.192  11.601  15.141  0.00  0.00    +0.000 HD
ENDBRANCH  24  26
BRANCH  24  28
ATOM     28  O   UNL     1      -3.567   9.899  15.381  0.00  0.00    +0.000 OA
ATOM     29  H   UNL     1      -4.393  10.423  15.351  0.00  0.00    +0.000 HD
ENDBRANCH  24  28
ENDBRANCH  23  24
ENDBRANCH  19  23
ENDBRANCH  18  19
ENDBRANCH  17  18
ENDBRANCH  16  17
ENDBRANCH   1  16
TORSDOF 11
ENDMDL
