MODEL 1
REMARK VINA RESULT:      -8.2      0.000      0.000
REMARK  Name = 
REMARK  6 active torsions:
REMARK  status: ('A' for Active; 'I' for Inactive)
REMARK    1  A    between atoms: C_1  and  C_2
REMARK    2  A    between atoms: C_4  and  C_5
REMARK    3  A    between atoms: C_9  and  C_10
REMARK    4  A    between atoms: C_15  and  O_16
REMARK    5  A    between atoms: O_16  and  C_17
REMARK    6  A    between atoms: C_17  and  C_18
REMARK                            x       y       z     vdW  Elec       q    Type
REMARK                         _______ _______ _______ _____ _____    ______ ____
ROOT
ATOM      1  C   UNL     1       0.081   9.280  23.489  0.00  0.00    +0.000 C 
ATOM      2  C   UNL     1       0.404   9.417  22.030  0.00  0.00    +0.000 A 
ATOM      3  C   UNL     1       0.026  10.551  21.339  0.00  0.00    +0.000 A 
ATOM      4  C   UNL     1       0.429  10.721  20.012  0.00  0.00    +0.000 A 
ATOM      5  C   UNL     1       1.179   9.676  19.386  0.00  0.00    +0.000 A 
ATOM      6  C   UNL     1       1.652   9.729  18.048  0.00  0.00    +0.000 A 
ATOM      7  C   UNL     1       2.365   8.689  17.468  0.00  0.00    +0.000 A 
ATOM      8  C   UNL     1       2.631   7.557  18.211  0.00  0.00    +0.000 A 
ATOM      9  C   UNL     1       2.158   7.449  19.528  0.00  0.00    +0.000 A 
ATOM     10  C   UNL     1       1.468   8.515  20.150  0.00  0.00    +0.000 A 
ATOM     11  N   UNL     1       1.097   8.415  21.446  0.00  0.00    +0.000 NA
ENDROOT
BRANCH   4  12
ATOM     12  C   UNL     1       0.060  11.986  19.333  0.00  0.00    +0.000 A 
ATOM     13  N   UNL     1      -1.119  12.117  18.701  0.00  0.00    +0.000 NA
ATOM     14  N   UNL     1      -1.097  13.334  18.151  0.00  0.00    +0.000 N 
ATOM     15  C   UNL     1       0.011  14.050  18.468  0.00  0.00    +0.000 A 
ATOM     16  C   UNL     1       0.797  13.224  19.245  0.00  0.00    +0.000 A 
ATOM     17  C   UNL     1       2.117  13.587  19.816  0.00  0.00    +0.000 C 
ATOM     18  H   UNL     1      -1.878  13.613  17.568  0.00  0.00    +0.000 HD
ENDBRANCH   4  12
BRANCH   9  19
ATOM     19  O   UNL     1       2.350   6.297  20.277  0.00  0.00    +0.000 OA
BRANCH  19  20
ATOM     20  C   UNL     1       3.482   5.511  19.898  0.00  0.00    +0.000 C 
BRANCH  20  21
ATOM     21  C   UNL     1       3.044   4.197  19.304  0.00  0.00    +0.000 A 
ATOM     22  C   UNL     1       2.322   3.267  20.069  0.00  0.00    +0.000 A 
ATOM     23 CL   UNL     1       1.927   3.525  21.730  0.00  0.00    +0.000 Cl
ATOM     24  C   UNL     1       1.872   2.096  19.466  0.00  0.00    +0.000 A 
ATOM     25  N   UNL     1       2.095   1.776  18.171  0.00  0.00    +0.000 NA
ATOM     26  C   UNL     1       2.817   2.668  17.456  0.00  0.00    +0.000 A 
ATOM     27  C   UNL     1       3.309   3.866  17.966  0.00  0.00    +0.000 A 
ATOM     28 CL   UNL     1       4.200   4.892  16.902  0.00  0.00    +0.000 Cl
ENDBRANCH  20  21
ENDBRANCH  19  20
ENDBRANCH   9  19
TORSDOF 4
ENDMDL
MODEL 2
REMARK VINA RESULT:      -8.2      0.434      1.792
REMARK  Name = 
REMARK  6 active torsions:
REMARK  status: ('A' for Active; 'I' for Inactive)
REMARK    1  A    between atoms: C_1  and  C_2
REMARK    2  A    between atoms: C_4  and  C_5
REMARK    3  A    between atoms: C_9  and  C_10
REMARK    4  A    between atoms: C_15  and  O_16
REMARK    5  A    between atoms: O_16  and  C_17
REMARK    6  A    between atoms: C_17  and  C_18
REMARK                            x       y       z     vdW  Elec       q    Type
REMARK                         _______ _______ _______ _____ _____    ______ ____
ROOT
ATOM      1  C   UNL     1      -0.192   9.097  23.275  0.00  0.00    +0.000 C 
ATOM      2  C   UNL     1       0.231   9.222  21.841  0.00  0.00    +0.000 A 
ATOM      3  C   UNL     1      -0.133  10.332  21.103  0.00  0.00    +0.000 A 
ATOM      4  C   UNL     1       0.361  10.495  19.806  0.00  0.00    +0.000 A 
ATOM      5  C   UNL     1       1.187   9.465  19.255  0.00  0.00    +0.000 A 
ATOM      6  C   UNL     1       1.754   9.513  17.954  0.00  0.00    +0.000 A 
ATOM      7  C   UNL     1       2.541   8.488  17.445  0.00  0.00    +0.000 A 
ATOM      8  C   UNL     1       2.788   7.377  18.226  0.00  0.00    +0.000 A 
ATOM      9  C   UNL     1       2.225   7.275  19.508  0.00  0.00    +0.000 A 
ATOM     10  C   UNL     1       1.457   8.326  20.059  0.00  0.00    +0.000 A 
ATOM     11  N   UNL     1       0.996   8.235  21.327  0.00  0.00    +0.000 NA
ENDROOT
BRANCH   4  12
ATOM     12  C   UNL     1       0.000  11.735  19.079  0.00  0.00    +0.000 A 
ATOM     13  N   UNL     1      -1.107  11.800  18.321  0.00  0.00    +0.000 NA
ATOM     14  N   UNL     1      -1.090  13.014  17.766  0.00  0.00    +0.000 N 
ATOM     15  C   UNL     1      -0.064  13.791  18.195  0.00  0.00    +0.000 A 
ATOM     16  C   UNL     1       0.676  13.010  19.061  0.00  0.00    +0.000 A 
ATOM     17  C   UNL     1       1.905  13.446  19.769  0.00  0.00    +0.000 C 
ATOM     18  H   UNL     1      -1.817  13.249  17.099  0.00  0.00    +0.000 HD
ENDBRANCH   4  12
BRANCH   9  19
ATOM     19  O   UNL     1       2.399   6.141  20.289  0.00  0.00    +0.000 OA
BRANCH  19  20
ATOM     20  C   UNL     1       3.620   5.435  20.067  0.00  0.00    +0.000 C 
BRANCH  20  21
ATOM     21  C   UNL     1       3.355   4.106  19.408  0.00  0.00    +0.000 A 
ATOM     22  C   UNL     1       3.894   3.810  18.145  0.00  0.00    +0.000 A 
ATOM     23 CL   UNL     1       4.843   4.935  17.244  0.00  0.00    +0.000 Cl
ATOM     24  C   UNL     1       3.687   2.546  17.599  0.00  0.00    +0.000 A 
ATOM     25  N   UNL     1       2.980   1.565  18.204  0.00  0.00    +0.000 NA
ATOM     26  C   UNL     1       2.442   1.876  19.405  0.00  0.00    +0.000 A 
ATOM     27  C   UNL     1       2.593   3.109  20.035  0.00  0.00    +0.000 A 
ATOM     28 CL   UNL     1       1.847   3.324  21.577  0.00  0.00    +0.000 Cl
ENDBRANCH  20  21
ENDBRANCH  19  20
ENDBRANCH   9  19
TORSDOF 4
ENDMDL
MODEL 3
REMARK VINA RESULT:      -8.0      0.965      2.107
REMARK  Name = 
REMARK  6 active torsions:
REMARK  status: ('A' for Active; 'I' for Inactive)
REMARK    1  A    between atoms: C_1  and  C_2
REMARK    2  A    between atoms: C_4  and  C_5
REMARK    3  A    between atoms: C_9  and  C_10
REMARK    4  A    between atoms: C_15  and  O_16
REMARK    5  A    between atoms: O_16  and  C_17
REMARK    6  A    between atoms: C_17  and  C_18
REMARK                            x       y       z     vdW  Elec       q    Type
REMARK                         _______ _______ _______ _____ _____    ______ ____
ROOT
ATOM      1  C   UNL     1      -0.003   9.348  23.475  0.00  0.00    +0.000 C 
ATOM      2  C   UNL     1       0.382   9.492  22.032  0.00  0.00    +0.000 A 
ATOM      3  C   UNL     1       0.167  10.687  21.371  0.00  0.00    +0.000 A 
ATOM      4  C   UNL     1       0.632  10.850  20.064  0.00  0.00    +0.000 A 
ATOM      5  C   UNL     1       1.270   9.742  19.423  0.00  0.00    +0.000 A 
ATOM      6  C   UNL     1       1.790   9.780  18.101  0.00  0.00    +0.000 A 
ATOM      7  C   UNL     1       2.390   8.680  17.504  0.00  0.00    +0.000 A 
ATOM      8  C   UNL     1       2.492   7.500  18.213  0.00  0.00    +0.000 A 
ATOM      9  C   UNL     1       1.966   7.408  19.511  0.00  0.00    +0.000 A 
ATOM     10  C   UNL     1       1.390   8.529  20.151  0.00  0.00    +0.000 A 
ATOM     11  N   UNL     1       0.967   8.433  21.432  0.00  0.00    +0.000 NA
ENDROOT
BRANCH   4  12
ATOM     12  C   UNL     1       0.441  12.172  19.421  0.00  0.00    +0.000 A 
ATOM     13  N   UNL     1       1.340  13.158  19.580  0.00  0.00    +0.000 NA
ATOM     14  N   UNL     1       0.832  14.211  18.935  0.00  0.00    +0.000 N 
ATOM     15  C   UNL     1      -0.324  13.938  18.278  0.00  0.00    +0.000 A 
ATOM     16  C   UNL     1      -0.621  12.618  18.552  0.00  0.00    +0.000 A 
ATOM     17  C   UNL     1      -1.809  11.886  18.048  0.00  0.00    +0.000 C 
ATOM     18  H   UNL     1       1.331  15.093  18.983  0.00  0.00    +0.000 HD
ENDBRANCH   4  12
BRANCH   9  19
ATOM     19  O   UNL     1       1.992   6.217  20.222  0.00  0.00    +0.000 OA
BRANCH  19  20
ATOM     20  C   UNL     1       3.234   5.512  20.177  0.00  0.00    +0.000 C 
BRANCH  20  21
ATOM     21  C   UNL     1       3.097   4.242  19.378  0.00  0.00    +0.000 A 
ATOM     22  C   UNL     1       3.867   4.034  18.221  0.00  0.00    +0.000 A 
ATOM     23 CL   UNL     1       4.971   5.210  17.608  0.00  0.00    +0.000 Cl
ATOM     24  C   UNL     1       3.766   2.820  17.549  0.00  0.00    +0.000 A 
ATOM     25  N   UNL     1       2.955   1.807  17.929  0.00  0.00    +0.000 NA
ATOM     26  C   UNL     1       2.198   2.034  19.027  0.00  0.00    +0.000 A 
ATOM     27  C   UNL     1       2.228   3.212  19.768  0.00  0.00    +0.000 A 
ATOM     28 CL   UNL     1       1.203   3.321  21.153  0.00  0.00    +0.000 Cl
ENDBRANCH  20  21
ENDBRANCH  19  20
ENDBRANCH   9  19
TORSDOF 4
ENDMDL
MODEL 4
REMARK VINA RESULT:      -8.0      0.932      1.226
REMARK  Name = 
REMARK  6 active torsions:
REMARK  status: ('A' for Active; 'I' for Inactive)
REMARK    1  A    between atoms: C_1  and  C_2
REMARK    2  A    between atoms: C_4  and  C_5
REMARK    3  A    between atoms: C_9  and  C_10
REMARK    4  A    between atoms: C_15  and  O_16
REMARK    5  A    between atoms: O_16  and  C_17
REMARK    6  A    between atoms: C_17  and  C_18
REMARK                            x       y       z     vdW  Elec       q    Type
REMARK                         _______ _______ _______ _____ _____    ______ ____
ROOT
ATOM      1  C   UNL     1       0.110   9.393  23.572  0.00  0.00    +0.000 C 
ATOM      2  C   UNL     1       0.447   9.566  22.120  0.00  0.00    +0.000 A 
ATOM      3  C   UNL     1       0.195  10.768  21.487  0.00  0.00    +0.000 A 
ATOM      4  C   UNL     1       0.616  10.959  20.169  0.00  0.00    +0.000 A 
ATOM      5  C   UNL     1       1.249   9.871  19.489  0.00  0.00    +0.000 A 
ATOM      6  C   UNL     1       1.726   9.938  18.152  0.00  0.00    +0.000 A 
ATOM      7  C   UNL     1       2.322   8.857  17.519  0.00  0.00    +0.000 A 
ATOM      8  C   UNL     1       2.463   7.667  18.204  0.00  0.00    +0.000 A 
ATOM      9  C   UNL     1       1.980   7.547  19.517  0.00  0.00    +0.000 A 
ATOM     10  C   UNL     1       1.408   8.648  20.193  0.00  0.00    +0.000 A 
ATOM     11  N   UNL     1       1.028   8.525  21.485  0.00  0.00    +0.000 NA
ENDROOT
BRANCH   4  12
ATOM     12  C   UNL     1       0.386  12.288  19.554  0.00  0.00    +0.000 A 
ATOM     13  N   UNL     1       1.183  13.332  19.837  0.00  0.00    +0.000 NA
ATOM     14  N   UNL     1       0.661  14.370  19.179  0.00  0.00    +0.000 N 
ATOM     15  C   UNL     1      -0.398  14.037  18.399  0.00  0.00    +0.000 A 
ATOM     16  C   UNL     1      -0.616  12.689  18.596  0.00  0.00    +0.000 A 
ATOM     17  C   UNL     1      -1.687  11.891  17.949  0.00  0.00    +0.000 C 
ATOM     18  H   UNL     1       1.081  15.284  19.308  0.00  0.00    +0.000 HD
ENDBRANCH   4  12
BRANCH   9  19
ATOM     19  O   UNL     1       2.045   6.344  20.206  0.00  0.00    +0.000 OA
BRANCH  19  20
ATOM     20  C   UNL     1       3.214   5.563  19.953  0.00  0.00    +0.000 C 
BRANCH  20  21
ATOM     21  C   UNL     1       2.874   4.344  19.135  0.00  0.00    +0.000 A 
ATOM     22  C   UNL     1       2.011   3.358  19.640  0.00  0.00    +0.000 A 
ATOM     23 CL   UNL     1       1.323   3.435  21.221  0.00  0.00    +0.000 Cl
ATOM     24  C   UNL     1       1.663   2.282  18.829  0.00  0.00    +0.000 A 
ATOM     25  N   UNL     1       2.114   2.106  17.566  0.00  0.00    +0.000 NA
ATOM     26  C   UNL     1       2.968   3.049  17.106  0.00  0.00    +0.000 A 
ATOM     27  C   UNL     1       3.375   4.161  17.838  0.00  0.00    +0.000 A 
ATOM     28 CL   UNL     1       4.460   5.272  17.082  0.00  0.00    +0.000 Cl
ENDBRANCH  20  21
ENDBRANCH  19  20
ENDBRANCH   9  19
TORSDOF 4
ENDMDL
MODEL 5
REMARK VINA RESULT:      -7.9      1.011      2.049
REMARK  Name = 
REMARK  6 active torsions:
REMARK  status: ('A' for Active; 'I' for Inactive)
REMARK    1  A    between atoms: C_1  and  C_2
REMARK    2  A    between atoms: C_4  and  C_5
REMARK    3  A    between atoms: C_9  and  C_10
REMARK    4  A    between atoms: C_15  and  O_16
REMARK    5  A    between atoms: O_16  and  C_17
REMARK    6  A    between atoms: C_17  and  C_18
REMARK                            x       y       z     vdW  Elec       q    Type
REMARK                         _______ _______ _______ _____ _____    ______ ____
ROOT
ATOM      1  C   UNL     1       0.008   9.335  23.562  0.00  0.00    +0.000 C 
ATOM      2  C   UNL     1       0.348   9.527  22.113  0.00  0.00    +0.000 A 
ATOM      3  C   UNL     1       0.052  10.719  21.482  0.00  0.00    +0.000 A 
ATOM      4  C   UNL     1       0.474  10.932  20.167  0.00  0.00    +0.000 A 
ATOM      5  C   UNL     1       1.155   9.873  19.488  0.00  0.00    +0.000 A 
ATOM      6  C   UNL     1       1.638   9.964  18.156  0.00  0.00    +0.000 A 
ATOM      7  C   UNL     1       2.283   8.910  17.523  0.00  0.00    +0.000 A 
ATOM      8  C   UNL     1       2.466   7.724  18.205  0.00  0.00    +0.000 A 
ATOM      9  C   UNL     1       1.980   7.580  19.514  0.00  0.00    +0.000 A 
ATOM     10  C   UNL     1       1.359   8.655  20.190  0.00  0.00    +0.000 A 
ATOM     11  N   UNL     1       0.974   8.513  21.478  0.00  0.00    +0.000 NA
ENDROOT
BRANCH   4  12
ATOM     12  C   UNL     1       0.195  12.253  19.555  0.00  0.00    +0.000 A 
ATOM     13  N   UNL     1      -0.964  12.493  18.918  0.00  0.00    +0.000 NA
ATOM     14  N   UNL     1      -0.857  13.734  18.438  0.00  0.00    +0.000 N 
ATOM     15  C   UNL     1       0.290  14.360  18.805  0.00  0.00    +0.000 A 
ATOM     16  C   UNL     1       1.011  13.444  19.544  0.00  0.00    +0.000 A 
ATOM     17  C   UNL     1       2.343  13.689  20.148  0.00  0.00    +0.000 C 
ATOM     18  H   UNL     1      -1.610  14.095  17.863  0.00  0.00    +0.000 HD
ENDBRANCH   4  12
BRANCH   9  19
ATOM     19  O   UNL     1       2.088   6.379  20.201  0.00  0.00    +0.000 OA
BRANCH  19  20
ATOM     20  C   UNL     1       1.781   5.213  19.434  0.00  0.00    +0.000 C 
BRANCH  20  21
ATOM     21  C   UNL     1       2.814   4.140  19.658  0.00  0.00    +0.000 A 
ATOM     22  C   UNL     1       3.977   4.085  18.872  0.00  0.00    +0.000 A 
ATOM     23 CL   UNL     1       4.287   5.189  17.582  0.00  0.00    +0.000 Cl
ATOM     24  C   UNL     1       4.942   3.124  19.155  0.00  0.00    +0.000 A 
ATOM     25  N   UNL     1       4.836   2.210  20.146  0.00  0.00    +0.000 NA
ATOM     26  C   UNL     1       3.697   2.256  20.874  0.00  0.00    +0.000 A 
ATOM     27  C   UNL     1       2.674   3.179  20.671  0.00  0.00    +0.000 A 
ATOM     28 CL   UNL     1       1.297   3.100  21.709  0.00  0.00    +0.000 Cl
ENDBRANCH  20  21
ENDBRANCH  19  20
ENDBRANCH   9  19
TORSDOF 4
ENDMDL
MODEL 6
REMARK VINA RESULT:      -7.9      2.906      7.786
REMARK  Name = 
REMARK  6 active torsions:
REMARK  status: ('A' for Active; 'I' for Inactive)
REMARK    1  A    between atoms: C_1  and  C_2
REMARK    2  A    between atoms: C_4  and  C_5
REMARK    3  A    between atoms: C_9  and  C_10
REMARK    4  A    between atoms: C_15  and  O_16
REMARK    5  A    between atoms: O_16  and  C_17
REMARK    6  A    between atoms: C_17  and  C_18
REMARK                            x       y       z     vdW  Elec       q    Type
REMARK                         _______ _______ _______ _____ _____    ______ ____
ROOT
ATOM      1  C   UNL     1       2.226   3.423  21.681  0.00  0.00    +0.000 C 
ATOM      2  C   UNL     1       2.651   4.437  20.659  0.00  0.00    +0.000 A 
ATOM      3  C   UNL     1       3.592   4.107  19.703  0.00  0.00    +0.000 A 
ATOM      4  C   UNL     1       3.897   5.017  18.688  0.00  0.00    +0.000 A 
ATOM      5  C   UNL     1       3.263   6.299  18.706  0.00  0.00    +0.000 A 
ATOM      6  C   UNL     1       3.484   7.309  17.731  0.00  0.00    +0.000 A 
ATOM      7  C   UNL     1       2.862   8.548  17.788  0.00  0.00    +0.000 A 
ATOM      8  C   UNL     1       1.994   8.820  18.827  0.00  0.00    +0.000 A 
ATOM      9  C   UNL     1       1.768   7.862  19.828  0.00  0.00    +0.000 A 
ATOM     10  C   UNL     1       2.359   6.580  19.764  0.00  0.00    +0.000 A 
ATOM     11  N   UNL     1       2.059   5.650  20.698  0.00  0.00    +0.000 NA
ENDROOT
BRANCH   4  12
ATOM     12  C   UNL     1       4.860   4.592  17.644  0.00  0.00    +0.000 A 
ATOM     13  N   UNL     1       4.496   3.747  16.665  0.00  0.00    +0.000 NA
ATOM     14  N   UNL     1       5.603   3.527  15.952  0.00  0.00    +0.000 N 
ATOM     15  C   UNL     1       6.667   4.262  16.364  0.00  0.00    +0.000 A 
ATOM     16  C   UNL     1       6.237   4.984  17.459  0.00  0.00    +0.000 A 
ATOM     17  C   UNL     1       7.073   5.923  18.247  0.00  0.00    +0.000 C 
ATOM     18  H   UNL     1       5.561   2.859  15.190  0.00  0.00    +0.000 HD
ENDBRANCH   4  12
BRANCH   9  19
ATOM     19  O   UNL     1       0.955   8.132  20.920  0.00  0.00    +0.000 OA
BRANCH  19  20
ATOM     20  C   UNL     1      -0.372   8.552  20.598  0.00  0.00    +0.000 C 
BRANCH  20  21
ATOM     21  C   UNL     1      -0.561  10.012  20.917  0.00  0.00    +0.000 A 
ATOM     22  C   UNL     1      -0.898  10.930  19.909  0.00  0.00    +0.000 A 
ATOM     23 CL   UNL     1      -1.072  10.480  18.252  0.00  0.00    +0.000 Cl
ATOM     24  C   UNL     1      -1.134  12.258  20.252  0.00  0.00    +0.000 A 
ATOM     25  N   UNL     1      -1.050  12.742  21.512  0.00  0.00    +0.000 NA
ATOM     26  C   UNL     1      -0.695  11.852  22.466  0.00  0.00    +0.000 A 
ATOM     27  C   UNL     1      -0.439  10.505  22.225  0.00  0.00    +0.000 A 
ATOM     28 CL   UNL     1      -0.012   9.510  23.569  0.00  0.00    +0.000 Cl
ENDBRANCH  20  21
ENDBRANCH  19  20
ENDBRANCH   9  19
TORSDOF 4
ENDMDL
MODEL 7
REMARK VINA RESULT:      -7.8      2.895      7.615
REMARK  Name = 
REMARK  6 active torsions:
REMARK  status: ('A' for Active; 'I' for Inactive)
REMARK    1  A    between atoms: C_1  and  C_2
REMARK    2  A    between atoms: C_4  and  C_5
REMARK    3  A    between atoms: C_9  and  C_10
REMARK    4  A    between atoms: C_15  and  O_16
REMARK    5  A    between atoms: O_16  and  C_17
REMARK    6  A    between atoms: C_17  and  C_18
REMARK                            x       y       z     vdW  Elec       q    Type
REMARK                         _______ _______ _______ _____ _____    ______ ____
ROOT
ATOM      1  C   UNL     1       2.176   3.515  21.699  0.00  0.00    +0.000 C 
ATOM      2  C   UNL     1       2.615   4.513  20.667  0.00  0.00    +0.000 A 
ATOM      3  C   UNL     1       3.557   4.164  19.720  0.00  0.00    +0.000 A 
ATOM      4  C   UNL     1       3.875   5.059  18.695  0.00  0.00    +0.000 A 
ATOM      5  C   UNL     1       3.250   6.346  18.694  0.00  0.00    +0.000 A 
ATOM      6  C   UNL     1       3.483   7.342  17.708  0.00  0.00    +0.000 A 
ATOM      7  C   UNL     1       2.870   8.586  17.746  0.00  0.00    +0.000 A 
ATOM      8  C   UNL     1       1.999   8.878  18.777  0.00  0.00    +0.000 A 
ATOM      9  C   UNL     1       1.761   7.934  19.789  0.00  0.00    +0.000 A 
ATOM     10  C   UNL     1       2.343   6.647  19.744  0.00  0.00    +0.000 A 
ATOM     11  N   UNL     1       2.031   5.730  20.688  0.00  0.00    +0.000 NA
ENDROOT
BRANCH   4  12
ATOM     12  C   UNL     1       4.840   4.614  17.661  0.00  0.00    +0.000 A 
ATOM     13  N   UNL     1       4.494   3.707  16.732  0.00  0.00    +0.000 NA
ATOM     14  N   UNL     1       5.600   3.489  16.017  0.00  0.00    +0.000 N 
ATOM     15  C   UNL     1       6.642   4.281  16.376  0.00  0.00    +0.000 A 
ATOM     16  C   UNL     1       6.200   5.042  17.439  0.00  0.00    +0.000 A 
ATOM     17  C   UNL     1       7.011   6.049  18.166  0.00  0.00    +0.000 C 
ATOM     18  H   UNL     1       5.573   2.781  15.291  0.00  0.00    +0.000 HD
ENDBRANCH   4  12
BRANCH   9  19
ATOM     19  O   UNL     1       0.945   8.223  20.873  0.00  0.00    +0.000 OA
BRANCH  19  20
ATOM     20  C   UNL     1      -0.386   8.622  20.540  0.00  0.00    +0.000 C 
BRANCH  20  21
ATOM     21  C   UNL     1      -0.583  10.093  20.802  0.00  0.00    +0.000 A 
ATOM     22  C   UNL     1      -0.466  10.613  22.101  0.00  0.00    +0.000 A 
ATOM     23 CL   UNL     1      -0.143   9.626  23.480  0.00  0.00    +0.000 Cl
ATOM     24  C   UNL     1      -0.584  11.986  22.295  0.00  0.00    +0.000 A 
ATOM     25  N   UNL     1      -0.819  12.875  21.302  0.00  0.00    +0.000 NA
ATOM     26  C   UNL     1      -0.958  12.355  20.062  0.00  0.00    +0.000 A 
ATOM     27  C   UNL     1      -0.857  10.998  19.766  0.00  0.00    +0.000 A 
ATOM     28 CL   UNL     1      -1.048  10.515  18.120  0.00  0.00    +0.000 Cl
ENDBRANCH  20  21
ENDBRANCH  19  20
ENDBRANCH   9  19
TORSDOF 4
ENDMDL
MODEL 8
REMARK VINA RESULT:      -7.8      0.948      1.789
REMARK  Name = 
REMARK  6 active torsions:
REMARK  status: ('A' for Active; 'I' for Inactive)
REMARK    1  A    between atoms: C_1  and  C_2
REMARK    2  A    between atoms: C_4  and  C_5
REMARK    3  A    between atoms: C_9  and  C_10
REMARK    4  A    between atoms: C_15  and  O_16
REMARK    5  A    between atoms: O_16  and  C_17
REMARK    6  A    between atoms: C_17  and  C_18
REMARK                            x       y       z     vdW  Elec       q    Type
REMARK                         _______ _______ _______ _____ _____    ______ ____
ROOT
ATOM      1  C   UNL     1      -0.249   9.255  23.393  0.00  0.00    +0.000 C 
ATOM      2  C   UNL     1       0.184   9.340  21.958  0.00  0.00    +0.000 A 
ATOM      3  C   UNL     1      -0.124  10.456  21.205  0.00  0.00    +0.000 A 
ATOM      4  C   UNL     1       0.380  10.577  19.907  0.00  0.00    +0.000 A 
ATOM      5  C   UNL     1       1.158   9.502  19.373  0.00  0.00    +0.000 A 
ATOM      6  C   UNL     1       1.731   9.504  18.073  0.00  0.00    +0.000 A 
ATOM      7  C   UNL     1       2.469   8.436  17.582  0.00  0.00    +0.000 A 
ATOM      8  C   UNL     1       2.660   7.325  18.379  0.00  0.00    +0.000 A 
ATOM      9  C   UNL     1       2.089   7.268  19.660  0.00  0.00    +0.000 A 
ATOM     10  C   UNL     1       1.371   8.362  20.193  0.00  0.00    +0.000 A 
ATOM     11  N   UNL     1       0.902   8.310  21.461  0.00  0.00    +0.000 NA
ENDROOT
BRANCH   4  12
ATOM     12  C   UNL     1       0.082  11.823  19.162  0.00  0.00    +0.000 A 
ATOM     13  N   UNL     1      -0.956  11.893  18.311  0.00  0.00    +0.000 NA
ATOM     14  N   UNL     1      -0.893  13.112  17.771  0.00  0.00    +0.000 N 
ATOM     15  C   UNL     1       0.091  13.886  18.293  0.00  0.00    +0.000 A 
ATOM     16  C   UNL     1       0.754  13.099  19.213  0.00  0.00    +0.000 A 
ATOM     17  C   UNL     1       1.917  13.530  20.028  0.00  0.00    +0.000 C 
ATOM     18  H   UNL     1      -1.560  13.352  17.045  0.00  0.00    +0.000 HD
ENDBRANCH   4  12
BRANCH   9  19
ATOM     19  O   UNL     1       2.206   6.138  20.457  0.00  0.00    +0.000 OA
BRANCH  19  20
ATOM     20  C   UNL     1       1.234   5.121  20.212  0.00  0.00    +0.000 C 
BRANCH  20  21
ATOM     21  C   UNL     1       1.868   3.926  19.547  0.00  0.00    +0.000 A 
ATOM     22  C   UNL     1       1.840   3.782  18.150  0.00  0.00    +0.000 A 
ATOM     23 CL   UNL     1       1.053   4.910  17.107  0.00  0.00    +0.000 Cl
ATOM     24  C   UNL     1       2.498   2.703  17.567  0.00  0.00    +0.000 A 
ATOM     25  N   UNL     1       3.167   1.756  18.263  0.00  0.00    +0.000 NA
ATOM     26  C   UNL     1       3.159   1.893  19.608  0.00  0.00    +0.000 A 
ATOM     27  C   UNL     1       2.532   2.935  20.285  0.00  0.00    +0.000 A 
ATOM     28 CL   UNL     1       2.638   2.958  22.008  0.00  0.00    +0.000 Cl
ENDBRANCH  20  21
ENDBRANCH  19  20
ENDBRANCH   9  19
TORSDOF 4
ENDMDL
MODEL 9
REMARK VINA RESULT:      -7.8      1.182      1.250
REMARK  Name = 
REMARK  6 active torsions:
REMARK  status: ('A' for Active; 'I' for Inactive)
REMARK    1  A    between atoms: C_1  and  C_2
REMARK    2  A    between atoms: C_4  and  C_5
REMARK    3  A    between atoms: C_9  and  C_10
REMARK    4  A    between atoms: C_15  and  O_16
REMARK    5  A    between atoms: O_16  and  C_17
REMARK    6  A    between atoms: C_17  and  C_18
REMARK                            x       y       z     vdW  Elec       q    Type
REMARK                         _______ _______ _______ _____ _____    ______ ____
ROOT
ATOM      1  C   UNL     1       0.151   9.381  23.766  0.00  0.00    +0.000 C 
ATOM      2  C   UNL     1       0.388   9.644  22.308  0.00  0.00    +0.000 A 
ATOM      3  C   UNL     1       0.003  10.847  21.748  0.00  0.00    +0.000 A 
ATOM      4  C   UNL     1       0.329  11.129  20.419  0.00  0.00    +0.000 A 
ATOM      5  C   UNL     1       1.006  10.128  19.654  0.00  0.00    +0.000 A 
ATOM      6  C   UNL     1       1.397  10.292  18.298  0.00  0.00    +0.000 A 
ATOM      7  C   UNL     1       2.040   9.292  17.581  0.00  0.00    +0.000 A 
ATOM      8  C   UNL     1       2.314   8.089  18.200  0.00  0.00    +0.000 A 
ATOM      9  C   UNL     1       1.921   7.873  19.530  0.00  0.00    +0.000 A 
ATOM     10  C   UNL     1       1.304   8.893  20.288  0.00  0.00    +0.000 A 
ATOM     11  N   UNL     1       1.011   8.683  21.592  0.00  0.00    +0.000 NA
ENDROOT
BRANCH   4  12
ATOM     12  C   UNL     1      -0.042  12.460  19.882  0.00  0.00    +0.000 A 
ATOM     13  N   UNL     1      -1.316  12.755  19.574  0.00  0.00    +0.000 NA
ATOM     14  N   UNL     1      -1.284  13.988  19.063  0.00  0.00    +0.000 N 
ATOM     15  C   UNL     1      -0.053  14.558  19.101  0.00  0.00    +0.000 A 
ATOM     16  C   UNL     1       0.795  13.610  19.635  0.00  0.00    +0.000 A 
ATOM     17  C   UNL     1       2.251  13.792  19.857  0.00  0.00    +0.000 C 
ATOM     18  H   UNL     1      -2.147  14.384  18.704  0.00  0.00    +0.000 HD
ENDBRANCH   4  12
BRANCH   9  19
ATOM     19  O   UNL     1       2.122   6.651  20.157  0.00  0.00    +0.000 OA
BRANCH  19  20
ATOM     20  C   UNL     1       1.930   5.505  19.325  0.00  0.00    +0.000 C 
BRANCH  20  21
ATOM     21  C   UNL     1       3.000   4.475  19.582  0.00  0.00    +0.000 A 
ATOM     22  C   UNL     1       2.748   3.370  20.411  0.00  0.00    +0.000 A 
ATOM     23 CL   UNL     1       1.244   3.131  21.224  0.00  0.00    +0.000 Cl
ATOM     24  C   UNL     1       3.736   2.402  20.568  0.00  0.00    +0.000 A 
ATOM     25  N   UNL     1       4.951   2.454  19.977  0.00  0.00    +0.000 NA
ATOM     26  C   UNL     1       5.188   3.540  19.206  0.00  0.00    +0.000 A 
ATOM     27  C   UNL     1       4.267   4.560  18.986  0.00  0.00    +0.000 A 
ATOM     28 CL   UNL     1       4.737   5.865  17.958  0.00  0.00    +0.000 Cl
ENDBRANCH  20  21
ENDBRANCH  19  20
ENDBRANCH   9  19
TORSDOF 4
ENDMDL
