MODEL 1
REMARK VINA RESULT:      -8.1      0.000      0.000
REMARK  Name = 
REMARK  8 active torsions:
REMARK  status: ('A' for Active; 'I' for Inactive)
REMARK    1  A    between atoms: C_2  and  C_13
REMARK    2  A    between atoms: N_3  and  C_4
REMARK    3  A    between atoms: C_4  and  C_5
REMARK    4  A    between atoms: C_5  and  O_6
REMARK    5  A    between atoms: O_6  and  C_7
REMARK    6  A    between atoms: N_18  and  C_19
REMARK    7  A    between atoms: C_19  and  C_20
REMARK    8  A    between atoms: C_20  and  C_21
REMARK                            x       y       z     vdW  Elec       q    Type
REMARK                         _______ _______ _______ _____ _____    ______ ____
ROOT
ATOM      1  C   UNL     1       4.198   2.970  19.609  0.00  0.00    +0.000 C 
ATOM      2  C   UNL     1       3.712   2.061  18.494  0.00  0.00    +0.000 C 
ATOM      3  C   UNL     1       2.743   2.752  17.547  0.00  0.00    +0.000 C 
ATOM      4  C   UNL     1       1.855   3.845  18.120  0.00  0.00    +0.000 C 
ATOM      5  O   UNL     1       1.027   4.383  17.382  0.00  0.00    +0.000 OA
ATOM      6  N   UNL     1       2.044   4.218  19.439  0.00  0.00    +0.000 N 
ATOM      7  C   UNL     1       2.955   3.500  20.333  0.00  0.00    +0.000 C 
ENDROOT
BRANCH   1   9
ATOM      8  O   UNL     1       4.921   5.242  19.765  0.00  0.00    +0.000 OA
ATOM      9  C   UNL     1       5.072   4.156  19.210  0.00  0.00    +0.000 C 
ATOM     10  N   UNL     1       6.073   3.920  18.293  0.00  0.00    +0.000 N 
ATOM     11  H   UNL     1       6.210   2.984  17.934  0.00  0.00    +0.000 HD
BRANCH  10  12
ATOM     12  C   UNL     1       6.919   4.964  17.699  0.00  0.00    +0.000 C 
BRANCH  12  13
ATOM     13  C   UNL     1       7.656   4.583  16.415  0.00  0.00    +0.000 C 
BRANCH  13  14
ATOM     14  O   UNL     1       7.366   5.486  15.346  0.00  0.00    +0.000 OA
BRANCH  14  15
ATOM     15  C   UNL     1       6.894   4.843  14.224  0.00  0.00    +0.000 A 
ATOM     16  C   UNL     1       7.710   4.925  13.100  0.00  0.00    +0.000 A 
ATOM     17  C   UNL     1       7.316   4.326  11.899  0.00  0.00    +0.000 A 
ATOM     18  C   UNL     1       6.112   3.628  11.825  0.00  0.00    +0.000 A 
ATOM     19  C   UNL     1       5.300   3.527  12.952  0.00  0.00    +0.000 A 
ATOM     20  C   UNL     1       5.693   4.128  14.148  0.00  0.00    +0.000 A 
ENDBRANCH  14  15
ENDBRANCH  13  14
ENDBRANCH  12  13
ENDBRANCH  10  12
ENDBRANCH   1   9
BRANCH   6  21
ATOM     21  C   UNL     1       1.117   5.184  20.055  0.00  0.00    +0.000 C 
BRANCH  21  22
ATOM     22  C   UNL     1       1.810   6.418  20.650  0.00  0.00    +0.000 C 
BRANCH  22  23
ATOM     23  C   UNL     1       1.630   7.662  19.808  0.00  0.00    +0.000 A 
ATOM     24  C   UNL     1       2.155   7.715  18.517  0.00  0.00    +0.000 A 
ATOM     25  C   UNL     1       2.046   8.900  17.788  0.00  0.00    +0.000 A 
ATOM     26  C   UNL     1       1.428  10.001  18.365  0.00  0.00    +0.000 A 
ATOM     27  C   UNL     1       0.943   9.872  19.653  0.00  0.00    +0.000 A 
ATOM     28  N   UNL     1       1.039   8.739  20.385  0.00  0.00    +0.000 NA
ENDBRANCH  22  23
ENDBRANCH  21  22
ENDBRANCH   6  21
TORSDOF 8
ENDMDL
MODEL 2
REMARK VINA RESULT:      -7.8      2.741      7.160
REMARK  Name = 
REMARK  8 active torsions:
REMARK  status: ('A' for Active; 'I' for Inactive)
REMARK    1  A    between atoms: C_2  and  C_13
REMARK    2  A    between atoms: N_3  and  C_4
REMARK    3  A    between atoms: C_4  and  C_5
REMARK    4  A    between atoms: C_5  and  O_6
REMARK    5  A    between atoms: O_6  and  C_7
REMARK    6  A    between atoms: N_18  and  C_19
REMARK    7  A    between atoms: C_19  and  C_20
REMARK    8  A    between atoms: C_20  and  C_21
REMARK                            x       y       z     vdW  Elec       q    Type
REMARK                         _______ _______ _______ _____ _____    ______ ____
ROOT
ATOM      1  C   UNL     1       1.044   4.013  19.958  0.00  0.00    +0.000 C 
ATOM      2  C   UNL     1       1.207   3.172  21.211  0.00  0.00    +0.000 C 
ATOM      3  C   UNL     1       2.637   2.706  21.430  0.00  0.00    +0.000 C 
ATOM      4  C   UNL     1       3.497   2.464  20.199  0.00  0.00    +0.000 C 
ATOM      5  O   UNL     1       4.643   2.038  20.351  0.00  0.00    +0.000 OA
ATOM      6  N   UNL     1       2.967   2.776  18.959  0.00  0.00    +0.000 N 
ATOM      7  C   UNL     1       1.570   3.180  18.784  0.00  0.00    +0.000 C 
ENDROOT
BRANCH   1   9
ATOM      8  O   UNL     1       1.915   5.985  20.989  0.00  0.00    +0.000 OA
ATOM      9  C   UNL     1       1.736   5.374  19.938  0.00  0.00    +0.000 C 
ATOM     10  N   UNL     1       2.217   5.817  18.725  0.00  0.00    +0.000 N 
ATOM     11  H   UNL     1       2.120   5.233  17.906  0.00  0.00    +0.000 HD
BRANCH  10  12
ATOM     12  C   UNL     1       2.789   7.151  18.496  0.00  0.00    +0.000 C 
BRANCH  12  13
ATOM     13  C   UNL     1       1.790   8.268  18.190  0.00  0.00    +0.000 C 
BRANCH  13  14
ATOM     14  O   UNL     1       1.540   9.087  19.333  0.00  0.00    +0.000 OA
BRANCH  14  15
ATOM     15  C   UNL     1       0.414   9.866  19.190  0.00  0.00    +0.000 A 
ATOM     16  C   UNL     1       0.049  10.602  20.312  0.00  0.00    +0.000 A 
ATOM     17  C   UNL     1      -1.092  11.410  20.283  0.00  0.00    +0.000 A 
ATOM     18  C   UNL     1      -1.861  11.496  19.124  0.00  0.00    +0.000 A 
ATOM     19  C   UNL     1      -1.490  10.777  17.991  0.00  0.00    +0.000 A 
ATOM     20  C   UNL     1      -0.353   9.968  18.023  0.00  0.00    +0.000 A 
ENDBRANCH  14  15
ENDBRANCH  13  14
ENDBRANCH  12  13
ENDBRANCH  10  12
ENDBRANCH   1   9
BRANCH   6  21
ATOM     21  C   UNL     1       3.729   2.436  17.744  0.00  0.00    +0.000 C 
BRANCH  21  22
ATOM     22  C   UNL     1       4.150   3.657  16.914  0.00  0.00    +0.000 C 
BRANCH  22  23
ATOM     23  C   UNL     1       5.385   4.344  17.456  0.00  0.00    +0.000 A 
ATOM     24  C   UNL     1       6.589   4.273  16.757  0.00  0.00    +0.000 A 
ATOM     25  C   UNL     1       7.733   4.844  17.314  0.00  0.00    +0.000 A 
ATOM     26  C   UNL     1       7.651   5.461  18.555  0.00  0.00    +0.000 A 
ATOM     27  C   UNL     1       6.424   5.480  19.190  0.00  0.00    +0.000 A 
ATOM     28  N   UNL     1       5.300   4.930  18.677  0.00  0.00    +0.000 NA
ENDBRANCH  22  23
ENDBRANCH  21  22
ENDBRANCH   6  21
TORSDOF 8
ENDMDL
MODEL 3
REMARK VINA RESULT:      -7.8      0.987      1.540
REMARK  Name = 
REMARK  8 active torsions:
REMARK  status: ('A' for Active; 'I' for Inactive)
REMARK    1  A    between atoms: C_2  and  C_13
REMARK    2  A    between atoms: N_3  and  C_4
REMARK    3  A    between atoms: C_4  and  C_5
REMARK    4  A    between atoms: C_5  and  O_6
REMARK    5  A    between atoms: O_6  and  C_7
REMARK    6  A    between atoms: N_18  and  C_19
REMARK    7  A    between atoms: C_19  and  C_20
REMARK    8  A    between atoms: C_20  and  C_21
REMARK                            x       y       z     vdW  Elec       q    Type
REMARK                         _______ _______ _______ _____ _____    ______ ____
ROOT
ATOM      1  C   UNL     1       4.327   2.511  19.233  0.00  0.00    +0.000 C 
ATOM      2  C   UNL     1       3.570   1.428  18.484  0.00  0.00    +0.000 C 
ATOM      3  C   UNL     1       2.310   1.945  17.808  0.00  0.00    +0.000 C 
ATOM      4  C   UNL     1       1.582   3.106  18.467  0.00  0.00    +0.000 C 
ATOM      5  O   UNL     1       0.532   3.509  17.964  0.00  0.00    +0.000 OA
ATOM      6  N   UNL     1       2.157   3.691  19.582  0.00  0.00    +0.000 N 
ATOM      7  C   UNL     1       3.347   3.138  20.231  0.00  0.00    +0.000 C 
ENDROOT
BRANCH   1   9
ATOM      8  O   UNL     1       4.321   4.125  17.471  0.00  0.00    +0.000 OA
ATOM      9  C   UNL     1       4.954   3.626  18.399  0.00  0.00    +0.000 C 
ATOM     10  N   UNL     1       6.188   4.091  18.797  0.00  0.00    +0.000 N 
ATOM     11  H   UNL     1       6.624   3.704  19.622  0.00  0.00    +0.000 HD
BRANCH  10  12
ATOM     12  C   UNL     1       6.992   5.061  18.042  0.00  0.00    +0.000 C 
BRANCH  12  13
ATOM     13  C   UNL     1       7.532   4.584  16.693  0.00  0.00    +0.000 C 
BRANCH  13  14
ATOM     14  O   UNL     1       7.317   5.549  15.662  0.00  0.00    +0.000 OA
BRANCH  14  15
ATOM     15  C   UNL     1       7.043   4.968  14.444  0.00  0.00    +0.000 A 
ATOM     16  C   UNL     1       5.947   4.112  14.422  0.00  0.00    +0.000 A 
ATOM     17  C   UNL     1       5.593   3.452  13.241  0.00  0.00    +0.000 A 
ATOM     18  C   UNL     1       6.326   3.661  12.074  0.00  0.00    +0.000 A 
ATOM     19  C   UNL     1       7.413   4.531  12.085  0.00  0.00    +0.000 A 
ATOM     20  C   UNL     1       7.767   5.186  13.265  0.00  0.00    +0.000 A 
ENDBRANCH  14  15
ENDBRANCH  13  14
ENDBRANCH  12  13
ENDBRANCH  10  12
ENDBRANCH   1   9
BRANCH   6  21
ATOM     21  C   UNL     1       1.414   4.734  20.312  0.00  0.00    +0.000 C 
BRANCH  21  22
ATOM     22  C   UNL     1       2.283   5.920  20.755  0.00  0.00    +0.000 C 
BRANCH  22  23
ATOM     23  C   UNL     1       2.161   7.118  19.838  0.00  0.00    +0.000 A 
ATOM     24  C   UNL     1       1.430   8.235  20.239  0.00  0.00    +0.000 A 
ATOM     25  C   UNL     1       1.265   9.294  19.347  0.00  0.00    +0.000 A 
ATOM     26  C   UNL     1       1.822   9.210  18.078  0.00  0.00    +0.000 A 
ATOM     27  C   UNL     1       2.523   8.064  17.752  0.00  0.00    +0.000 A 
ATOM     28  N   UNL     1       2.695   7.020  18.594  0.00  0.00    +0.000 NA
ENDBRANCH  22  23
ENDBRANCH  21  22
ENDBRANCH   6  21
TORSDOF 8
ENDMDL
MODEL 4
REMARK VINA RESULT:      -7.7      4.320      6.438
REMARK  Name = 
REMARK  8 active torsions:
REMARK  status: ('A' for Active; 'I' for Inactive)
REMARK    1  A    between atoms: C_2  and  C_13
REMARK    2  A    between atoms: N_3  and  C_4
REMARK    3  A    between atoms: C_4  and  C_5
REMARK    4  A    between atoms: C_5  and  O_6
REMARK    5  A    between atoms: O_6  and  C_7
REMARK    6  A    between atoms: N_18  and  C_19
REMARK    7  A    between atoms: C_19  and  C_20
REMARK    8  A    between atoms: C_20  and  C_21
REMARK                            x       y       z     vdW  Elec       q    Type
REMARK                         _______ _______ _______ _____ _____    ______ ____
ROOT
ATOM      1  C   UNL     1       6.861   4.473  17.959  0.00  0.00    +0.000 C 
ATOM      2  C   UNL     1       7.294   4.420  16.504  0.00  0.00    +0.000 C 
ATOM      3  C   UNL     1       6.729   5.562  15.676  0.00  0.00    +0.000 C 
ATOM      4  C   UNL     1       5.373   6.121  16.076  0.00  0.00    +0.000 C 
ATOM      5  O   UNL     1       4.873   7.013  15.389  0.00  0.00    +0.000 OA
ATOM      6  N   UNL     1       4.775   5.629  17.224  0.00  0.00    +0.000 N 
ATOM      7  C   UNL     1       5.328   4.498  17.972  0.00  0.00    +0.000 C 
ENDROOT
BRANCH   1   9
ATOM      8  O   UNL     1       7.336   5.577  20.023  0.00  0.00    +0.000 OA
ATOM      9  C   UNL     1       7.374   5.641  18.797  0.00  0.00    +0.000 C 
ATOM     10  N   UNL     1       7.953   6.692  18.122  0.00  0.00    +0.000 N 
ATOM     11  H   UNL     1       8.038   6.653  17.115  0.00  0.00    +0.000 HD
BRANCH  10  12
ATOM     12  C   UNL     1       8.380   7.950  18.751  0.00  0.00    +0.000 C 
BRANCH  12  13
ATOM     13  C   UNL     1       8.387   9.185  17.851  0.00  0.00    +0.000 C 
BRANCH  13  14
ATOM     14  O   UNL     1       8.228  10.391  18.599  0.00  0.00    +0.000 OA
BRANCH  14  15
ATOM     15  C   UNL     1       9.432  10.962  18.944  0.00  0.00    +0.000 A 
ATOM     16  C   UNL     1      10.295  11.226  17.885  0.00  0.00    +0.000 A 
ATOM     17  C   UNL     1      11.554  11.784  18.125  0.00  0.00    +0.000 A 
ATOM     18  C   UNL     1      11.946  12.098  19.425  0.00  0.00    +0.000 A 
ATOM     19  C   UNL     1      11.079  11.855  20.487  0.00  0.00    +0.000 A 
ATOM     20  C   UNL     1       9.825  11.293  20.246  0.00  0.00    +0.000 A 
ENDBRANCH  14  15
ENDBRANCH  13  14
ENDBRANCH  12  13
ENDBRANCH  10  12
ENDBRANCH   1   9
BRANCH   6  21
ATOM     21  C   UNL     1       3.408   6.061  17.567  0.00  0.00    +0.000 C 
BRANCH  21  22
ATOM     22  C   UNL     1       3.142   6.141  19.077  0.00  0.00    +0.000 C 
BRANCH  22  23
ATOM     23  C   UNL     1       2.359   4.958  19.603  0.00  0.00    +0.000 A 
ATOM     24  C   UNL     1       2.425   4.620  20.955  0.00  0.00    +0.000 A 
ATOM     25  C   UNL     1       1.760   3.479  21.403  0.00  0.00    +0.000 A 
ATOM     26  C   UNL     1       1.055   2.700  20.495  0.00  0.00    +0.000 A 
ATOM     27  C   UNL     1       1.046   3.096  19.171  0.00  0.00    +0.000 A 
ATOM     28  N   UNL     1       1.687   4.193  18.707  0.00  0.00    +0.000 NA
ENDBRANCH  22  23
ENDBRANCH  21  22
ENDBRANCH   6  21
TORSDOF 8
ENDMDL
MODEL 5
REMARK VINA RESULT:      -7.7      2.154      7.333
REMARK  Name = 
REMARK  8 active torsions:
REMARK  status: ('A' for Active; 'I' for Inactive)
REMARK    1  A    between atoms: C_2  and  C_13
REMARK    2  A    between atoms: N_3  and  C_4
REMARK    3  A    between atoms: C_4  and  C_5
REMARK    4  A    between atoms: C_5  and  O_6
REMARK    5  A    between atoms: O_6  and  C_7
REMARK    6  A    between atoms: N_18  and  C_19
REMARK    7  A    between atoms: C_19  and  C_20
REMARK    8  A    between atoms: C_20  and  C_21
REMARK                            x       y       z     vdW  Elec       q    Type
REMARK                         _______ _______ _______ _____ _____    ______ ____
ROOT
ATOM      1  C   UNL     1       7.420   5.097  18.299  0.00  0.00    +0.000 C 
ATOM      2  C   UNL     1       7.734   6.580  18.207  0.00  0.00    +0.000 C 
ATOM      3  C   UNL     1       6.680   7.362  17.438  0.00  0.00    +0.000 C 
ATOM      4  C   UNL     1       5.940   6.640  16.322  0.00  0.00    +0.000 C 
ATOM      5  O   UNL     1       5.119   7.268  15.653  0.00  0.00    +0.000 OA
ATOM      6  N   UNL     1       6.193   5.292  16.135  0.00  0.00    +0.000 N 
ATOM      7  C   UNL     1       7.246   4.583  16.865  0.00  0.00    +0.000 C 
ENDROOT
BRANCH   1   9
ATOM      8  O   UNL     1       5.659   5.510  19.860  0.00  0.00    +0.000 OA
ATOM      9  C   UNL     1       6.193   4.693  19.113  0.00  0.00    +0.000 C 
ATOM     10  N   UNL     1       5.679   3.434  18.894  0.00  0.00    +0.000 N 
ATOM     11  H   UNL     1       6.107   2.834  18.201  0.00  0.00    +0.000 HD
BRANCH  10  12
ATOM     12  C   UNL     1       4.591   2.834  19.677  0.00  0.00    +0.000 C 
BRANCH  12  13
ATOM     13  C   UNL     1       3.279   2.591  18.930  0.00  0.00    +0.000 C 
BRANCH  13  14
ATOM     14  O   UNL     1       2.178   3.251  19.557  0.00  0.00    +0.000 OA
BRANCH  14  15
ATOM     15  C   UNL     1       2.228   4.619  19.411  0.00  0.00    +0.000 A 
ATOM     16  C   UNL     1       2.535   5.074  18.133  0.00  0.00    +0.000 A 
ATOM     17  C   UNL     1       2.634   6.445  17.879  0.00  0.00    +0.000 A 
ATOM     18  C   UNL     1       2.409   7.366  18.900  0.00  0.00    +0.000 A 
ATOM     19  C   UNL     1       2.083   6.917  20.178  0.00  0.00    +0.000 A 
ATOM     20  C   UNL     1       1.989   5.548  20.430  0.00  0.00    +0.000 A 
ENDBRANCH  14  15
ENDBRANCH  13  14
ENDBRANCH  12  13
ENDBRANCH  10  12
ENDBRANCH   1   9
BRANCH   6  21
ATOM     21  C   UNL     1       5.585   4.598  14.985  0.00  0.00    +0.000 C 
BRANCH  21  22
ATOM     22  C   UNL     1       6.581   4.259  13.867  0.00  0.00    +0.000 C 
BRANCH  22  23
ATOM     23  C   UNL     1       5.944   3.522  12.709  0.00  0.00    +0.000 A 
ATOM     24  C   UNL     1       4.650   3.845  12.302  0.00  0.00    +0.000 A 
ATOM     25  C   UNL     1       4.052   3.099  11.286  0.00  0.00    +0.000 A 
ATOM     26  C   UNL     1       4.753   2.047  10.710  0.00  0.00    +0.000 A 
ATOM     27  C   UNL     1       6.027   1.784  11.177  0.00  0.00    +0.000 A 
ATOM     28  N   UNL     1       6.628   2.486  12.163  0.00  0.00    +0.000 NA
ENDBRANCH  22  23
ENDBRANCH  21  22
ENDBRANCH   6  21
TORSDOF 8
ENDMDL
MODEL 6
REMARK VINA RESULT:      -7.7      2.785      7.469
REMARK  Name = 
REMARK  8 active torsions:
REMARK  status: ('A' for Active; 'I' for Inactive)
REMARK    1  A    between atoms: C_2  and  C_13
REMARK    2  A    between atoms: N_3  and  C_4
REMARK    3  A    between atoms: C_4  and  C_5
REMARK    4  A    between atoms: C_5  and  O_6
REMARK    5  A    between atoms: O_6  and  C_7
REMARK    6  A    between atoms: N_18  and  C_19
REMARK    7  A    between atoms: C_19  and  C_20
REMARK    8  A    between atoms: C_20  and  C_21
REMARK                            x       y       z     vdW  Elec       q    Type
REMARK                         _______ _______ _______ _____ _____    ______ ____
ROOT
ATOM      1  C   UNL     1       1.360   4.075  19.251  0.00  0.00    +0.000 C 
ATOM      2  C   UNL     1       1.387   3.062  20.383  0.00  0.00    +0.000 C 
ATOM      3  C   UNL     1       2.797   2.711  20.830  0.00  0.00    +0.000 C 
ATOM      4  C   UNL     1       3.900   2.758  19.785  0.00  0.00    +0.000 C 
ATOM      5  O   UNL     1       5.041   2.428  20.113  0.00  0.00    +0.000 OA
ATOM      6  N   UNL     1       3.582   3.210  18.516  0.00  0.00    +0.000 N 
ATOM      7  C   UNL     1       2.204   3.498  18.110  0.00  0.00    +0.000 C 
ENDROOT
BRANCH   1   9
ATOM      8  O   UNL     1       2.031   5.826  20.731  0.00  0.00    +0.000 OA
ATOM      9  C   UNL     1       1.860   5.483  19.564  0.00  0.00    +0.000 C 
ATOM     10  N   UNL     1       2.191   6.285  18.494  0.00  0.00    +0.000 N 
ATOM     11  H   UNL     1       2.114   5.919  17.554  0.00  0.00    +0.000 HD
BRANCH  10  12
ATOM     12  C   UNL     1       2.561   7.702  18.601  0.00  0.00    +0.000 C 
BRANCH  12  13
ATOM     13  C   UNL     1       1.403   8.698  18.669  0.00  0.00    +0.000 C 
BRANCH  13  14
ATOM     14  O   UNL     1       1.719   9.830  19.481  0.00  0.00    +0.000 OA
BRANCH  14  15
ATOM     15  C   UNL     1       0.931   9.911  20.606  0.00  0.00    +0.000 A 
ATOM     16  C   UNL     1       0.078  11.008  20.662  0.00  0.00    +0.000 A 
ATOM     17  C   UNL     1      -0.751  11.200  21.771  0.00  0.00    +0.000 A 
ATOM     18  C   UNL     1      -0.742  10.284  22.821  0.00  0.00    +0.000 A 
ATOM     19  C   UNL     1       0.096   9.173  22.763  0.00  0.00    +0.000 A 
ATOM     20  C   UNL     1       0.926   8.985  21.656  0.00  0.00    +0.000 A 
ENDBRANCH  14  15
ENDBRANCH  13  14
ENDBRANCH  12  13
ENDBRANCH  10  12
ENDBRANCH   1   9
BRANCH   6  21
ATOM     21  C   UNL     1       4.600   3.148  17.452  0.00  0.00    +0.000 C 
BRANCH  21  22
ATOM     22  C   UNL     1       4.820   4.483  16.725  0.00  0.00    +0.000 C 
BRANCH  22  23
ATOM     23  C   UNL     1       5.886   5.340  17.371  0.00  0.00    +0.000 A 
ATOM     24  C   UNL     1       6.099   6.645  16.928  0.00  0.00    +0.000 A 
ATOM     25  C   UNL     1       7.140   7.389  17.483  0.00  0.00    +0.000 A 
ATOM     26  C   UNL     1       7.946   6.814  18.457  0.00  0.00    +0.000 A 
ATOM     27  C   UNL     1       7.676   5.512  18.835  0.00  0.00    +0.000 A 
ATOM     28  N   UNL     1       6.679   4.765  18.310  0.00  0.00    +0.000 NA
ENDBRANCH  22  23
ENDBRANCH  21  22
ENDBRANCH   6  21
TORSDOF 8
ENDMDL
MODEL 7
REMARK VINA RESULT:      -7.5      4.561      6.892
REMARK  Name = 
REMARK  8 active torsions:
REMARK  status: ('A' for Active; 'I' for Inactive)
REMARK    1  A    between atoms: C_2  and  C_13
REMARK    2  A    between atoms: N_3  and  C_4
REMARK    3  A    between atoms: C_4  and  C_5
REMARK    4  A    between atoms: C_5  and  O_6
REMARK    5  A    between atoms: O_6  and  C_7
REMARK    6  A    between atoms: N_18  and  C_19
REMARK    7  A    between atoms: C_19  and  C_20
REMARK    8  A    between atoms: C_20  and  C_21
REMARK                            x       y       z     vdW  Elec       q    Type
REMARK                         _______ _______ _______ _____ _____    ______ ____
ROOT
ATOM      1  C   UNL     1       5.202   6.425  15.985  0.00  0.00    +0.000 C 
ATOM      2  C   UNL     1       4.090   7.272  16.579  0.00  0.00    +0.000 C 
ATOM      3  C   UNL     1       3.889   7.029  18.066  0.00  0.00    +0.000 C 
ATOM      4  C   UNL     1       4.196   5.639  18.602  0.00  0.00    +0.000 C 
ATOM      5  O   UNL     1       3.993   5.406  19.794  0.00  0.00    +0.000 OA
ATOM      6  N   UNL     1       4.732   4.706  17.731  0.00  0.00    +0.000 N 
ATOM      7  C   UNL     1       4.869   4.962  16.296  0.00  0.00    +0.000 C 
ENDROOT
BRANCH   1   9
ATOM      8  O   UNL     1       7.548   5.987  16.097  0.00  0.00    +0.000 OA
ATOM      9  C   UNL     1       6.625   6.712  16.459  0.00  0.00    +0.000 C 
ATOM     10  N   UNL     1       6.819   7.851  17.210  0.00  0.00    +0.000 N 
ATOM     11  H   UNL     1       6.037   8.460  17.404  0.00  0.00    +0.000 HD
BRANCH  10  12
ATOM     12  C   UNL     1       8.089   8.212  17.857  0.00  0.00    +0.000 C 
BRANCH  12  13
ATOM     13  C   UNL     1       8.376   9.708  17.986  0.00  0.00    +0.000 C 
BRANCH  13  14
ATOM     14  O   UNL     1       8.935  10.035  19.260  0.00  0.00    +0.000 OA
BRANCH  14  15
ATOM     15  C   UNL     1       9.959  10.950  19.168  0.00  0.00    +0.000 A 
ATOM     16  C   UNL     1      10.327  11.310  17.876  0.00  0.00    +0.000 A 
ATOM     17  C   UNL     1      11.372  12.216  17.668  0.00  0.00    +0.000 A 
ATOM     18  C   UNL     1      12.038  12.779  18.754  0.00  0.00    +0.000 A 
ATOM     19  C   UNL     1      11.662  12.438  20.050  0.00  0.00    +0.000 A 
ATOM     20  C   UNL     1      10.622  11.530  20.256  0.00  0.00    +0.000 A 
ENDBRANCH  14  15
ENDBRANCH  13  14
ENDBRANCH  12  13
ENDBRANCH  10  12
ENDBRANCH   1   9
BRANCH   6  21
ATOM     21  C   UNL     1       4.922   3.318  18.190  0.00  0.00    +0.000 C 
BRANCH  21  22
ATOM     22  C   UNL     1       3.663   2.447  18.070  0.00  0.00    +0.000 C 
BRANCH  22  23
ATOM     23  C   UNL     1       2.755   2.551  19.276  0.00  0.00    +0.000 A 
ATOM     24  C   UNL     1       1.434   2.970  19.123  0.00  0.00    +0.000 A 
ATOM     25  C   UNL     1       0.638   3.135  20.257  0.00  0.00    +0.000 A 
ATOM     26  C   UNL     1       1.180   2.889  21.512  0.00  0.00    +0.000 A 
ATOM     27  C   UNL     1       2.500   2.487  21.580  0.00  0.00    +0.000 A 
ATOM     28  N   UNL     1       3.296   2.324  20.499  0.00  0.00    +0.000 NA
ENDBRANCH  22  23
ENDBRANCH  21  22
ENDBRANCH   6  21
TORSDOF 8
ENDMDL
MODEL 8
REMARK VINA RESULT:      -7.5      2.918      7.822
REMARK  Name = 
REMARK  8 active torsions:
REMARK  status: ('A' for Active; 'I' for Inactive)
REMARK    1  A    between atoms: C_2  and  C_13
REMARK    2  A    between atoms: N_3  and  C_4
REMARK    3  A    between atoms: C_4  and  C_5
REMARK    4  A    between atoms: C_5  and  O_6
REMARK    5  A    between atoms: O_6  and  C_7
REMARK    6  A    between atoms: N_18  and  C_19
REMARK    7  A    between atoms: C_19  and  C_20
REMARK    8  A    between atoms: C_20  and  C_21
REMARK                            x       y       z     vdW  Elec       q    Type
REMARK                         _______ _______ _______ _____ _____    ______ ____
ROOT
ATOM      1  C   UNL     1       1.311   3.969  19.270  0.00  0.00    +0.000 C 
ATOM      2  C   UNL     1       1.331   2.770  20.202  0.00  0.00    +0.000 C 
ATOM      3  C   UNL     1       2.738   2.360  20.609  0.00  0.00    +0.000 C 
ATOM      4  C   UNL     1       3.861   2.607  19.614  0.00  0.00    +0.000 C 
ATOM      5  O   UNL     1       5.000   2.237  19.903  0.00  0.00    +0.000 OA
ATOM      6  N   UNL     1       3.560   3.277  18.441  0.00  0.00    +0.000 N 
ATOM      7  C   UNL     1       2.187   3.617  18.063  0.00  0.00    +0.000 C 
ENDROOT
BRANCH   1   9
ATOM      8  O   UNL     1       1.996   5.412  21.047  0.00  0.00    +0.000 OA
ATOM      9  C   UNL     1       1.783   5.304  19.842  0.00  0.00    +0.000 C 
ATOM     10  N   UNL     1       2.042   6.316  18.944  0.00  0.00    +0.000 N 
ATOM     11  H   UNL     1       1.935   6.144  17.954  0.00  0.00    +0.000 HD
BRANCH  10  12
ATOM     12  C   UNL     1       2.376   7.696  19.322  0.00  0.00    +0.000 C 
BRANCH  12  13
ATOM     13  C   UNL     1       1.242   8.519  19.934  0.00  0.00    +0.000 C 
BRANCH  13  14
ATOM     14  O   UNL     1       1.539   8.926  21.271  0.00  0.00    +0.000 OA
BRANCH  14  15
ATOM     15  C   UNL     1       0.636   9.843  21.758  0.00  0.00    +0.000 A 
ATOM     16  C   UNL     1       0.681  11.101  21.165  0.00  0.00    +0.000 A 
ATOM     17  C   UNL     1      -0.178  12.115  21.599  0.00  0.00    +0.000 A 
ATOM     18  C   UNL     1      -1.097  11.868  22.616  0.00  0.00    +0.000 A 
ATOM     19  C   UNL     1      -1.161  10.606  23.201  0.00  0.00    +0.000 A 
ATOM     20  C   UNL     1      -0.300   9.596  22.769  0.00  0.00    +0.000 A 
ENDBRANCH  14  15
ENDBRANCH  13  14
ENDBRANCH  12  13
ENDBRANCH  10  12
ENDBRANCH   1   9
BRANCH   6  21
ATOM     21  C   UNL     1       4.600   3.420  17.405  0.00  0.00    +0.000 C 
BRANCH  21  22
ATOM     22  C   UNL     1       4.742   4.848  16.861  0.00  0.00    +0.000 C 
BRANCH  22  23
ATOM     23  C   UNL     1       5.952   5.573  17.411  0.00  0.00    +0.000 A 
ATOM     24  C   UNL     1       6.550   5.138  18.593  0.00  0.00    +0.000 A 
ATOM     25  C   UNL     1       7.614   5.869  19.123  0.00  0.00    +0.000 A 
ATOM     26  C   UNL     1       8.048   7.015  18.470  0.00  0.00    +0.000 A 
ATOM     27  C   UNL     1       7.395   7.385  17.309  0.00  0.00    +0.000 A 
ATOM     28  N   UNL     1       6.359   6.700  16.776  0.00  0.00    +0.000 NA
ENDBRANCH  22  23
ENDBRANCH  21  22
ENDBRANCH   6  21
TORSDOF 8
ENDMDL
MODEL 9
REMARK VINA RESULT:      -7.4      2.874      8.156
REMARK  Name = 
REMARK  8 active torsions:
REMARK  status: ('A' for Active; 'I' for Inactive)
REMARK    1  A    between atoms: C_2  and  C_13
REMARK    2  A    between atoms: N_3  and  C_4
REMARK    3  A    between atoms: C_4  and  C_5
REMARK    4  A    between atoms: C_5  and  O_6
REMARK    5  A    between atoms: O_6  and  C_7
REMARK    6  A    between atoms: N_18  and  C_19
REMARK    7  A    between atoms: C_19  and  C_20
REMARK    8  A    between atoms: C_20  and  C_21
REMARK                            x       y       z     vdW  Elec       q    Type
REMARK                         _______ _______ _______ _____ _____    ______ ____
ROOT
ATOM      1  C   UNL     1       1.185   4.020  19.716  0.00  0.00    +0.000 C 
ATOM      2  C   UNL     1       1.322   3.168  20.966  0.00  0.00    +0.000 C 
ATOM      3  C   UNL     1       2.765   2.817  21.289  0.00  0.00    +0.000 C 
ATOM      4  C   UNL     1       3.734   2.675  20.125  0.00  0.00    +0.000 C 
ATOM      5  O   UNL     1       4.897   2.342  20.360  0.00  0.00    +0.000 OA
ATOM      6  N   UNL     1       3.276   2.968  18.853  0.00  0.00    +0.000 N 
ATOM      7  C   UNL     1       1.868   3.259  18.575  0.00  0.00    +0.000 C 
ENDROOT
BRANCH   1   9
ATOM      8  O   UNL     1       2.405   5.869  18.821  0.00  0.00    +0.000 OA
ATOM      9  C   UNL     1       1.759   5.434  19.771  0.00  0.00    +0.000 C 
ATOM     10  N   UNL     1       1.436   6.201  20.869  0.00  0.00    +0.000 N 
ATOM     11  H   UNL     1       0.827   5.822  21.581  0.00  0.00    +0.000 HD
BRANCH  10  12
ATOM     12  C   UNL     1       2.002   7.527  21.150  0.00  0.00    +0.000 C 
BRANCH  12  13
ATOM     13  C   UNL     1       1.138   8.725  20.755  0.00  0.00    +0.000 C 
BRANCH  13  14
ATOM     14  O   UNL     1      -0.045   8.815  21.551  0.00  0.00    +0.000 OA
BRANCH  14  15
ATOM     15  C   UNL     1      -0.537  10.099  21.622  0.00  0.00    +0.000 A 
ATOM     16  C   UNL     1      -0.861  10.545  22.900  0.00  0.00    +0.000 A 
ATOM     17  C   UNL     1      -1.390  11.826  23.085  0.00  0.00    +0.000 A 
ATOM     18  C   UNL     1      -1.581  12.670  21.993  0.00  0.00    +0.000 A 
ATOM     19  C   UNL     1      -1.242  12.237  20.714  0.00  0.00    +0.000 A 
ATOM     20  C   UNL     1      -0.717  10.956  20.531  0.00  0.00    +0.000 A 
ENDBRANCH  14  15
ENDBRANCH  13  14
ENDBRANCH  12  13
ENDBRANCH  10  12
ENDBRANCH   1   9
BRANCH   6  21
ATOM     21  C   UNL     1       4.155   2.719  17.695  0.00  0.00    +0.000 C 
BRANCH  21  22
ATOM     22  C   UNL     1       4.352   3.944  16.791  0.00  0.00    +0.000 C 
BRANCH  22  23
ATOM     23  C   UNL     1       5.446   4.870  17.277  0.00  0.00    +0.000 A 
ATOM     24  C   UNL     1       5.468   6.203  16.869  0.00  0.00    +0.000 A 
ATOM     25  C   UNL     1       6.529   7.016  17.265  0.00  0.00    +0.000 A 
ATOM     26  C   UNL     1       7.544   6.481  18.048  0.00  0.00    +0.000 A 
ATOM     27  C   UNL     1       7.454   5.148  18.402  0.00  0.00    +0.000 A 
ATOM     28  N   UNL     1       6.441   4.335  18.028  0.00  0.00    +0.000 NA
ENDBRANCH  22  23
ENDBRANCH  21  22
ENDBRANCH   6  21
TORSDOF 8
ENDMDL
