MODEL 1
REMARK VINA RESULT:      -7.4      0.000      0.000
REMARK  Name = 
REMARK  9 active torsions:
REMARK  status: ('A' for Active; 'I' for Inactive)
REMARK    1  A    between atoms: C_1  and  N_2
REMARK    2  A    between atoms: C_6  and  C_7
REMARK    3  A    between atoms: C_7  and  O_9
REMARK    4  A    between atoms: O_9  and  C_10
REMARK    5  A    between atoms: C_10  and  C_11
REMARK    6  A    between atoms: N_13  and  C_14
REMARK    7  A    between atoms: C_14  and  C_15
REMARK    8  A    between atoms: C_15  and  C_16
REMARK    9  A    between atoms: C_16  and  C_17
REMARK                            x       y       z     vdW  Elec       q    Type
REMARK                         _______ _______ _______ _____ _____    ______ ____
ROOT
ATOM      1  C   UNL     1       6.587   5.600  17.039  0.00  0.00    +0.000 C 
ATOM      2  O   UNL     1       7.588   4.910  16.865  0.00  0.00    +0.000 OA
ATOM      3  N   UNL     1       6.633   6.972  17.193  0.00  0.00    +0.000 N 
ATOM      4  H   UNL     1       5.767   7.494  17.214  0.00  0.00    +0.000 HD
ENDROOT
BRANCH   1   5
ATOM      5  C   UNL     1       5.178   5.008  17.130  0.00  0.00    +0.000 C 
BRANCH   5   6
ATOM      6  O   UNL     1       4.555   5.259  18.385  0.00  0.00    +0.000 OA
BRANCH   6   7
ATOM      7  C   UNL     1       4.468   4.171  19.202  0.00  0.00    +0.000 C 
ATOM      8  O   UNL     1       5.420   3.474  19.526  0.00  0.00    +0.000 OA
BRANCH   7  14
ATOM      9  C   UNL     1       2.478   2.304  17.776  0.00  0.00    +0.000 C 
ATOM     10  N   UNL     1       2.196   3.111  18.945  0.00  0.00    +0.000 N 
ATOM     11  C   UNL     1       0.976   3.145  19.574  0.00  0.00    +0.000 A 
ATOM     12  C   UNL     1       1.062   4.018  20.632  0.00  0.00    +0.000 A 
ATOM     13  C   UNL     1       2.379   4.527  20.638  0.00  0.00    +0.000 A 
ATOM     14  C   UNL     1       3.085   3.957  19.583  0.00  0.00    +0.000 A 
ENDBRANCH   7  14
ENDBRANCH   6   7
ENDBRANCH   5   6
ENDBRANCH   1   5
BRANCH   3  15
ATOM     15  C   UNL     1       7.875   7.711  17.065  0.00  0.00    +0.000 C 
BRANCH  15  16
ATOM     16  C   UNL     1       8.211   8.538  18.306  0.00  0.00    +0.000 C 
BRANCH  16  17
ATOM     17  C   UNL     1       8.214  10.042  18.020  0.00  0.00    +0.000 C 
BRANCH  17  18
ATOM     18  C   UNL     1       9.388  10.744  18.659  0.00  0.00    +0.000 A 
ATOM     19  C   UNL     1      10.470  11.164  17.874  0.00  0.00    +0.000 A 
ATOM     20  C   UNL     1      11.561  11.810  18.461  0.00  0.00    +0.000 A 
ATOM     21  C   UNL     1      11.583  12.035  19.836  0.00  0.00    +0.000 A 
ATOM     22  C   UNL     1      10.515  11.615  20.627  0.00  0.00    +0.000 A 
ATOM     23  C   UNL     1       9.423  10.969  20.041  0.00  0.00    +0.000 A 
ENDBRANCH  17  18
ENDBRANCH  16  17
ENDBRANCH  15  16
ENDBRANCH   3  15
TORSDOF 8
ENDMDL
MODEL 2
REMARK VINA RESULT:      -7.3      1.181      1.363
REMARK  Name = 
REMARK  9 active torsions:
REMARK  status: ('A' for Active; 'I' for Inactive)
REMARK    1  A    between atoms: C_1  and  N_2
REMARK    2  A    between atoms: C_6  and  C_7
REMARK    3  A    between atoms: C_7  and  O_9
REMARK    4  A    between atoms: O_9  and  C_10
REMARK    5  A    between atoms: C_10  and  C_11
REMARK    6  A    between atoms: N_13  and  C_14
REMARK    7  A    between atoms: C_14  and  C_15
REMARK    8  A    between atoms: C_15  and  C_16
REMARK    9  A    between atoms: C_16  and  C_17
REMARK                            x       y       z     vdW  Elec       q    Type
REMARK                         _______ _______ _______ _____ _____    ______ ____
ROOT
ATOM      1  C   UNL     1       6.996   5.853  17.058  0.00  0.00    +0.000 C 
ATOM      2  O   UNL     1       7.478   5.825  15.929  0.00  0.00    +0.000 OA
ATOM      3  N   UNL     1       6.923   7.004  17.820  0.00  0.00    +0.000 N 
ATOM      4  H   UNL     1       6.409   6.986  18.691  0.00  0.00    +0.000 HD
ENDROOT
BRANCH   1   5
ATOM      5  C   UNL     1       6.446   4.606  17.756  0.00  0.00    +0.000 C 
BRANCH   5   6
ATOM      6  O   UNL     1       5.056   4.411  17.520  0.00  0.00    +0.000 OA
BRANCH   6   7
ATOM      7  C   UNL     1       4.250   4.772  18.560  0.00  0.00    +0.000 C 
ATOM      8  O   UNL     1       4.467   5.718  19.305  0.00  0.00    +0.000 OA
BRANCH   7  14
ATOM      9  C   UNL     1       4.317   2.020  19.939  0.00  0.00    +0.000 C 
ATOM     10  N   UNL     1       3.169   2.614  19.286  0.00  0.00    +0.000 N 
ATOM     11  C   UNL     1       1.942   2.006  19.197  0.00  0.00    +0.000 A 
ATOM     12  C   UNL     1       1.097   2.843  18.508  0.00  0.00    +0.000 A 
ATOM     13  C   UNL     1       1.843   3.992  18.169  0.00  0.00    +0.000 A 
ATOM     14  C   UNL     1       3.138   3.846  18.658  0.00  0.00    +0.000 A 
ENDBRANCH   7  14
ENDBRANCH   6   7
ENDBRANCH   5   6
ENDBRANCH   1   5
BRANCH   3  15
ATOM     15  C   UNL     1       7.331   8.292  17.293  0.00  0.00    +0.000 C 
BRANCH  15  16
ATOM     16  C   UNL     1       8.413   8.969  18.136  0.00  0.00    +0.000 C 
BRANCH  16  17
ATOM     17  C   UNL     1       8.583  10.449  17.787  0.00  0.00    +0.000 C 
BRANCH  17  18
ATOM     18  C   UNL     1       9.712  11.093  18.553  0.00  0.00    +0.000 A 
ATOM     19  C   UNL     1      10.803  11.646  17.869  0.00  0.00    +0.000 A 
ATOM     20  C   UNL     1      11.854  12.238  18.574  0.00  0.00    +0.000 A 
ATOM     21  C   UNL     1      11.826  12.277  19.967  0.00  0.00    +0.000 A 
ATOM     22  C   UNL     1      10.749  11.724  20.657  0.00  0.00    +0.000 A 
ATOM     23  C   UNL     1       9.697  11.131  19.954  0.00  0.00    +0.000 A 
ENDBRANCH  17  18
ENDBRANCH  16  17
ENDBRANCH  15  16
ENDBRANCH   3  15
TORSDOF 8
ENDMDL
MODEL 3
REMARK VINA RESULT:      -7.2      1.196      1.456
REMARK  Name = 
REMARK  9 active torsions:
REMARK  status: ('A' for Active; 'I' for Inactive)
REMARK    1  A    between atoms: C_1  and  N_2
REMARK    2  A    between atoms: C_6  and  C_7
REMARK    3  A    between atoms: C_7  and  O_9
REMARK    4  A    between atoms: O_9  and  C_10
REMARK    5  A    between atoms: C_10  and  C_11
REMARK    6  A    between atoms: N_13  and  C_14
REMARK    7  A    between atoms: C_14  and  C_15
REMARK    8  A    between atoms: C_15  and  C_16
REMARK    9  A    between atoms: C_16  and  C_17
REMARK                            x       y       z     vdW  Elec       q    Type
REMARK                         _______ _______ _______ _____ _____    ______ ____
ROOT
ATOM      1  C   UNL     1       5.688   6.269  17.078  0.00  0.00    +0.000 C 
ATOM      2  O   UNL     1       5.441   6.630  15.930  0.00  0.00    +0.000 OA
ATOM      3  N   UNL     1       6.784   6.716  17.790  0.00  0.00    +0.000 N 
ATOM      4  H   UNL     1       6.867   6.475  18.769  0.00  0.00    +0.000 HD
ENDROOT
BRANCH   1   5
ATOM      5  C   UNL     1       4.818   5.263  17.836  0.00  0.00    +0.000 C 
BRANCH   5   6
ATOM      6  O   UNL     1       4.460   5.714  19.138  0.00  0.00    +0.000 OA
BRANCH   6   7
ATOM      7  C   UNL     1       3.147   6.056  19.275  0.00  0.00    +0.000 C 
ATOM      8  O   UNL     1       2.691   7.164  19.024  0.00  0.00    +0.000 OA
BRANCH   7  14
ATOM      9  C   UNL     1       1.448   4.106  17.604  0.00  0.00    +0.000 C 
ATOM     10  N   UNL     1       1.646   4.045  19.038  0.00  0.00    +0.000 N 
ATOM     11  C   UNL     1       1.085   3.088  19.846  0.00  0.00    +0.000 A 
ATOM     12  C   UNL     1       1.473   3.337  21.140  0.00  0.00    +0.000 A 
ATOM     13  C   UNL     1       2.295   4.485  21.109  0.00  0.00    +0.000 A 
ATOM     14  C   UNL     1       2.401   4.924  19.793  0.00  0.00    +0.000 A 
ENDBRANCH   7  14
ENDBRANCH   6   7
ENDBRANCH   5   6
ENDBRANCH   1   5
BRANCH   3  15
ATOM     15  C   UNL     1       7.678   7.726  17.257  0.00  0.00    +0.000 C 
BRANCH  15  16
ATOM     16  C   UNL     1       8.392   8.529  18.345  0.00  0.00    +0.000 C 
BRANCH  16  17
ATOM     17  C   UNL     1       8.297  10.039  18.111  0.00  0.00    +0.000 C 
BRANCH  17  18
ATOM     18  C   UNL     1       9.473  10.784  18.695  0.00  0.00    +0.000 A 
ATOM     19  C   UNL     1      10.502  11.241  17.861  0.00  0.00    +0.000 A 
ATOM     20  C   UNL     1      11.595  11.927  18.397  0.00  0.00    +0.000 A 
ATOM     21  C   UNL     1      11.672  12.155  19.769  0.00  0.00    +0.000 A 
ATOM     22  C   UNL     1      10.657  11.699  20.608  0.00  0.00    +0.000 A 
ATOM     23  C   UNL     1       9.563  11.012  20.074  0.00  0.00    +0.000 A 
ENDBRANCH  17  18
ENDBRANCH  16  17
ENDBRANCH  15  16
ENDBRANCH   3  15
TORSDOF 8
ENDMDL
MODEL 4
REMARK VINA RESULT:      -7.2      1.000      1.292
REMARK  Name = 
REMARK  9 active torsions:
REMARK  status: ('A' for Active; 'I' for Inactive)
REMARK    1  A    between atoms: C_1  and  N_2
REMARK    2  A    between atoms: C_6  and  C_7
REMARK    3  A    between atoms: C_7  and  O_9
REMARK    4  A    between atoms: O_9  and  C_10
REMARK    5  A    between atoms: C_10  and  C_11
REMARK    6  A    between atoms: N_13  and  C_14
REMARK    7  A    between atoms: C_14  and  C_15
REMARK    8  A    between atoms: C_15  and  C_16
REMARK    9  A    between atoms: C_16  and  C_17
REMARK                            x       y       z     vdW  Elec       q    Type
REMARK                         _______ _______ _______ _____ _____    ______ ____
ROOT
ATOM      1  C   UNL     1       6.861   5.571  18.806  0.00  0.00    +0.000 C 
ATOM      2  O   UNL     1       7.975   5.283  19.235  0.00  0.00    +0.000 OA
ATOM      3  N   UNL     1       6.635   6.623  17.939  0.00  0.00    +0.000 N 
ATOM      4  H   UNL     1       5.717   6.735  17.530  0.00  0.00    +0.000 HD
ENDROOT
BRANCH   1   5
ATOM      5  C   UNL     1       5.595   4.810  19.208  0.00  0.00    +0.000 C 
BRANCH   5   6
ATOM      6  O   UNL     1       4.739   4.543  18.102  0.00  0.00    +0.000 OA
BRANCH   6   7
ATOM      7  C   UNL     1       3.561   5.229  18.121  0.00  0.00    +0.000 C 
ATOM      8  O   UNL     1       3.371   6.291  17.542  0.00  0.00    +0.000 OA
BRANCH   7  14
ATOM      9  C   UNL     1       2.496   2.383  17.629  0.00  0.00    +0.000 C 
ATOM     10  N   UNL     1       2.133   3.245  18.735  0.00  0.00    +0.000 N 
ATOM     11  C   UNL     1       1.245   2.891  19.720  0.00  0.00    +0.000 A 
ATOM     12  C   UNL     1       1.131   3.945  20.593  0.00  0.00    +0.000 A 
ATOM     13  C   UNL     1       1.977   4.969  20.116  0.00  0.00    +0.000 A 
ATOM     14  C   UNL     1       2.602   4.528  18.954  0.00  0.00    +0.000 A 
ENDBRANCH   7  14
ENDBRANCH   6   7
ENDBRANCH   5   6
ENDBRANCH   1   5
BRANCH   3  15
ATOM     15  C   UNL     1       7.727   7.410  17.396  0.00  0.00    +0.000 C 
BRANCH  15  16
ATOM     16  C   UNL     1       8.310   8.400  18.405  0.00  0.00    +0.000 C 
BRANCH  16  17
ATOM     17  C   UNL     1       8.383   9.824  17.848  0.00  0.00    +0.000 C 
BRANCH  17  18
ATOM     18  C   UNL     1       9.405  10.669  18.568  0.00  0.00    +0.000 A 
ATOM     19  C   UNL     1      10.385  11.360  17.844  0.00  0.00    +0.000 A 
ATOM     20  C   UNL     1      11.337  12.139  18.506  0.00  0.00    +0.000 A 
ATOM     21  C   UNL     1      11.320  12.231  19.896  0.00  0.00    +0.000 A 
ATOM     22  C   UNL     1      10.353  11.543  20.627  0.00  0.00    +0.000 A 
ATOM     23  C   UNL     1       9.401  10.762  19.966  0.00  0.00    +0.000 A 
ENDBRANCH  17  18
ENDBRANCH  16  17
ENDBRANCH  15  16
ENDBRANCH   3  15
TORSDOF 8
ENDMDL
MODEL 5
REMARK VINA RESULT:      -7.2      1.065      1.953
REMARK  Name = 
REMARK  9 active torsions:
REMARK  status: ('A' for Active; 'I' for Inactive)
REMARK    1  A    between atoms: C_1  and  N_2
REMARK    2  A    between atoms: C_6  and  C_7
REMARK    3  A    between atoms: C_7  and  O_9
REMARK    4  A    between atoms: O_9  and  C_10
REMARK    5  A    between atoms: C_10  and  C_11
REMARK    6  A    between atoms: N_13  and  C_14
REMARK    7  A    between atoms: C_14  and  C_15
REMARK    8  A    between atoms: C_15  and  C_16
REMARK    9  A    between atoms: C_16  and  C_17
REMARK                            x       y       z     vdW  Elec       q    Type
REMARK                         _______ _______ _______ _____ _____    ______ ____
ROOT
ATOM      1  C   UNL     1       6.591   6.654  16.894  0.00  0.00    +0.000 C 
ATOM      2  O   UNL     1       7.413   6.069  16.193  0.00  0.00    +0.000 OA
ATOM      3  N   UNL     1       6.909   7.748  17.677  0.00  0.00    +0.000 N 
ATOM      4  H   UNL     1       6.165   8.255  18.137  0.00  0.00    +0.000 HD
ENDROOT
BRANCH   1   5
ATOM      5  C   UNL     1       5.128   6.216  16.997  0.00  0.00    +0.000 C 
BRANCH   5   6
ATOM      6  O   UNL     1       4.971   4.801  16.956  0.00  0.00    +0.000 OA
BRANCH   6   7
ATOM      7  C   UNL     1       4.878   4.208  18.180  0.00  0.00    +0.000 C 
ATOM      8  O   UNL     1       5.813   4.084  18.960  0.00  0.00    +0.000 OA
BRANCH   7  14
ATOM      9  C   UNL     1       2.692   5.630  19.817  0.00  0.00    +0.000 C 
ATOM     10  N   UNL     1       2.543   4.372  19.115  0.00  0.00    +0.000 N 
ATOM     11  C   UNL     1       1.382   3.641  19.095  0.00  0.00    +0.000 A 
ATOM     12  C   UNL     1       1.600   2.508  18.349  0.00  0.00    +0.000 A 
ATOM     13  C   UNL     1       2.939   2.559  17.906  0.00  0.00    +0.000 A 
ATOM     14  C   UNL     1       3.526   3.726  18.386  0.00  0.00    +0.000 A 
ENDBRANCH   7  14
ENDBRANCH   6   7
ENDBRANCH   5   6
ENDBRANCH   1   5
BRANCH   3  15
ATOM     15  C   UNL     1       8.231   8.344  17.650  0.00  0.00    +0.000 C 
BRANCH  15  16
ATOM     16  C   UNL     1       8.237   9.806  18.097  0.00  0.00    +0.000 C 
BRANCH  16  17
ATOM     17  C   UNL     1       9.142  10.041  19.309  0.00  0.00    +0.000 C 
BRANCH  17  18
ATOM     18  C   UNL     1      10.186  11.099  19.049  0.00  0.00    +0.000 A 
ATOM     19  C   UNL     1      10.860  11.703  20.117  0.00  0.00    +0.000 A 
ATOM     20  C   UNL     1      11.824  12.687  19.882  0.00  0.00    +0.000 A 
ATOM     21  C   UNL     1      12.117  13.079  18.578  0.00  0.00    +0.000 A 
ATOM     22  C   UNL     1      11.447  12.489  17.507  0.00  0.00    +0.000 A 
ATOM     23  C   UNL     1      10.483  11.505  17.741  0.00  0.00    +0.000 A 
ENDBRANCH  17  18
ENDBRANCH  16  17
ENDBRANCH  15  16
ENDBRANCH   3  15
TORSDOF 8
ENDMDL
MODEL 6
REMARK VINA RESULT:      -7.0      1.316      1.773
REMARK  Name = 
REMARK  9 active torsions:
REMARK  status: ('A' for Active; 'I' for Inactive)
REMARK    1  A    between atoms: C_1  and  N_2
REMARK    2  A    between atoms: C_6  and  C_7
REMARK    3  A    between atoms: C_7  and  O_9
REMARK    4  A    between atoms: O_9  and  C_10
REMARK    5  A    between atoms: C_10  and  C_11
REMARK    6  A    between atoms: N_13  and  C_14
REMARK    7  A    between atoms: C_14  and  C_15
REMARK    8  A    between atoms: C_15  and  C_16
REMARK    9  A    between atoms: C_16  and  C_17
REMARK                            x       y       z     vdW  Elec       q    Type
REMARK                         _______ _______ _______ _____ _____    ______ ____
ROOT
ATOM      1  C   UNL     1       7.222   6.230  17.498  0.00  0.00    +0.000 C 
ATOM      2  O   UNL     1       7.341   6.157  16.278  0.00  0.00    +0.000 OA
ATOM      3  N   UNL     1       7.672   7.308  18.236  0.00  0.00    +0.000 N 
ATOM      4  H   UNL     1       7.440   7.362  19.219  0.00  0.00    +0.000 HD
ENDROOT
BRANCH   1   5
ATOM      5  C   UNL     1       6.586   5.120  18.337  0.00  0.00    +0.000 C 
BRANCH   5   6
ATOM      6  O   UNL     1       5.286   5.461  18.808  0.00  0.00    +0.000 OA
BRANCH   6   7
ATOM      7  C   UNL     1       4.276   4.727  18.259  0.00  0.00    +0.000 C 
ATOM      8  O   UNL     1       4.207   4.424  17.075  0.00  0.00    +0.000 OA
BRANCH   7  14
ATOM      9  C   UNL     1       4.320   2.233  20.063  0.00  0.00    +0.000 C 
ATOM     10  N   UNL     1       3.326   3.286  20.096  0.00  0.00    +0.000 N 
ATOM     11  C   UNL     1       2.255   3.300  20.954  0.00  0.00    +0.000 A 
ATOM     12  C   UNL     1       1.519   4.432  20.704  0.00  0.00    +0.000 A 
ATOM     13  C   UNL     1       2.168   5.123  19.658  0.00  0.00    +0.000 A 
ATOM     14  C   UNL     1       3.299   4.404  19.281  0.00  0.00    +0.000 A 
ENDBRANCH   7  14
ENDBRANCH   6   7
ENDBRANCH   5   6
ENDBRANCH   1   5
BRANCH   3  15
ATOM     15  C   UNL     1       8.238   8.483  17.601  0.00  0.00    +0.000 C 
BRANCH  15  16
ATOM     16  C   UNL     1       8.688   9.548  18.603  0.00  0.00    +0.000 C 
BRANCH  16  17
ATOM     17  C   UNL     1       8.795  10.936  17.968  0.00  0.00    +0.000 C 
BRANCH  17  18
ATOM     18  C   UNL     1      10.035  11.674  18.411  0.00  0.00    +0.000 A 
ATOM     19  C   UNL     1      10.720  11.272  19.565  0.00  0.00    +0.000 A 
ATOM     20  C   UNL     1      11.866  11.954  19.982  0.00  0.00    +0.000 A 
ATOM     21  C   UNL     1      12.332  13.046  19.253  0.00  0.00    +0.000 A 
ATOM     22  C   UNL     1      11.655  13.459  18.107  0.00  0.00    +0.000 A 
ATOM     23  C   UNL     1      10.509  12.777  17.689  0.00  0.00    +0.000 A 
ENDBRANCH  17  18
ENDBRANCH  16  17
ENDBRANCH  15  16
ENDBRANCH   3  15
TORSDOF 8
ENDMDL
MODEL 7
REMARK VINA RESULT:      -6.9      3.917      7.390
REMARK  Name = 
REMARK  9 active torsions:
REMARK  status: ('A' for Active; 'I' for Inactive)
REMARK    1  A    between atoms: C_1  and  N_2
REMARK    2  A    between atoms: C_6  and  C_7
REMARK    3  A    between atoms: C_7  and  O_9
REMARK    4  A    between atoms: O_9  and  C_10
REMARK    5  A    between atoms: C_10  and  C_11
REMARK    6  A    between atoms: N_13  and  C_14
REMARK    7  A    between atoms: C_14  and  C_15
REMARK    8  A    between atoms: C_15  and  C_16
REMARK    9  A    between atoms: C_16  and  C_17
REMARK                            x       y       z     vdW  Elec       q    Type
REMARK                         _______ _______ _______ _____ _____    ______ ____
ROOT
ATOM      1  C   UNL     1       4.991   3.498  19.287  0.00  0.00    +0.000 C 
ATOM      2  O   UNL     1       4.997   2.704  20.224  0.00  0.00    +0.000 OA
ATOM      3  N   UNL     1       4.381   3.232  18.076  0.00  0.00    +0.000 N 
ATOM      4  H   UNL     1       4.309   3.970  17.389  0.00  0.00    +0.000 HD
ENDROOT
BRANCH   1   5
ATOM      5  C   UNL     1       5.685   4.861  19.351  0.00  0.00    +0.000 C 
BRANCH   5   6
ATOM      6  O   UNL     1       7.032   4.816  18.894  0.00  0.00    +0.000 OA
BRANCH   6   7
ATOM      7  C   UNL     1       7.339   5.748  17.947  0.00  0.00    +0.000 C 
ATOM      8  O   UNL     1       7.935   6.793  18.173  0.00  0.00    +0.000 OA
BRANCH   7  14
ATOM      9  C   UNL     1       4.987   7.044  16.441  0.00  0.00    +0.000 C 
ATOM     10  N   UNL     1       5.768   5.913  15.983  0.00  0.00    +0.000 N 
ATOM     11  C   UNL     1       5.547   5.264  14.794  0.00  0.00    +0.000 A 
ATOM     12  C   UNL     1       6.459   4.242  14.687  0.00  0.00    +0.000 A 
ATOM     13  C   UNL     1       7.253   4.276  15.854  0.00  0.00    +0.000 A 
ATOM     14  C   UNL     1       6.820   5.323  16.661  0.00  0.00    +0.000 A 
ENDBRANCH   7  14
ENDBRANCH   6   7
ENDBRANCH   5   6
ENDBRANCH   1   5
BRANCH   3  15
ATOM     15  C   UNL     1       3.615   2.019  17.860  0.00  0.00    +0.000 C 
BRANCH  15  16
ATOM     16  C   UNL     1       2.105   2.236  17.971  0.00  0.00    +0.000 C 
BRANCH  16  17
ATOM     17  C   UNL     1       1.678   3.619  17.472  0.00  0.00    +0.000 C 
BRANCH  17  18
ATOM     18  C   UNL     1       1.784   4.673  18.547  0.00  0.00    +0.000 A 
ATOM     19  C   UNL     1       2.195   5.972  18.223  0.00  0.00    +0.000 A 
ATOM     20  C   UNL     1       2.299   6.950  19.214  0.00  0.00    +0.000 A 
ATOM     21  C   UNL     1       1.999   6.638  20.539  0.00  0.00    +0.000 A 
ATOM     22  C   UNL     1       1.595   5.346  20.874  0.00  0.00    +0.000 A 
ATOM     23  C   UNL     1       1.490   4.367  19.883  0.00  0.00    +0.000 A 
ENDBRANCH  17  18
ENDBRANCH  16  17
ENDBRANCH  15  16
ENDBRANCH   3  15
TORSDOF 8
ENDMDL
MODEL 8
REMARK VINA RESULT:      -6.9      1.087      2.018
REMARK  Name = 
REMARK  9 active torsions:
REMARK  status: ('A' for Active; 'I' for Inactive)
REMARK    1  A    between atoms: C_1  and  N_2
REMARK    2  A    between atoms: C_6  and  C_7
REMARK    3  A    between atoms: C_7  and  O_9
REMARK    4  A    between atoms: O_9  and  C_10
REMARK    5  A    between atoms: C_10  and  C_11
REMARK    6  A    between atoms: N_13  and  C_14
REMARK    7  A    between atoms: C_14  and  C_15
REMARK    8  A    between atoms: C_15  and  C_16
REMARK    9  A    between atoms: C_16  and  C_17
REMARK                            x       y       z     vdW  Elec       q    Type
REMARK                         _______ _______ _______ _____ _____    ______ ____
ROOT
ATOM      1  C   UNL     1       6.888   5.437  17.995  0.00  0.00    +0.000 C 
ATOM      2  O   UNL     1       7.650   4.789  17.284  0.00  0.00    +0.000 OA
ATOM      3  N   UNL     1       6.945   6.813  18.106  0.00  0.00    +0.000 N 
ATOM      4  H   UNL     1       6.217   7.296  18.615  0.00  0.00    +0.000 HD
ENDROOT
BRANCH   1   5
ATOM      5  C   UNL     1       5.805   4.785  18.860  0.00  0.00    +0.000 C 
BRANCH   5   6
ATOM      6  O   UNL     1       4.828   4.093  18.090  0.00  0.00    +0.000 OA
BRANCH   6   7
ATOM      7  C   UNL     1       3.650   4.764  17.938  0.00  0.00    +0.000 C 
ATOM      8  O   UNL     1       3.550   5.880  17.447  0.00  0.00    +0.000 OA
BRANCH   7  14
ATOM      9  C   UNL     1       2.198   5.273  20.604  0.00  0.00    +0.000 C 
ATOM     10  N   UNL     1       1.908   4.204  19.671  0.00  0.00    +0.000 N 
ATOM     11  C   UNL     1       0.928   3.263  19.867  0.00  0.00    +0.000 A 
ATOM     12  C   UNL     1       0.938   2.403  18.796  0.00  0.00    +0.000 A 
ATOM     13  C   UNL     1       1.960   2.840  17.927  0.00  0.00    +0.000 A 
ATOM     14  C   UNL     1       2.564   3.967  18.476  0.00  0.00    +0.000 A 
ENDBRANCH   7  14
ENDBRANCH   6   7
ENDBRANCH   5   6
ENDBRANCH   1   5
BRANCH   3  15
ATOM     15  C   UNL     1       7.861   7.604  17.306  0.00  0.00    +0.000 C 
BRANCH  15  16
ATOM     16  C   UNL     1       7.974   9.053  17.781  0.00  0.00    +0.000 C 
BRANCH  16  17
ATOM     17  C   UNL     1       8.868   9.193  19.016  0.00  0.00    +0.000 C 
BRANCH  17  18
ATOM     18  C   UNL     1       9.470  10.572  19.134  0.00  0.00    +0.000 A 
ATOM     19  C   UNL     1       9.913  11.044  20.376  0.00  0.00    +0.000 A 
ATOM     20  C   UNL     1      10.467  12.321  20.491  0.00  0.00    +0.000 A 
ATOM     21  C   UNL     1      10.577  13.139  19.368  0.00  0.00    +0.000 A 
ATOM     22  C   UNL     1      10.133  12.682  18.129  0.00  0.00    +0.000 A 
ATOM     23  C   UNL     1       9.578  11.404  18.012  0.00  0.00    +0.000 A 
ENDBRANCH  17  18
ENDBRANCH  16  17
ENDBRANCH  15  16
ENDBRANCH   3  15
TORSDOF 8
ENDMDL
MODEL 9
REMARK VINA RESULT:      -6.8      1.607      1.916
REMARK  Name = 
REMARK  9 active torsions:
REMARK  status: ('A' for Active; 'I' for Inactive)
REMARK    1  A    between atoms: C_1  and  N_2
REMARK    2  A    between atoms: C_6  and  C_7
REMARK    3  A    between atoms: C_7  and  O_9
REMARK    4  A    between atoms: O_9  and  C_10
REMARK    5  A    between atoms: C_10  and  C_11
REMARK    6  A    between atoms: N_13  and  C_14
REMARK    7  A    between atoms: C_14  and  C_15
REMARK    8  A    between atoms: C_15  and  C_16
REMARK    9  A    between atoms: C_16  and  C_17
REMARK                            x       y       z     vdW  Elec       q    Type
REMARK                         _______ _______ _______ _____ _____    ______ ____
ROOT
ATOM      1  C   UNL     1       7.468   6.082  17.162  0.00  0.00    +0.000 C 
ATOM      2  O   UNL     1       7.402   6.306  15.956  0.00  0.00    +0.000 OA
ATOM      3  N   UNL     1       7.696   7.069  18.102  0.00  0.00    +0.000 N 
ATOM      4  H   UNL     1       7.621   6.839  19.084  0.00  0.00    +0.000 HD
ENDROOT
BRANCH   1   5
ATOM      5  C   UNL     1       7.329   4.676  17.753  0.00  0.00    +0.000 C 
BRANCH   5   6
ATOM      6  O   UNL     1       6.012   4.150  17.621  0.00  0.00    +0.000 OA
BRANCH   6   7
ATOM      7  C   UNL     1       5.233   4.292  18.731  0.00  0.00    +0.000 C 
ATOM      8  O   UNL     1       5.667   4.493  19.858  0.00  0.00    +0.000 OA
BRANCH   7  14
ATOM      9  C   UNL     1       3.685   1.632  18.665  0.00  0.00    +0.000 C 
ATOM     10  N   UNL     1       3.143   2.937  18.349  0.00  0.00    +0.000 N 
ATOM     11  C   UNL     1       1.842   3.152  17.970  0.00  0.00    +0.000 A 
ATOM     12  C   UNL     1       1.678   4.497  17.740  0.00  0.00    +0.000 A 
ATOM     13  C   UNL     1       2.924   5.111  17.987  0.00  0.00    +0.000 A 
ATOM     14  C   UNL     1       3.838   4.133  18.369  0.00  0.00    +0.000 A 
ENDBRANCH   7  14
ENDBRANCH   6   7
ENDBRANCH   5   6
ENDBRANCH   1   5
BRANCH   3  15
ATOM     15  C   UNL     1       7.781   8.468  17.730  0.00  0.00    +0.000 C 
BRANCH  15  16
ATOM     16  C   UNL     1       8.986   9.179  18.348  0.00  0.00    +0.000 C 
BRANCH  16  17
ATOM     17  C   UNL     1       8.611  10.529  18.965  0.00  0.00    +0.000 C 
BRANCH  17  18
ATOM     18  C   UNL     1       9.406  11.669  18.376  0.00  0.00    +0.000 A 
ATOM     19  C   UNL     1      10.691  11.442  17.866  0.00  0.00    +0.000 A 
ATOM     20  C   UNL     1      11.433  12.494  17.324  0.00  0.00    +0.000 A 
ATOM     21  C   UNL     1      10.900  13.781  17.291  0.00  0.00    +0.000 A 
ATOM     22  C   UNL     1       9.625  14.019  17.801  0.00  0.00    +0.000 A 
ATOM     23  C   UNL     1       8.882  12.968  18.345  0.00  0.00    +0.000 A 
ENDBRANCH  17  18
ENDBRANCH  16  17
ENDBRANCH  15  16
ENDBRANCH   3  15
TORSDOF 8
ENDMDL
