MODEL 1
REMARK VINA RESULT:      -6.9      0.000      0.000
REMARK  Name = 
REMARK  6 active torsions:
REMARK  status: ('A' for Active; 'I' for Inactive)
REMARK    1  A    between atoms: O_1  and  N_2
REMARK    2  A    between atoms: C_3  and  C_4
REMARK    3  A    between atoms: N_8  and  C_9
REMARK    4  A    between atoms: C_9  and  C_10
REMARK    5  A    between atoms: C_10  and  C_11
REMARK    6  A    between atoms: C_11  and  C_12
REMARK                            x       y       z     vdW  Elec       q    Type
REMARK                         _______ _______ _______ _____ _____    ______ ____
ROOT
ATOM      1  C   UNL     1       6.857   5.733  17.923  0.00  0.00    +0.000 A 
ATOM      2  C   UNL     1       7.123   5.253  16.646  0.00  0.00    +0.000 A 
ATOM      3  C   UNL     1       6.189   5.482  15.640  0.00  0.00    +0.000 A 
ATOM      4  C   UNL     1       5.023   6.191  15.922  0.00  0.00    +0.000 A 
ATOM      5  N   UNL     1       4.786   6.660  17.171  0.00  0.00    +0.000 N 
ATOM      6  C   UNL     1       5.678   6.430  18.169  0.00  0.00    +0.000 A 
ENDROOT
BRANCH   1   8
ATOM      7  N   UNL     1       7.402   5.244  20.204  0.00  0.00    +0.000 NA
ATOM      8  C   UNL     1       7.819   5.540  19.015  0.00  0.00    +0.000 C 
BRANCH   7   9
ATOM      9  O   UNL     1       8.511   5.127  21.046  0.00  0.00    +0.000 OA
ATOM     10  H   UNL     1       8.320   5.765  21.762  0.00  0.00    +0.000 HD
ENDBRANCH   7   9
ENDBRANCH   1   8
BRANCH   5  11
ATOM     11  C   UNL     1       3.601   7.511  17.437  0.00  0.00    +0.000 C 
BRANCH  11  12
ATOM     12  C   UNL     1       2.442   6.715  18.017  0.00  0.00    +0.000 C 
BRANCH  12  13
ATOM     13  C   UNL     1       2.497   6.563  19.540  0.00  0.00    +0.000 C 
BRANCH  13  14
ATOM     14  C   UNL     1       2.386   5.112  19.935  0.00  0.00    +0.000 A 
ATOM     15  C   UNL     1       1.226   4.632  20.558  0.00  0.00    +0.000 A 
ATOM     16  C   UNL     1       1.144   3.299  20.966  0.00  0.00    +0.000 A 
ATOM     17  C   UNL     1       2.218   2.438  20.758  0.00  0.00    +0.000 A 
ATOM     18  C   UNL     1       3.374   2.904  20.135  0.00  0.00    +0.000 A 
ATOM     19  C   UNL     1       3.459   4.236  19.725  0.00  0.00    +0.000 A 
ENDBRANCH  13  14
ENDBRANCH  12  13
ENDBRANCH  11  12
ENDBRANCH   5  11
TORSDOF 6
ENDMDL
MODEL 2
REMARK VINA RESULT:      -6.8      2.550      3.242
REMARK  Name = 
REMARK  6 active torsions:
REMARK  status: ('A' for Active; 'I' for Inactive)
REMARK    1  A    between atoms: O_1  and  N_2
REMARK    2  A    between atoms: C_3  and  C_4
REMARK    3  A    between atoms: N_8  and  C_9
REMARK    4  A    between atoms: C_9  and  C_10
REMARK    5  A    between atoms: C_10  and  C_11
REMARK    6  A    between atoms: C_11  and  C_12
REMARK                            x       y       z     vdW  Elec       q    Type
REMARK                         _______ _______ _______ _____ _____    ______ ____
ROOT
ATOM      1  C   UNL     1       6.252   4.596  15.972  0.00  0.00    +0.000 A 
ATOM      2  C   UNL     1       7.312   4.527  16.867  0.00  0.00    +0.000 A 
ATOM      3  C   UNL     1       7.337   5.414  17.939  0.00  0.00    +0.000 A 
ATOM      4  C   UNL     1       6.305   6.336  18.104  0.00  0.00    +0.000 A 
ATOM      5  N   UNL     1       5.274   6.380  17.225  0.00  0.00    +0.000 N 
ATOM      6  C   UNL     1       5.243   5.535  16.163  0.00  0.00    +0.000 A 
ENDROOT
BRANCH   1   8
ATOM      7  N   UNL     1       6.382   4.092  13.633  0.00  0.00    +0.000 NA
ATOM      8  C   UNL     1       6.164   3.669  14.837  0.00  0.00    +0.000 C 
BRANCH   7   9
ATOM      9  O   UNL     1       6.226   3.020  12.751  0.00  0.00    +0.000 OA
ATOM     10  H   UNL     1       6.254   3.444  11.871  0.00  0.00    +0.000 HD
ENDBRANCH   7   9
ENDBRANCH   1   8
BRANCH   5  11
ATOM     11  C   UNL     1       4.123   7.283  17.471  0.00  0.00    +0.000 C 
BRANCH  11  12
ATOM     12  C   UNL     1       2.884   6.523  17.917  0.00  0.00    +0.000 C 
BRANCH  12  13
ATOM     13  C   UNL     1       2.781   6.344  19.434  0.00  0.00    +0.000 C 
BRANCH  13  14
ATOM     14  C   UNL     1       2.226   4.984  19.773  0.00  0.00    +0.000 A 
ATOM     15  C   UNL     1       1.623   4.193  18.784  0.00  0.00    +0.000 A 
ATOM     16  C   UNL     1       1.069   2.955  19.112  0.00  0.00    +0.000 A 
ATOM     17  C   UNL     1       1.108   2.497  20.426  0.00  0.00    +0.000 A 
ATOM     18  C   UNL     1       1.709   3.272  21.416  0.00  0.00    +0.000 A 
ATOM     19  C   UNL     1       2.265   4.511  21.092  0.00  0.00    +0.000 A 
ENDBRANCH  13  14
ENDBRANCH  12  13
ENDBRANCH  11  12
ENDBRANCH   5  11
TORSDOF 6
ENDMDL
MODEL 3
REMARK VINA RESULT:      -6.8      2.532      3.934
REMARK  Name = 
REMARK  6 active torsions:
REMARK  status: ('A' for Active; 'I' for Inactive)
REMARK    1  A    between atoms: O_1  and  N_2
REMARK    2  A    between atoms: C_3  and  C_4
REMARK    3  A    between atoms: N_8  and  C_9
REMARK    4  A    between atoms: C_9  and  C_10
REMARK    5  A    between atoms: C_10  and  C_11
REMARK    6  A    between atoms: C_11  and  C_12
REMARK                            x       y       z     vdW  Elec       q    Type
REMARK                         _______ _______ _______ _____ _____    ______ ____
ROOT
ATOM      1  C   UNL     1       5.903   4.384  16.803  0.00  0.00    +0.000 A 
ATOM      2  C   UNL     1       6.355   5.031  17.947  0.00  0.00    +0.000 A 
ATOM      3  C   UNL     1       5.782   4.698  19.171  0.00  0.00    +0.000 A 
ATOM      4  C   UNL     1       4.787   3.724  19.231  0.00  0.00    +0.000 A 
ATOM      5  N   UNL     1       4.367   3.097  18.106  0.00  0.00    +0.000 N 
ATOM      6  C   UNL     1       4.902   3.422  16.900  0.00  0.00    +0.000 A 
ENDROOT
BRANCH   1   8
ATOM      7  N   UNL     1       7.488   5.498  15.393  0.00  0.00    +0.000 NA
ATOM      8  C   UNL     1       6.489   4.680  15.490  0.00  0.00    +0.000 C 
BRANCH   7   9
ATOM      9  O   UNL     1       7.841   5.608  14.046  0.00  0.00    +0.000 OA
ATOM     10  H   UNL     1       7.207   5.014  13.596  0.00  0.00    +0.000 HD
ENDBRANCH   7   9
ENDBRANCH   1   8
BRANCH   5  11
ATOM     11  C   UNL     1       3.392   1.983  18.192  0.00  0.00    +0.000 C 
BRANCH  11  12
ATOM     12  C   UNL     1       2.018   2.457  18.639  0.00  0.00    +0.000 C 
BRANCH  12  13
ATOM     13  C   UNL     1       1.494   3.662  17.855  0.00  0.00    +0.000 C 
BRANCH  13  14
ATOM     14  C   UNL     1       1.773   4.944  18.598  0.00  0.00    +0.000 A 
ATOM     15  C   UNL     1       1.492   5.049  19.968  0.00  0.00    +0.000 A 
ATOM     16  C   UNL     1       1.708   6.252  20.643  0.00  0.00    +0.000 A 
ATOM     17  C   UNL     1       2.201   7.359  19.957  0.00  0.00    +0.000 A 
ATOM     18  C   UNL     1       2.488   7.265  18.597  0.00  0.00    +0.000 A 
ATOM     19  C   UNL     1       2.275   6.063  17.919  0.00  0.00    +0.000 A 
ENDBRANCH  13  14
ENDBRANCH  12  13
ENDBRANCH  11  12
ENDBRANCH   5  11
TORSDOF 6
ENDMDL
MODEL 4
REMARK VINA RESULT:      -6.7      2.679      3.295
REMARK  Name = 
REMARK  6 active torsions:
REMARK  status: ('A' for Active; 'I' for Inactive)
REMARK    1  A    between atoms: O_1  and  N_2
REMARK    2  A    between atoms: C_3  and  C_4
REMARK    3  A    between atoms: N_8  and  C_9
REMARK    4  A    between atoms: C_9  and  C_10
REMARK    5  A    between atoms: C_10  and  C_11
REMARK    6  A    between atoms: C_11  and  C_12
REMARK                            x       y       z     vdW  Elec       q    Type
REMARK                         _______ _______ _______ _____ _____    ______ ____
ROOT
ATOM      1  C   UNL     1       6.100   4.702  15.787  0.00  0.00    +0.000 A 
ATOM      2  C   UNL     1       7.200   4.543  16.621  0.00  0.00    +0.000 A 
ATOM      3  C   UNL     1       7.343   5.402  17.706  0.00  0.00    +0.000 A 
ATOM      4  C   UNL     1       6.387   6.388  17.944  0.00  0.00    +0.000 A 
ATOM      5  N   UNL     1       5.316   6.521  17.125  0.00  0.00    +0.000 N 
ATOM      6  C   UNL     1       5.169   5.702  16.051  0.00  0.00    +0.000 A 
ENDROOT
BRANCH   1   8
ATOM      7  N   UNL     1       6.557   3.983  13.548  0.00  0.00    +0.000 NA
ATOM      8  C   UNL     1       5.889   3.808  14.642  0.00  0.00    +0.000 C 
BRANCH   7   9
ATOM      9  O   UNL     1       6.159   3.011  12.626  0.00  0.00    +0.000 OA
ATOM     10  H   UNL     1       6.984   2.808  12.141  0.00  0.00    +0.000 HD
ENDBRANCH   7   9
ENDBRANCH   1   8
BRANCH   5  11
ATOM     11  C   UNL     1       4.244   7.493  17.449  0.00  0.00    +0.000 C 
BRANCH  11  12
ATOM     12  C   UNL     1       2.949   6.805  17.853  0.00  0.00    +0.000 C 
BRANCH  12  13
ATOM     13  C   UNL     1       3.037   6.055  19.184  0.00  0.00    +0.000 C 
BRANCH  13  14
ATOM     14  C   UNL     1       2.351   4.715  19.087  0.00  0.00    +0.000 A 
ATOM     15  C   UNL     1       1.420   4.320  20.059  0.00  0.00    +0.000 A 
ATOM     16  C   UNL     1       0.822   3.060  19.992  0.00  0.00    +0.000 A 
ATOM     17  C   UNL     1       1.149   2.186  18.959  0.00  0.00    +0.000 A 
ATOM     18  C   UNL     1       2.068   2.570  17.985  0.00  0.00    +0.000 A 
ATOM     19  C   UNL     1       2.668   3.830  18.048  0.00  0.00    +0.000 A 
ENDBRANCH  13  14
ENDBRANCH  12  13
ENDBRANCH  11  12
ENDBRANCH   5  11
TORSDOF 6
ENDMDL
MODEL 5
REMARK VINA RESULT:      -6.7      2.815      5.873
REMARK  Name = 
REMARK  6 active torsions:
REMARK  status: ('A' for Active; 'I' for Inactive)
REMARK    1  A    between atoms: O_1  and  N_2
REMARK    2  A    between atoms: C_3  and  C_4
REMARK    3  A    between atoms: N_8  and  C_9
REMARK    4  A    between atoms: C_9  and  C_10
REMARK    5  A    between atoms: C_10  and  C_11
REMARK    6  A    between atoms: C_11  and  C_12
REMARK                            x       y       z     vdW  Elec       q    Type
REMARK                         _______ _______ _______ _____ _____    ______ ____
ROOT
ATOM      1  C   UNL     1       2.780   6.973  18.445  0.00  0.00    +0.000 A 
ATOM      2  C   UNL     1       2.265   6.774  19.720  0.00  0.00    +0.000 A 
ATOM      3  C   UNL     1       2.393   5.517  20.303  0.00  0.00    +0.000 A 
ATOM      4  C   UNL     1       3.040   4.493  19.612  0.00  0.00    +0.000 A 
ATOM      5  N   UNL     1       3.544   4.709  18.373  0.00  0.00    +0.000 N 
ATOM      6  C   UNL     1       3.413   5.925  17.782  0.00  0.00    +0.000 A 
ENDROOT
BRANCH   1   8
ATOM      7  N   UNL     1       1.701   9.075  18.053  0.00  0.00    +0.000 NA
ATOM      8  C   UNL     1       2.693   8.285  17.794  0.00  0.00    +0.000 C 
BRANCH   7   9
ATOM      9  O   UNL     1       1.855  10.242  17.300  0.00  0.00    +0.000 OA
ATOM     10  H   UNL     1       2.826  10.340  17.231  0.00  0.00    +0.000 HD
ENDBRANCH   7   9
ENDBRANCH   1   8
BRANCH   5  11
ATOM     11  C   UNL     1       4.331   3.652  17.693  0.00  0.00    +0.000 C 
BRANCH  11  12
ATOM     12  C   UNL     1       4.758   4.066  16.293  0.00  0.00    +0.000 C 
BRANCH  12  13
ATOM     13  C   UNL     1       6.274   4.070  16.085  0.00  0.00    +0.000 C 
BRANCH  13  14
ATOM     14  C   UNL     1       6.931   5.101  16.967  0.00  0.00    +0.000 A 
ATOM     15  C   UNL     1       7.500   4.731  18.193  0.00  0.00    +0.000 A 
ATOM     16  C   UNL     1       8.066   5.696  19.029  0.00  0.00    +0.000 A 
ATOM     17  C   UNL     1       8.066   7.035  18.650  0.00  0.00    +0.000 A 
ATOM     18  C   UNL     1       7.508   7.414  17.430  0.00  0.00    +0.000 A 
ATOM     19  C   UNL     1       6.942   6.452  16.592  0.00  0.00    +0.000 A 
ENDBRANCH  13  14
ENDBRANCH  12  13
ENDBRANCH  11  12
ENDBRANCH   5  11
TORSDOF 6
ENDMDL
MODEL 6
REMARK VINA RESULT:      -6.7      2.268      4.714
REMARK  Name = 
REMARK  6 active torsions:
REMARK  status: ('A' for Active; 'I' for Inactive)
REMARK    1  A    between atoms: O_1  and  N_2
REMARK    2  A    between atoms: C_3  and  C_4
REMARK    3  A    between atoms: N_8  and  C_9
REMARK    4  A    between atoms: C_9  and  C_10
REMARK    5  A    between atoms: C_10  and  C_11
REMARK    6  A    between atoms: C_11  and  C_12
REMARK                            x       y       z     vdW  Elec       q    Type
REMARK                         _______ _______ _______ _____ _____    ______ ____
ROOT
ATOM      1  C   UNL     1       3.971   2.222  19.398  0.00  0.00    +0.000 A 
ATOM      2  C   UNL     1       3.500   1.654  18.221  0.00  0.00    +0.000 A 
ATOM      3  C   UNL     1       2.549   2.348  17.480  0.00  0.00    +0.000 A 
ATOM      4  C   UNL     1       2.098   3.592  17.918  0.00  0.00    +0.000 A 
ATOM      5  N   UNL     1       2.576   4.134  19.064  0.00  0.00    +0.000 N 
ATOM      6  C   UNL     1       3.492   3.463  19.809  0.00  0.00    +0.000 A 
ENDROOT
BRANCH   1   8
ATOM      7  N   UNL     1       4.918   1.563  21.498  0.00  0.00    +0.000 NA
ATOM      8  C   UNL     1       4.992   1.544  20.206  0.00  0.00    +0.000 C 
BRANCH   7   9
ATOM      9  O   UNL     1       6.009   0.858  22.014  0.00  0.00    +0.000 OA
ATOM     10  H   UNL     1       6.449   0.505  21.216  0.00  0.00    +0.000 HD
ENDBRANCH   7   9
ENDBRANCH   1   8
BRANCH   5  11
ATOM     11  C   UNL     1       2.179   5.507  19.462  0.00  0.00    +0.000 C 
BRANCH  11  12
ATOM     12  C   UNL     1       3.299   6.513  19.243  0.00  0.00    +0.000 C 
BRANCH  12  13
ATOM     13  C   UNL     1       3.647   6.739  17.770  0.00  0.00    +0.000 C 
BRANCH  13  14
ATOM     14  C   UNL     1       4.908   6.000  17.400  0.00  0.00    +0.000 A 
ATOM     15  C   UNL     1       5.133   5.592  16.078  0.00  0.00    +0.000 A 
ATOM     16  C   UNL     1       6.279   4.867  15.748  0.00  0.00    +0.000 A 
ATOM     17  C   UNL     1       7.208   4.541  16.733  0.00  0.00    +0.000 A 
ATOM     18  C   UNL     1       6.997   4.946  18.050  0.00  0.00    +0.000 A 
ATOM     19  C   UNL     1       5.852   5.672  18.383  0.00  0.00    +0.000 A 
ENDBRANCH  13  14
ENDBRANCH  12  13
ENDBRANCH  11  12
ENDBRANCH   5  11
TORSDOF 6
ENDMDL
MODEL 7
REMARK VINA RESULT:      -6.7      2.625      3.450
REMARK  Name = 
REMARK  6 active torsions:
REMARK  status: ('A' for Active; 'I' for Inactive)
REMARK    1  A    between atoms: O_1  and  N_2
REMARK    2  A    between atoms: C_3  and  C_4
REMARK    3  A    between atoms: N_8  and  C_9
REMARK    4  A    between atoms: C_9  and  C_10
REMARK    5  A    between atoms: C_10  and  C_11
REMARK    6  A    between atoms: C_11  and  C_12
REMARK                            x       y       z     vdW  Elec       q    Type
REMARK                         _______ _______ _______ _____ _____    ______ ____
ROOT
ATOM      1  C   UNL     1       6.447   4.755  16.000  0.00  0.00    +0.000 A 
ATOM      2  C   UNL     1       7.281   4.532  17.089  0.00  0.00    +0.000 A 
ATOM      3  C   UNL     1       7.046   5.238  18.264  0.00  0.00    +0.000 A 
ATOM      4  C   UNL     1       5.982   6.137  18.335  0.00  0.00    +0.000 A 
ATOM      5  N   UNL     1       5.174   6.333  17.266  0.00  0.00    +0.000 N 
ATOM      6  C   UNL     1       5.399   5.665  16.105  0.00  0.00    +0.000 A 
ENDROOT
BRANCH   1   8
ATOM      7  N   UNL     1       5.694   3.994  13.857  0.00  0.00    +0.000 NA
ATOM      8  C   UNL     1       6.636   4.019  14.744  0.00  0.00    +0.000 C 
BRANCH   7   9
ATOM      9  O   UNL     1       6.126   3.224  12.774  0.00  0.00    +0.000 OA
ATOM     10  H   UNL     1       6.934   3.687  12.474  0.00  0.00    +0.000 HD
ENDBRANCH   7   9
ENDBRANCH   1   8
BRANCH   5  11
ATOM     11  C   UNL     1       3.977   7.201  17.384  0.00  0.00    +0.000 C 
BRANCH  11  12
ATOM     12  C   UNL     1       3.038   6.734  18.486  0.00  0.00    +0.000 C 
BRANCH  12  13
ATOM     13  C   UNL     1       2.103   5.599  18.062  0.00  0.00    +0.000 C 
BRANCH  13  14
ATOM     14  C   UNL     1       2.719   4.258  18.370  0.00  0.00    +0.000 A 
ATOM     15  C   UNL     1       2.718   3.236  17.410  0.00  0.00    +0.000 A 
ATOM     16  C   UNL     1       3.247   1.981  17.714  0.00  0.00    +0.000 A 
ATOM     17  C   UNL     1       3.777   1.734  18.978  0.00  0.00    +0.000 A 
ATOM     18  C   UNL     1       3.787   2.743  19.938  0.00  0.00    +0.000 A 
ATOM     19  C   UNL     1       3.259   4.000  19.637  0.00  0.00    +0.000 A 
ENDBRANCH  13  14
ENDBRANCH  12  13
ENDBRANCH  11  12
ENDBRANCH   5  11
TORSDOF 6
ENDMDL
MODEL 8
REMARK VINA RESULT:      -6.7      2.419      3.128
REMARK  Name = 
REMARK  6 active torsions:
REMARK  status: ('A' for Active; 'I' for Inactive)
REMARK    1  A    between atoms: O_1  and  N_2
REMARK    2  A    between atoms: C_3  and  C_4
REMARK    3  A    between atoms: N_8  and  C_9
REMARK    4  A    between atoms: C_9  and  C_10
REMARK    5  A    between atoms: C_10  and  C_11
REMARK    6  A    between atoms: C_11  and  C_12
REMARK                            x       y       z     vdW  Elec       q    Type
REMARK                         _______ _______ _______ _____ _____    ______ ____
ROOT
ATOM      1  C   UNL     1       7.420   7.435  17.905  0.00  0.00    +0.000 A 
ATOM      2  C   UNL     1       8.124   6.570  18.734  0.00  0.00    +0.000 A 
ATOM      3  C   UNL     1       7.606   5.299  18.966  0.00  0.00    +0.000 A 
ATOM      4  C   UNL     1       6.411   4.914  18.359  0.00  0.00    +0.000 A 
ATOM      5  N   UNL     1       5.745   5.769  17.545  0.00  0.00    +0.000 N 
ATOM      6  C   UNL     1       6.226   7.019  17.323  0.00  0.00    +0.000 A 
ENDROOT
BRANCH   1   8
ATOM      7  N   UNL     1       8.616   9.424  18.499  0.00  0.00    +0.000 NA
ATOM      8  C   UNL     1       7.934   8.777  17.609  0.00  0.00    +0.000 C 
BRANCH   7   9
ATOM      9  O   UNL     1       8.971  10.667  17.969  0.00  0.00    +0.000 OA
ATOM     10  H   UNL     1       9.798  10.477  17.482  0.00  0.00    +0.000 HD
ENDBRANCH   7   9
ENDBRANCH   1   8
BRANCH   5  11
ATOM     11  C   UNL     1       4.538   5.314  16.813  0.00  0.00    +0.000 C 
BRANCH  11  12
ATOM     12  C   UNL     1       4.331   3.811  16.929  0.00  0.00    +0.000 C 
BRANCH  12  13
ATOM     13  C   UNL     1       2.873   3.403  17.156  0.00  0.00    +0.000 C 
BRANCH  13  14
ATOM     14  C   UNL     1       2.535   3.429  18.625  0.00  0.00    +0.000 A 
ATOM     15  C   UNL     1       3.311   2.712  19.547  0.00  0.00    +0.000 A 
ATOM     16  C   UNL     1       2.968   2.701  20.900  0.00  0.00    +0.000 A 
ATOM     17  C   UNL     1       1.848   3.400  21.343  0.00  0.00    +0.000 A 
ATOM     18  C   UNL     1       1.073   4.119  20.437  0.00  0.00    +0.000 A 
ATOM     19  C   UNL     1       1.413   4.134  19.083  0.00  0.00    +0.000 A 
ENDBRANCH  13  14
ENDBRANCH  12  13
ENDBRANCH  11  12
ENDBRANCH   5  11
TORSDOF 6
ENDMDL
MODEL 9
REMARK VINA RESULT:      -6.7      2.467      3.106
REMARK  Name = 
REMARK  6 active torsions:
REMARK  status: ('A' for Active; 'I' for Inactive)
REMARK    1  A    between atoms: O_1  and  N_2
REMARK    2  A    between atoms: C_3  and  C_4
REMARK    3  A    between atoms: N_8  and  C_9
REMARK    4  A    between atoms: C_9  and  C_10
REMARK    5  A    between atoms: C_10  and  C_11
REMARK    6  A    between atoms: C_11  and  C_12
REMARK                            x       y       z     vdW  Elec       q    Type
REMARK                         _______ _______ _______ _____ _____    ______ ____
ROOT
ATOM      1  C   UNL     1       7.440   7.405  17.854  0.00  0.00    +0.000 A 
ATOM      2  C   UNL     1       8.081   6.568  18.760  0.00  0.00    +0.000 A 
ATOM      3  C   UNL     1       7.586   5.280  18.942  0.00  0.00    +0.000 A 
ATOM      4  C   UNL     1       6.479   4.850  18.212  0.00  0.00    +0.000 A 
ATOM      5  N   UNL     1       5.875   5.678  17.326  0.00  0.00    +0.000 N 
ATOM      6  C   UNL     1       6.332   6.944  17.149  0.00  0.00    +0.000 A 
ENDROOT
BRANCH   1   8
ATOM      7  N   UNL     1       8.638   9.374  18.506  0.00  0.00    +0.000 NA
ATOM      8  C   UNL     1       7.934   8.765  17.607  0.00  0.00    +0.000 C 
BRANCH   7   9
ATOM      9  O   UNL     1       8.968  10.644  18.025  0.00  0.00    +0.000 OA
ATOM     10  H   UNL     1       8.895  10.545  17.055  0.00  0.00    +0.000 HD
ENDBRANCH   7   9
ENDBRANCH   1   8
BRANCH   5  11
ATOM     11  C   UNL     1       4.771   5.178  16.470  0.00  0.00    +0.000 C 
BRANCH  11  12
ATOM     12  C   UNL     1       4.283   3.806  16.909  0.00  0.00    +0.000 C 
BRANCH  12  13
ATOM     13  C   UNL     1       2.761   3.648  16.868  0.00  0.00    +0.000 C 
BRANCH  13  14
ATOM     14  C   UNL     1       2.178   3.732  18.256  0.00  0.00    +0.000 A 
ATOM     15  C   UNL     1       2.246   4.927  18.986  0.00  0.00    +0.000 A 
ATOM     16  C   UNL     1       1.747   4.987  20.288  0.00  0.00    +0.000 A 
ATOM     17  C   UNL     1       1.181   3.857  20.873  0.00  0.00    +0.000 A 
ATOM     18  C   UNL     1       1.104   2.666  20.155  0.00  0.00    +0.000 A 
ATOM     19  C   UNL     1       1.601   2.602  18.851  0.00  0.00    +0.000 A 
ENDBRANCH  13  14
ENDBRANCH  12  13
ENDBRANCH  11  12
ENDBRANCH   5  11
TORSDOF 6
ENDMDL
