MODEL 1
REMARK VINA RESULT:      -7.5      0.000      0.000
REMARK  Name = 
REMARK  7 active torsions:
REMARK  status: ('A' for Active; 'I' for Inactive)
REMARK    1  A    between atoms: C_1  and  O_2
REMARK    2  A    between atoms: O_2  and  C_3
REMARK    3  A    between atoms: C_3  and  C_5
REMARK    4  A    between atoms: C_5  and  O_6
REMARK    5  A    between atoms: O_6  and  C_7
REMARK    6  A    between atoms: C_10  and  C_11
REMARK    7  A    between atoms: C_19  and  C_20
REMARK                            x       y       z     vdW  Elec       q    Type
REMARK                         _______ _______ _______ _____ _____    ______ ____
ROOT
ATOM      1  C   UNL     1       6.054   5.144  16.325  0.00  0.00    +0.000 A 
ATOM      2  C   UNL     1       4.968   4.314  16.024  0.00  0.00    +0.000 A 
ATOM      3  C   UNL     1       4.091   3.860  17.022  0.00  0.00    +0.000 A 
ATOM      4  C   UNL     1       4.273   4.210  18.366  0.00  0.00    +0.000 A 
ATOM      5  C   UNL     1       5.376   5.032  18.655  0.00  0.00    +0.000 A 
ATOM      6  C   UNL     1       6.243   5.525  17.657  0.00  0.00    +0.000 A 
ENDROOT
BRANCH   4   7
ATOM      7  C   UNL     1       3.334   3.772  19.431  0.00  0.00    +0.000 A 
ATOM      8  C   UNL     1       2.049   4.333  19.563  0.00  0.00    +0.000 A 
ATOM      9  C   UNL     1       1.173   3.924  20.575  0.00  0.00    +0.000 A 
ATOM     10  C   UNL     1       1.564   2.935  21.463  0.00  0.00    +0.000 A 
ATOM     11  F   UNL     1       0.722   2.538  22.427  0.00  0.00    +0.000 F 
ATOM     12  C   UNL     1       2.817   2.352  21.365  0.00  0.00    +0.000 A 
ATOM     13  C   UNL     1       3.696   2.774  20.361  0.00  0.00    +0.000 A 
ENDBRANCH   4   7
BRANCH   6  14
ATOM     14  C   UNL     1       7.256   6.501  18.120  0.00  0.00    +0.000 C 
ATOM     15  O   UNL     1       8.102   6.218  18.965  0.00  0.00    +0.000 OA
ENDBRANCH   6  14
BRANCH   1  16
ATOM     16  O   UNL     1       6.739   5.537  15.209  0.00  0.00    +0.000 OA
BRANCH  16  17
ATOM     17  C   UNL     1       6.891   4.610  14.144  0.00  0.00    +0.000 C 
BRANCH  17  18
ATOM     18  C   UNL     1       7.789   5.140  13.034  0.00  0.00    +0.000 C 
ATOM     19  O   UNL     1       8.695   5.950  13.160  0.00  0.00    +0.000 OA
BRANCH  18  21
ATOM     20  C   UNL     1       6.570   3.409  12.018  0.00  0.00    +0.000 C 
ATOM     21  O   UNL     1       7.427   4.541  11.859  0.00  0.00    +0.000 OA
ENDBRANCH  18  21
ENDBRANCH  17  18
ENDBRANCH  16  17
ENDBRANCH   1  16
TORSDOF 6
ENDMDL
MODEL 2
REMARK VINA RESULT:      -7.4      3.647      4.438
REMARK  Name = 
REMARK  7 active torsions:
REMARK  status: ('A' for Active; 'I' for Inactive)
REMARK    1  A    between atoms: C_1  and  O_2
REMARK    2  A    between atoms: O_2  and  C_3
REMARK    3  A    between atoms: C_3  and  C_5
REMARK    4  A    between atoms: C_5  and  O_6
REMARK    5  A    between atoms: O_6  and  C_7
REMARK    6  A    between atoms: C_10  and  C_11
REMARK    7  A    between atoms: C_19  and  C_20
REMARK                            x       y       z     vdW  Elec       q    Type
REMARK                         _______ _______ _______ _____ _____    ______ ____
ROOT
ATOM      1  C   UNL     1       4.678   4.800  16.778  0.00  0.00    +0.000 A 
ATOM      2  C   UNL     1       5.053   6.149  16.791  0.00  0.00    +0.000 A 
ATOM      3  C   UNL     1       4.254   7.128  17.402  0.00  0.00    +0.000 A 
ATOM      4  C   UNL     1       3.038   6.798  18.016  0.00  0.00    +0.000 A 
ATOM      5  C   UNL     1       2.667   5.442  17.982  0.00  0.00    +0.000 A 
ATOM      6  C   UNL     1       3.479   4.444  17.404  0.00  0.00    +0.000 A 
ENDROOT
BRANCH   4   7
ATOM      7  C   UNL     1       2.198   7.814  18.701  0.00  0.00    +0.000 A 
ATOM      8  C   UNL     1       1.654   8.914  18.011  0.00  0.00    +0.000 A 
ATOM      9  C   UNL     1       0.873   9.874  18.665  0.00  0.00    +0.000 A 
ATOM     10  C   UNL     1       0.610   9.739  20.018  0.00  0.00    +0.000 A 
ATOM     11  F   UNL     1      -0.146  10.654  20.641  0.00  0.00    +0.000 F 
ATOM     12  C   UNL     1       1.119   8.668  20.734  0.00  0.00    +0.000 A 
ATOM     13  C   UNL     1       1.912   7.718  20.081  0.00  0.00    +0.000 A 
ENDBRANCH   4   7
BRANCH   6  14
ATOM     14  C   UNL     1       3.008   3.053  17.595  0.00  0.00    +0.000 C 
ATOM     15  O   UNL     1       1.815   2.760  17.615  0.00  0.00    +0.000 OA
ENDBRANCH   6  14
BRANCH   1  16
ATOM     16  O   UNL     1       5.624   3.998  16.204  0.00  0.00    +0.000 OA
BRANCH  16  17
ATOM     17  C   UNL     1       6.881   4.565  15.865  0.00  0.00    +0.000 C 
BRANCH  17  18
ATOM     18  C   UNL     1       7.081   4.680  14.360  0.00  0.00    +0.000 C 
ATOM     19  O   UNL     1       7.828   5.458  13.786  0.00  0.00    +0.000 OA
BRANCH  18  21
ATOM     20  C   UNL     1       6.513   3.631  12.338  0.00  0.00    +0.000 C 
ATOM     21  O   UNL     1       6.294   3.745  13.744  0.00  0.00    +0.000 OA
ENDBRANCH  18  21
ENDBRANCH  17  18
ENDBRANCH  16  17
ENDBRANCH   1  16
TORSDOF 6
ENDMDL
MODEL 3
REMARK VINA RESULT:      -7.4      0.684      1.184
REMARK  Name = 
REMARK  7 active torsions:
REMARK  status: ('A' for Active; 'I' for Inactive)
REMARK    1  A    between atoms: C_1  and  O_2
REMARK    2  A    between atoms: O_2  and  C_3
REMARK    3  A    between atoms: C_3  and  C_5
REMARK    4  A    between atoms: C_5  and  O_6
REMARK    5  A    between atoms: O_6  and  C_7
REMARK    6  A    between atoms: C_10  and  C_11
REMARK    7  A    between atoms: C_19  and  C_20
REMARK                            x       y       z     vdW  Elec       q    Type
REMARK                         _______ _______ _______ _____ _____    ______ ____
ROOT
ATOM      1  C   UNL     1       6.616   5.172  16.495  0.00  0.00    +0.000 A 
ATOM      2  C   UNL     1       5.528   4.347  16.187  0.00  0.00    +0.000 A 
ATOM      3  C   UNL     1       4.617   3.934  17.172  0.00  0.00    +0.000 A 
ATOM      4  C   UNL     1       4.765   4.322  18.510  0.00  0.00    +0.000 A 
ATOM      5  C   UNL     1       5.870   5.138  18.807  0.00  0.00    +0.000 A 
ATOM      6  C   UNL     1       6.772   5.590  17.820  0.00  0.00    +0.000 A 
ENDROOT
BRANCH   4   7
ATOM      7  C   UNL     1       3.790   3.927  19.559  0.00  0.00    +0.000 A 
ATOM      8  C   UNL     1       3.733   2.613  20.062  0.00  0.00    +0.000 A 
ATOM      9  C   UNL     1       2.805   2.244  21.043  0.00  0.00    +0.000 A 
ATOM     10  C   UNL     1       1.928   3.191  21.547  0.00  0.00    +0.000 A 
ATOM     11  F   UNL     1       1.045   2.839  22.492  0.00  0.00    +0.000 F 
ATOM     12  C   UNL     1       1.954   4.497  21.085  0.00  0.00    +0.000 A 
ATOM     13  C   UNL     1       2.874   4.858  20.095  0.00  0.00    +0.000 A 
ENDBRANCH   4   7
BRANCH   6  14
ATOM     14  C   UNL     1       7.784   6.567  18.283  0.00  0.00    +0.000 C 
ATOM     15  O   UNL     1       7.843   7.711  17.839  0.00  0.00    +0.000 OA
ENDBRANCH   6  14
BRANCH   1  16
ATOM     16  O   UNL     1       7.339   5.523  15.388  0.00  0.00    +0.000 OA
BRANCH  16  17
ATOM     17  C   UNL     1       7.073   4.855  14.163  0.00  0.00    +0.000 C 
BRANCH  17  18
ATOM     18  C   UNL     1       8.020   5.280  13.050  0.00  0.00    +0.000 C 
ATOM     19  O   UNL     1       8.988   6.017  13.164  0.00  0.00    +0.000 OA
BRANCH  18  21
ATOM     20  C   UNL     1       6.673   3.627  12.067  0.00  0.00    +0.000 C 
ATOM     21  O   UNL     1       7.620   4.681  11.887  0.00  0.00    +0.000 OA
ENDBRANCH  18  21
ENDBRANCH  17  18
ENDBRANCH  16  17
ENDBRANCH   1  16
TORSDOF 6
ENDMDL
MODEL 4
REMARK VINA RESULT:      -7.3      3.787      4.677
REMARK  Name = 
REMARK  7 active torsions:
REMARK  status: ('A' for Active; 'I' for Inactive)
REMARK    1  A    between atoms: C_1  and  O_2
REMARK    2  A    between atoms: O_2  and  C_3
REMARK    3  A    between atoms: C_3  and  C_5
REMARK    4  A    between atoms: C_5  and  O_6
REMARK    5  A    between atoms: O_6  and  C_7
REMARK    6  A    between atoms: C_10  and  C_11
REMARK    7  A    between atoms: C_19  and  C_20
REMARK                            x       y       z     vdW  Elec       q    Type
REMARK                         _______ _______ _______ _____ _____    ______ ____
ROOT
ATOM      1  C   UNL     1       4.406   4.968  16.886  0.00  0.00    +0.000 A 
ATOM      2  C   UNL     1       4.738   6.324  16.778  0.00  0.00    +0.000 A 
ATOM      3  C   UNL     1       3.967   7.321  17.395  0.00  0.00    +0.000 A 
ATOM      4  C   UNL     1       2.823   7.001  18.139  0.00  0.00    +0.000 A 
ATOM      5  C   UNL     1       2.494   5.637  18.227  0.00  0.00    +0.000 A 
ATOM      6  C   UNL     1       3.281   4.624  17.642  0.00  0.00    +0.000 A 
ENDROOT
BRANCH   4   7
ATOM      7  C   UNL     1       2.016   8.038  18.832  0.00  0.00    +0.000 A 
ATOM      8  C   UNL     1       1.769   7.982  20.217  0.00  0.00    +0.000 A 
ATOM      9  C   UNL     1       0.998   8.956  20.863  0.00  0.00    +0.000 A 
ATOM     10  C   UNL     1       0.475  10.012  20.134  0.00  0.00    +0.000 A 
ATOM     11  F   UNL     1      -0.255  10.949  20.754  0.00  0.00    +0.000 F 
ATOM     12  C   UNL     1       0.700  10.110  18.771  0.00  0.00    +0.000 A 
ATOM     13  C   UNL     1       1.459   9.126  18.126  0.00  0.00    +0.000 A 
ENDBRANCH   4   7
BRANCH   6  14
ATOM     14  C   UNL     1       2.875   3.237  17.966  0.00  0.00    +0.000 C 
ATOM     15  O   UNL     1       2.160   2.571  17.220  0.00  0.00    +0.000 OA
ENDBRANCH   6  14
BRANCH   1  16
ATOM     16  O   UNL     1       5.322   4.153  16.280  0.00  0.00    +0.000 OA
BRANCH  16  17
ATOM     17  C   UNL     1       6.639   4.645  16.077  0.00  0.00    +0.000 C 
BRANCH  17  18
ATOM     18  C   UNL     1       7.042   4.641  14.609  0.00  0.00    +0.000 C 
ATOM     19  O   UNL     1       7.835   5.401  14.074  0.00  0.00    +0.000 OA
BRANCH  18  21
ATOM     20  C   UNL     1       6.389   3.714  12.553  0.00  0.00    +0.000 C 
ATOM     21  O   UNL     1       6.378   3.625  13.978  0.00  0.00    +0.000 OA
ENDBRANCH  18  21
ENDBRANCH  17  18
ENDBRANCH  16  17
ENDBRANCH   1  16
TORSDOF 6
ENDMDL
MODEL 5
REMARK VINA RESULT:      -7.0      3.990      7.443
REMARK  Name = 
REMARK  7 active torsions:
REMARK  status: ('A' for Active; 'I' for Inactive)
REMARK    1  A    between atoms: C_1  and  O_2
REMARK    2  A    between atoms: O_2  and  C_3
REMARK    3  A    between atoms: C_3  and  C_5
REMARK    4  A    between atoms: C_5  and  O_6
REMARK    5  A    between atoms: O_6  and  C_7
REMARK    6  A    between atoms: C_10  and  C_11
REMARK    7  A    between atoms: C_19  and  C_20
REMARK                            x       y       z     vdW  Elec       q    Type
REMARK                         _______ _______ _______ _____ _____    ______ ____
ROOT
ATOM      1  C   UNL     1       4.619   4.647  18.839  0.00  0.00    +0.000 A 
ATOM      2  C   UNL     1       3.827   4.131  17.807  0.00  0.00    +0.000 A 
ATOM      3  C   UNL     1       4.295   4.063  16.485  0.00  0.00    +0.000 A 
ATOM      4  C   UNL     1       5.574   4.520  16.141  0.00  0.00    +0.000 A 
ATOM      5  C   UNL     1       6.352   5.049  17.185  0.00  0.00    +0.000 A 
ATOM      6  C   UNL     1       5.907   5.090  18.523  0.00  0.00    +0.000 A 
ENDROOT
BRANCH   4   7
ATOM      7  C   UNL     1       6.102   4.421  14.755  0.00  0.00    +0.000 A 
ATOM      8  C   UNL     1       7.236   5.145  14.340  0.00  0.00    +0.000 A 
ATOM      9  C   UNL     1       7.722   5.056  13.031  0.00  0.00    +0.000 A 
ATOM     10  C   UNL     1       7.088   4.228  12.118  0.00  0.00    +0.000 A 
ATOM     11  F   UNL     1       7.559   4.137  10.867  0.00  0.00    +0.000 F 
ATOM     12  C   UNL     1       5.973   3.493  12.486  0.00  0.00    +0.000 A 
ATOM     13  C   UNL     1       5.481   3.596  13.792  0.00  0.00    +0.000 A 
ENDBRANCH   4   7
BRANCH   6  14
ATOM     14  C   UNL     1       6.913   5.534  19.514  0.00  0.00    +0.000 C 
ATOM     15  O   UNL     1       8.086   5.169  19.468  0.00  0.00    +0.000 OA
ENDBRANCH   6  14
BRANCH   1  16
ATOM     16  O   UNL     1       4.013   4.556  20.061  0.00  0.00    +0.000 OA
BRANCH  16  17
ATOM     17  C   UNL     1       2.601   4.410  20.110  0.00  0.00    +0.000 C 
BRANCH  17  18
ATOM     18  C   UNL     1       2.165   3.257  21.002  0.00  0.00    +0.000 C 
ATOM     19  O   UNL     1       2.182   3.238  22.224  0.00  0.00    +0.000 OA
BRANCH  18  21
ATOM     20  C   UNL     1       0.814   2.637  19.184  0.00  0.00    +0.000 C 
ATOM     21  O   UNL     1       1.726   2.234  20.206  0.00  0.00    +0.000 OA
ENDBRANCH  18  21
ENDBRANCH  17  18
ENDBRANCH  16  17
ENDBRANCH   1  16
TORSDOF 6
ENDMDL
MODEL 6
REMARK VINA RESULT:      -6.9      3.915      4.874
REMARK  Name = 
REMARK  7 active torsions:
REMARK  status: ('A' for Active; 'I' for Inactive)
REMARK    1  A    between atoms: C_1  and  O_2
REMARK    2  A    between atoms: O_2  and  C_3
REMARK    3  A    between atoms: C_3  and  C_5
REMARK    4  A    between atoms: C_5  and  O_6
REMARK    5  A    between atoms: O_6  and  C_7
REMARK    6  A    between atoms: C_10  and  C_11
REMARK    7  A    between atoms: C_19  and  C_20
REMARK                            x       y       z     vdW  Elec       q    Type
REMARK                         _______ _______ _______ _____ _____    ______ ____
ROOT
ATOM      1  C   UNL     1       4.248   4.876  17.936  0.00  0.00    +0.000 A 
ATOM      2  C   UNL     1       4.229   6.151  17.359  0.00  0.00    +0.000 A 
ATOM      3  C   UNL     1       3.425   7.180  17.876  0.00  0.00    +0.000 A 
ATOM      4  C   UNL     1       2.598   6.969  18.986  0.00  0.00    +0.000 A 
ATOM      5  C   UNL     1       2.616   5.679  19.546  0.00  0.00    +0.000 A 
ATOM      6  C   UNL     1       3.446   4.649  19.058  0.00  0.00    +0.000 A 
ENDROOT
BRANCH   4   7
ATOM      7  C   UNL     1       1.769   8.055  19.572  0.00  0.00    +0.000 A 
ATOM      8  C   UNL     1       1.331   8.014  20.910  0.00  0.00    +0.000 A 
ATOM      9  C   UNL     1       0.542   9.035  21.452  0.00  0.00    +0.000 A 
ATOM     10  C   UNL     1       0.190  10.121  20.668  0.00  0.00    +0.000 A 
ATOM     11  F   UNL     1      -0.558  11.102  21.190  0.00  0.00    +0.000 F 
ATOM     12  C   UNL     1       0.606  10.205  19.348  0.00  0.00    +0.000 A 
ATOM     13  C   UNL     1       1.383   9.176  18.805  0.00  0.00    +0.000 A 
ENDBRANCH   4   7
BRANCH   6  14
ATOM     14  C   UNL     1       3.454   3.405  19.862  0.00  0.00    +0.000 C 
ATOM     15  O   UNL     1       2.434   2.751  20.070  0.00  0.00    +0.000 OA
ENDBRANCH   6  14
BRANCH   1  16
ATOM     16  O   UNL     1       5.150   4.042  17.335  0.00  0.00    +0.000 OA
BRANCH  16  17
ATOM     17  C   UNL     1       5.698   4.423  16.082  0.00  0.00    +0.000 C 
BRANCH  17  18
ATOM     18  C   UNL     1       7.203   4.642  16.147  0.00  0.00    +0.000 C 
ATOM     19  O   UNL     1       7.936   4.365  17.084  0.00  0.00    +0.000 OA
BRANCH  18  21
ATOM     20  C   UNL     1       6.898   4.719  13.820  0.00  0.00    +0.000 C 
ATOM     21  O   UNL     1       7.614   5.190  14.962  0.00  0.00    +0.000 OA
ENDBRANCH  18  21
ENDBRANCH  17  18
ENDBRANCH  16  17
ENDBRANCH   1  16
TORSDOF 6
ENDMDL
MODEL 7
REMARK VINA RESULT:      -6.9      3.319      4.204
REMARK  Name = 
REMARK  7 active torsions:
REMARK  status: ('A' for Active; 'I' for Inactive)
REMARK    1  A    between atoms: C_1  and  O_2
REMARK    2  A    between atoms: O_2  and  C_3
REMARK    3  A    between atoms: C_3  and  C_5
REMARK    4  A    between atoms: C_5  and  O_6
REMARK    5  A    between atoms: O_6  and  C_7
REMARK    6  A    between atoms: C_10  and  C_11
REMARK    7  A    between atoms: C_19  and  C_20
REMARK                            x       y       z     vdW  Elec       q    Type
REMARK                         _______ _______ _______ _____ _____    ______ ____
ROOT
ATOM      1  C   UNL     1       5.138   4.506  16.035  0.00  0.00    +0.000 A 
ATOM      2  C   UNL     1       5.292   5.889  15.886  0.00  0.00    +0.000 A 
ATOM      3  C   UNL     1       4.510   6.799  16.615  0.00  0.00    +0.000 A 
ATOM      4  C   UNL     1       3.532   6.359  17.517  0.00  0.00    +0.000 A 
ATOM      5  C   UNL     1       3.378   4.967  17.645  0.00  0.00    +0.000 A 
ATOM      6  C   UNL     1       4.183   4.044  16.945  0.00  0.00    +0.000 A 
ENDROOT
BRANCH   4   7
ATOM      7  C   UNL     1       2.721   7.305  18.327  0.00  0.00    +0.000 A 
ATOM      8  C   UNL     1       2.394   7.039  19.670  0.00  0.00    +0.000 A 
ATOM      9  C   UNL     1       1.621   7.929  20.425  0.00  0.00    +0.000 A 
ATOM     10  C   UNL     1       1.174   9.108  19.850  0.00  0.00    +0.000 A 
ATOM     11  F   UNL     1       0.440   9.963  20.575  0.00  0.00    +0.000 F 
ATOM     12  C   UNL     1       1.478   9.411  18.532  0.00  0.00    +0.000 A 
ATOM     13  C   UNL     1       2.239   8.513  17.777  0.00  0.00    +0.000 A 
ENDBRANCH   4   7
BRANCH   6  14
ATOM     14  C   UNL     1       3.990   2.624  17.318  0.00  0.00    +0.000 C 
ATOM     15  O   UNL     1       3.174   2.272  18.167  0.00  0.00    +0.000 OA
ENDBRANCH   6  14
BRANCH   1  16
ATOM     16  O   UNL     1       6.043   3.795  15.297  0.00  0.00    +0.000 OA
BRANCH  16  17
ATOM     17  C   UNL     1       6.578   4.388  14.123  0.00  0.00    +0.000 C 
BRANCH  17  18
ATOM     18  C   UNL     1       6.169   3.648  12.857  0.00  0.00    +0.000 C 
ATOM     19  O   UNL     1       6.921   3.120  12.052  0.00  0.00    +0.000 OA
BRANCH  18  21
ATOM     20  C   UNL     1       4.294   3.269  11.495  0.00  0.00    +0.000 C 
ATOM     21  O   UNL     1       4.803   3.653  12.773  0.00  0.00    +0.000 OA
ENDBRANCH  18  21
ENDBRANCH  17  18
ENDBRANCH  16  17
ENDBRANCH   1  16
TORSDOF 6
ENDMDL
MODEL 8
REMARK VINA RESULT:      -6.9      0.787      1.311
REMARK  Name = 
REMARK  7 active torsions:
REMARK  status: ('A' for Active; 'I' for Inactive)
REMARK    1  A    between atoms: C_1  and  O_2
REMARK    2  A    between atoms: O_2  and  C_3
REMARK    3  A    between atoms: C_3  and  C_5
REMARK    4  A    between atoms: C_5  and  O_6
REMARK    5  A    between atoms: O_6  and  C_7
REMARK    6  A    between atoms: C_10  and  C_11
REMARK    7  A    between atoms: C_19  and  C_20
REMARK                            x       y       z     vdW  Elec       q    Type
REMARK                         _______ _______ _______ _____ _____    ______ ____
ROOT
ATOM      1  C   UNL     1       6.007   5.303  16.741  0.00  0.00    +0.000 A 
ATOM      2  C   UNL     1       4.701   4.951  16.384  0.00  0.00    +0.000 A 
ATOM      3  C   UNL     1       3.796   4.432  17.324  0.00  0.00    +0.000 A 
ATOM      4  C   UNL     1       4.168   4.234  18.660  0.00  0.00    +0.000 A 
ATOM      5  C   UNL     1       5.488   4.578  19.001  0.00  0.00    +0.000 A 
ATOM      6  C   UNL     1       6.394   5.134  18.074  0.00  0.00    +0.000 A 
ENDROOT
BRANCH   4   7
ATOM      7  C   UNL     1       3.214   3.723  19.679  0.00  0.00    +0.000 A 
ATOM      8  C   UNL     1       3.599   2.776  20.646  0.00  0.00    +0.000 A 
ATOM      9  C   UNL     1       2.693   2.290  21.596  0.00  0.00    +0.000 A 
ATOM     10  C   UNL     1       1.388   2.756  21.601  0.00  0.00    +0.000 A 
ATOM     11  F   UNL     1       0.523   2.297  22.515  0.00  0.00    +0.000 F 
ATOM     12  C   UNL     1       0.969   3.694  20.671  0.00  0.00    +0.000 A 
ATOM     13  C   UNL     1       1.874   4.166  19.714  0.00  0.00    +0.000 A 
ENDBRANCH   4   7
BRANCH   6  14
ATOM     14  C   UNL     1       7.688   5.580  18.640  0.00  0.00    +0.000 C 
ATOM     15  O   UNL     1       7.963   5.452  19.832  0.00  0.00    +0.000 OA
ENDBRANCH   6  14
BRANCH   1  16
ATOM     16  O   UNL     1       6.703   5.859  15.704  0.00  0.00    +0.000 OA
BRANCH  16  17
ATOM     17  C   UNL     1       7.644   5.054  15.008  0.00  0.00    +0.000 C 
BRANCH  17  18
ATOM     18  C   UNL     1       7.308   4.912  13.530  0.00  0.00    +0.000 C 
ATOM     19  O   UNL     1       7.842   5.506  12.605  0.00  0.00    +0.000 OA
BRANCH  18  21
ATOM     20  C   UNL     1       6.289   3.325  12.131  0.00  0.00    +0.000 C 
ATOM     21  O   UNL     1       6.311   3.984  13.397  0.00  0.00    +0.000 OA
ENDBRANCH  18  21
ENDBRANCH  17  18
ENDBRANCH  16  17
ENDBRANCH   1  16
TORSDOF 6
ENDMDL
MODEL 9
REMARK VINA RESULT:      -6.9      4.406      7.623
REMARK  Name = 
REMARK  7 active torsions:
REMARK  status: ('A' for Active; 'I' for Inactive)
REMARK    1  A    between atoms: C_1  and  O_2
REMARK    2  A    between atoms: O_2  and  C_3
REMARK    3  A    between atoms: C_3  and  C_5
REMARK    4  A    between atoms: C_5  and  O_6
REMARK    5  A    between atoms: O_6  and  C_7
REMARK    6  A    between atoms: C_10  and  C_11
REMARK    7  A    between atoms: C_19  and  C_20
REMARK                            x       y       z     vdW  Elec       q    Type
REMARK                         _______ _______ _______ _____ _____    ______ ____
ROOT
ATOM      1  C   UNL     1       3.988   4.950  18.958  0.00  0.00    +0.000 A 
ATOM      2  C   UNL     1       4.091   6.046  18.094  0.00  0.00    +0.000 A 
ATOM      3  C   UNL     1       4.686   5.930  16.827  0.00  0.00    +0.000 A 
ATOM      4  C   UNL     1       5.214   4.712  16.380  0.00  0.00    +0.000 A 
ATOM      5  C   UNL     1       5.117   3.624  17.264  0.00  0.00    +0.000 A 
ATOM      6  C   UNL     1       4.489   3.719  18.523  0.00  0.00    +0.000 A 
ENDROOT
BRANCH   4   7
ATOM      7  C   UNL     1       5.813   4.560  15.028  0.00  0.00    +0.000 A 
ATOM      8  C   UNL     1       5.170   3.830  14.010  0.00  0.00    +0.000 A 
ATOM      9  C   UNL     1       5.745   3.680  12.743  0.00  0.00    +0.000 A 
ATOM     10  C   UNL     1       6.967   4.274  12.469  0.00  0.00    +0.000 A 
ATOM     11  F   UNL     1       7.512   4.138  11.252  0.00  0.00    +0.000 F 
ATOM     12  C   UNL     1       7.630   5.007  13.439  0.00  0.00    +0.000 A 
ATOM     13  C   UNL     1       7.060   5.141  14.710  0.00  0.00    +0.000 A 
ENDBRANCH   4   7
BRANCH   6  14
ATOM     14  C   UNL     1       4.338   2.441  19.256  0.00  0.00    +0.000 C 
ATOM     15  O   UNL     1       3.825   1.447  18.746  0.00  0.00    +0.000 OA
ENDBRANCH   6  14
BRANCH   1  16
ATOM     16  O   UNL     1       3.309   5.249  20.107  0.00  0.00    +0.000 OA
BRANCH  16  17
ATOM     17  C   UNL     1       1.924   4.947  20.176  0.00  0.00    +0.000 C 
BRANCH  17  18
ATOM     18  C   UNL     1       1.634   3.742  21.061  0.00  0.00    +0.000 C 
ATOM     19  O   UNL     1       2.161   3.487  22.134  0.00  0.00    +0.000 OA
BRANCH  18  21
ATOM     20  C   UNL     1       0.738   2.955  19.038  0.00  0.00    +0.000 C 
ATOM     21  O   UNL     1       0.661   2.988  20.464  0.00  0.00    +0.000 OA
ENDBRANCH  18  21
ENDBRANCH  17  18
ENDBRANCH  16  17
ENDBRANCH   1  16
TORSDOF 6
ENDMDL
