MODEL 1
REMARK VINA RESULT:      -7.4      0.000      0.000
REMARK  Name = 
REMARK  9 active torsions:
REMARK  status: ('A' for Active; 'I' for Inactive)
REMARK    1  A    between atoms: C_1  and  C_2
REMARK    2  A    between atoms: C_2  and  C_3
REMARK    3  A    between atoms: C_3  and  C_4
REMARK    4  A    between atoms: C_4  and  C_5
REMARK    5  A    between atoms: C_5  and  C_6
REMARK    6  A    between atoms: C_6  and  C_7
REMARK    7  A    between atoms: C_7  and  C_8
REMARK    8  A    between atoms: C_11  and  C_12
REMARK    9  A    between atoms: N_14  and  C_15
REMARK                            x       y       z     vdW  Elec       q    Type
REMARK                         _______ _______ _______ _____ _____    ______ ____
ROOT
ATOM      1  C   UNL     1       5.447   4.595  15.843  0.00  0.00    +0.000 A 
ATOM      2  C   UNL     1       5.468   5.977  16.058  0.00  0.00    +0.000 A 
ATOM      3  C   UNL     1       4.601   6.556  16.979  0.00  0.00    +0.000 A 
ATOM      4  C   UNL     1       3.694   5.767  17.698  0.00  0.00    +0.000 A 
ATOM      5  C   UNL     1       3.659   4.386  17.491  0.00  0.00    +0.000 A 
ATOM      6  C   UNL     1       4.536   3.805  16.565  0.00  0.00    +0.000 A 
ENDROOT
BRANCH   4   7
ATOM      7  C   UNL     1       2.726   6.483  18.568  0.00  0.00    +0.000 C 
ATOM      8  O   UNL     1       2.132   5.806  19.401  0.00  0.00    +0.000 OA
ATOM      9  N   UNL     1       2.528   7.834  18.327  0.00  0.00    +0.000 N 
ATOM     10  H   UNL     1       2.920   8.222  17.478  0.00  0.00    +0.000 HD
BRANCH   9  11
ATOM     11  C   UNL     1       1.639   8.654  19.067  0.00  0.00    +0.000 A 
ATOM     12  C   UNL     1       1.458   8.513  20.451  0.00  0.00    +0.000 A 
ATOM     13  C   UNL     1       0.538   9.300  21.142  0.00  0.00    +0.000 A 
ATOM     14  C   UNL     1      -0.206  10.246  20.457  0.00  0.00    +0.000 A 
ATOM     15  F   UNL     1      -1.097  10.981  21.137  0.00  0.00    +0.000 F 
ATOM     16  C   UNL     1      -0.022  10.423  19.087  0.00  0.00    +0.000 A 
ATOM     17 CL   UNL     1      -0.948  11.598  18.234  0.00  0.00    +0.000 Cl
ATOM     18  C   UNL     1       0.907   9.638  18.391  0.00  0.00    +0.000 A 
ENDBRANCH   9  11
ENDBRANCH   4   7
BRANCH   1  19
ATOM     19  C   UNL     1       6.384   3.972  14.836  0.00  0.00    +0.000 C 
BRANCH  19  20
ATOM     20  C   UNL     1       6.702   4.878  13.641  0.00  0.00    +0.000 C 
BRANCH  20  21
ATOM     21  C   UNL     1       6.744   4.120  12.312  0.00  0.00    +0.000 C 
BRANCH  21  22
ATOM     22  C   UNL     1       5.996   2.791  12.420  0.00  0.00    +0.000 C 
BRANCH  22  23
ATOM     23  C   UNL     1       5.048   2.591  11.239  0.00  0.00    +0.000 C 
BRANCH  23  25
ATOM     24  C   UNL     1       3.111   3.577   9.969  0.00  0.00    +0.000 C 
ATOM     25  C   UNL     1       3.948   3.652  11.236  0.00  0.00    +0.000 C 
ENDBRANCH  23  25
ENDBRANCH  22  23
ENDBRANCH  21  22
ENDBRANCH  20  21
ENDBRANCH  19  20
ENDBRANCH   1  19
TORSDOF 8
ENDMDL
MODEL 2
REMARK VINA RESULT:      -7.2      3.930      5.278
REMARK  Name = 
REMARK  9 active torsions:
REMARK  status: ('A' for Active; 'I' for Inactive)
REMARK    1  A    between atoms: C_1  and  C_2
REMARK    2  A    between atoms: C_2  and  C_3
REMARK    3  A    between atoms: C_3  and  C_4
REMARK    4  A    between atoms: C_4  and  C_5
REMARK    5  A    between atoms: C_5  and  C_6
REMARK    6  A    between atoms: C_6  and  C_7
REMARK    7  A    between atoms: C_7  and  C_8
REMARK    8  A    between atoms: C_11  and  C_12
REMARK    9  A    between atoms: N_14  and  C_15
REMARK                            x       y       z     vdW  Elec       q    Type
REMARK                         _______ _______ _______ _____ _____    ______ ____
ROOT
ATOM      1  C   UNL     1       3.794   5.885  18.293  0.00  0.00    +0.000 A 
ATOM      2  C   UNL     1       3.785   6.931  17.364  0.00  0.00    +0.000 A 
ATOM      3  C   UNL     1       3.035   8.076  17.606  0.00  0.00    +0.000 A 
ATOM      4  C   UNL     1       2.274   8.196  18.776  0.00  0.00    +0.000 A 
ATOM      5  C   UNL     1       2.271   7.160  19.711  0.00  0.00    +0.000 A 
ATOM      6  C   UNL     1       3.030   6.008  19.467  0.00  0.00    +0.000 A 
ENDROOT
BRANCH   4   7
ATOM      7  C   UNL     1       1.410   9.400  18.893  0.00  0.00    +0.000 C 
ATOM      8  O   UNL     1       1.696  10.352  18.175  0.00  0.00    +0.000 OA
ATOM      9  N   UNL     1       0.400   9.371  19.842  0.00  0.00    +0.000 N 
ATOM     10  H   UNL     1       0.405   8.611  20.513  0.00  0.00    +0.000 HD
BRANCH   9  11
ATOM     11  C   UNL     1      -0.505  10.438  20.077  0.00  0.00    +0.000 A 
ATOM     12  C   UNL     1      -1.419  10.877  19.109  0.00  0.00    +0.000 A 
ATOM     13  C   UNL     1      -2.260  11.962  19.351  0.00  0.00    +0.000 A 
ATOM     14  C   UNL     1      -2.202  12.616  20.570  0.00  0.00    +0.000 A 
ATOM     15  F   UNL     1      -3.008  13.667  20.778  0.00  0.00    +0.000 F 
ATOM     16  C   UNL     1      -1.322  12.178  21.557  0.00  0.00    +0.000 A 
ATOM     17 CL   UNL     1      -1.248  12.990  23.074  0.00  0.00    +0.000 Cl
ATOM     18  C   UNL     1      -0.480  11.083  21.319  0.00  0.00    +0.000 A 
ENDBRANCH   9  11
ENDBRANCH   4   7
BRANCH   1  19
ATOM     19  C   UNL     1       4.604   4.639  18.023  0.00  0.00    +0.000 C 
BRANCH  19  20
ATOM     20  C   UNL     1       4.254   3.461  18.940  0.00  0.00    +0.000 C 
BRANCH  20  21
ATOM     21  C   UNL     1       3.501   2.344  18.213  0.00  0.00    +0.000 C 
BRANCH  21  22
ATOM     22  C   UNL     1       2.271   1.909  19.009  0.00  0.00    +0.000 C 
BRANCH  22  23
ATOM     23  C   UNL     1       1.134   2.918  18.870  0.00  0.00    +0.000 C 
BRANCH  23  25
ATOM     24  C   UNL     1       1.445   2.763  21.364  0.00  0.00    +0.000 C 
ATOM     25  C   UNL     1       0.748   3.497  20.230  0.00  0.00    +0.000 C 
ENDBRANCH  23  25
ENDBRANCH  22  23
ENDBRANCH  21  22
ENDBRANCH  20  21
ENDBRANCH  19  20
ENDBRANCH   1  19
TORSDOF 8
ENDMDL
MODEL 3
REMARK VINA RESULT:      -7.2      4.630      6.868
REMARK  Name = 
REMARK  9 active torsions:
REMARK  status: ('A' for Active; 'I' for Inactive)
REMARK    1  A    between atoms: C_1  and  C_2
REMARK    2  A    between atoms: C_2  and  C_3
REMARK    3  A    between atoms: C_3  and  C_4
REMARK    4  A    between atoms: C_4  and  C_5
REMARK    5  A    between atoms: C_5  and  C_6
REMARK    6  A    between atoms: C_6  and  C_7
REMARK    7  A    between atoms: C_7  and  C_8
REMARK    8  A    between atoms: C_11  and  C_12
REMARK    9  A    between atoms: N_14  and  C_15
REMARK                            x       y       z     vdW  Elec       q    Type
REMARK                         _______ _______ _______ _____ _____    ______ ____
ROOT
ATOM      1  C   UNL     1       1.873   8.146  19.201  0.00  0.00    +0.000 A 
ATOM      2  C   UNL     1       1.738   7.703  20.521  0.00  0.00    +0.000 A 
ATOM      3  C   UNL     1       1.045   8.471  21.450  0.00  0.00    +0.000 A 
ATOM      4  C   UNL     1       0.480   9.700  21.081  0.00  0.00    +0.000 A 
ATOM      5  C   UNL     1       0.610  10.156  19.768  0.00  0.00    +0.000 A 
ATOM      6  C   UNL     1       1.307   9.378  18.833  0.00  0.00    +0.000 A 
ENDROOT
BRANCH   4   7
ATOM      7  C   UNL     1      -0.135  10.507  22.166  0.00  0.00    +0.000 C 
ATOM      8  O   UNL     1       0.103  10.153  23.315  0.00  0.00    +0.000 OA
ATOM      9  N   UNL     1      -0.972  11.547  21.791  0.00  0.00    +0.000 N 
ATOM     10  H   UNL     1      -1.252  11.599  20.819  0.00  0.00    +0.000 HD
BRANCH   9  11
ATOM     11  C   UNL     1      -1.634  12.406  22.705  0.00  0.00    +0.000 A 
ATOM     12  C   UNL     1      -2.907  12.119  23.221  0.00  0.00    +0.000 A 
ATOM     13  C   UNL     1      -3.555  13.008  24.078  0.00  0.00    +0.000 A 
ATOM     14  C   UNL     1      -2.931  14.192  24.437  0.00  0.00    +0.000 A 
ATOM     15  F   UNL     1      -3.577  15.040  25.249  0.00  0.00    +0.000 F 
ATOM     16  C   UNL     1      -1.655  14.483  23.960  0.00  0.00    +0.000 A 
ATOM     17 CL   UNL     1      -0.879  15.955  24.405  0.00  0.00    +0.000 Cl
ATOM     18  C   UNL     1      -0.999  13.588  23.103  0.00  0.00    +0.000 A 
ENDBRANCH   9  11
ENDBRANCH   4   7
BRANCH   1  19
ATOM     19  C   UNL     1       2.634   7.313  18.197  0.00  0.00    +0.000 C 
BRANCH  19  20
ATOM     20  C   UNL     1       2.764   5.836  18.588  0.00  0.00    +0.000 C 
BRANCH  20  21
ATOM     21  C   UNL     1       1.736   4.943  17.891  0.00  0.00    +0.000 C 
BRANCH  21  22
ATOM     22  C   UNL     1       2.346   3.588  17.532  0.00  0.00    +0.000 C 
BRANCH  22  23
ATOM     23  C   UNL     1       2.090   2.556  18.628  0.00  0.00    +0.000 C 
BRANCH  23  25
ATOM     24  C   UNL     1       1.239   2.951  20.964  0.00  0.00    +0.000 C 
ATOM     25  C   UNL     1       0.890   2.955  19.485  0.00  0.00    +0.000 C 
ENDBRANCH  23  25
ENDBRANCH  22  23
ENDBRANCH  21  22
ENDBRANCH  20  21
ENDBRANCH  19  20
ENDBRANCH   1  19
TORSDOF 8
ENDMDL
MODEL 4
REMARK VINA RESULT:      -7.2      1.547      2.181
REMARK  Name = 
REMARK  9 active torsions:
REMARK  status: ('A' for Active; 'I' for Inactive)
REMARK    1  A    between atoms: C_1  and  C_2
REMARK    2  A    between atoms: C_2  and  C_3
REMARK    3  A    between atoms: C_3  and  C_4
REMARK    4  A    between atoms: C_4  and  C_5
REMARK    5  A    between atoms: C_5  and  C_6
REMARK    6  A    between atoms: C_6  and  C_7
REMARK    7  A    between atoms: C_7  and  C_8
REMARK    8  A    between atoms: C_11  and  C_12
REMARK    9  A    between atoms: N_14  and  C_15
REMARK                            x       y       z     vdW  Elec       q    Type
REMARK                         _______ _______ _______ _____ _____    ______ ____
ROOT
ATOM      1  C   UNL     1       4.190   5.279  17.311  0.00  0.00    +0.000 A 
ATOM      2  C   UNL     1       4.639   6.560  16.972  0.00  0.00    +0.000 A 
ATOM      3  C   UNL     1       3.908   7.682  17.348  0.00  0.00    +0.000 A 
ATOM      4  C   UNL     1       2.712   7.545  18.065  0.00  0.00    +0.000 A 
ATOM      5  C   UNL     1       2.249   6.273  18.407  0.00  0.00    +0.000 A 
ATOM      6  C   UNL     1       2.989   5.145  18.029  0.00  0.00    +0.000 A 
ENDROOT
BRANCH   4   7
ATOM      7  C   UNL     1       1.937   8.788  18.318  0.00  0.00    +0.000 C 
ATOM      8  O   UNL     1       2.038   9.677  17.479  0.00  0.00    +0.000 OA
ATOM      9  N   UNL     1       1.222   8.864  19.503  0.00  0.00    +0.000 N 
ATOM     10  H   UNL     1       1.394   8.152  20.203  0.00  0.00    +0.000 HD
BRANCH   9  11
ATOM     11  C   UNL     1       0.438   9.981  19.890  0.00  0.00    +0.000 A 
ATOM     12  C   UNL     1       0.757  10.776  21.000  0.00  0.00    +0.000 A 
ATOM     13  C   UNL     1      -0.063  11.837  21.386  0.00  0.00    +0.000 A 
ATOM     14  C   UNL     1      -1.207  12.119  20.659  0.00  0.00    +0.000 A 
ATOM     15  F   UNL     1      -1.990  13.132  21.056  0.00  0.00    +0.000 F 
ATOM     16  C   UNL     1      -1.527  11.359  19.536  0.00  0.00    +0.000 A 
ATOM     17 CL   UNL     1      -2.951  11.709  18.632  0.00  0.00    +0.000 Cl
ATOM     18  C   UNL     1      -0.702  10.297  19.141  0.00  0.00    +0.000 A 
ENDBRANCH   9  11
ENDBRANCH   4   7
BRANCH   1  19
ATOM     19  C   UNL     1       4.982   4.064  16.892  0.00  0.00    +0.000 C 
BRANCH  19  20
ATOM     20  C   UNL     1       5.949   4.323  15.731  0.00  0.00    +0.000 C 
BRANCH  20  21
ATOM     21  C   UNL     1       5.321   4.052  14.362  0.00  0.00    +0.000 C 
BRANCH  21  22
ATOM     22  C   UNL     1       6.394   3.698  13.332  0.00  0.00    +0.000 C 
BRANCH  22  23
ATOM     23  C   UNL     1       5.773   3.134  12.056  0.00  0.00    +0.000 C 
BRANCH  23  25
ATOM     24  C   UNL     1       3.640   3.002  10.725  0.00  0.00    +0.000 C 
ATOM     25  C   UNL     1       4.415   3.776  11.778  0.00  0.00    +0.000 C 
ENDBRANCH  23  25
ENDBRANCH  22  23
ENDBRANCH  21  22
ENDBRANCH  20  21
ENDBRANCH  19  20
ENDBRANCH   1  19
TORSDOF 8
ENDMDL
MODEL 5
REMARK VINA RESULT:      -7.2      4.685      7.049
REMARK  Name = 
REMARK  9 active torsions:
REMARK  status: ('A' for Active; 'I' for Inactive)
REMARK    1  A    between atoms: C_1  and  C_2
REMARK    2  A    between atoms: C_2  and  C_3
REMARK    3  A    between atoms: C_3  and  C_4
REMARK    4  A    between atoms: C_4  and  C_5
REMARK    5  A    between atoms: C_5  and  C_6
REMARK    6  A    between atoms: C_6  and  C_7
REMARK    7  A    between atoms: C_7  and  C_8
REMARK    8  A    between atoms: C_11  and  C_12
REMARK    9  A    between atoms: N_14  and  C_15
REMARK                            x       y       z     vdW  Elec       q    Type
REMARK                         _______ _______ _______ _____ _____    ______ ____
ROOT
ATOM      1  C   UNL     1       1.901   8.357  18.920  0.00  0.00    +0.000 A 
ATOM      2  C   UNL     1       1.841   7.911  20.244  0.00  0.00    +0.000 A 
ATOM      3  C   UNL     1       1.162   8.653  21.204  0.00  0.00    +0.000 A 
ATOM      4  C   UNL     1       0.535   9.858  20.861  0.00  0.00    +0.000 A 
ATOM      5  C   UNL     1       0.589  10.318  19.544  0.00  0.00    +0.000 A 
ATOM      6  C   UNL     1       1.272   9.566  18.578  0.00  0.00    +0.000 A 
ENDROOT
BRANCH   4   7
ATOM      7  C   UNL     1      -0.061  10.644  21.973  0.00  0.00    +0.000 C 
ATOM      8  O   UNL     1       0.206  10.273  23.111  0.00  0.00    +0.000 OA
ATOM      9  N   UNL     1      -0.914  11.683  21.635  0.00  0.00    +0.000 N 
ATOM     10  H   UNL     1      -1.217  11.748  20.670  0.00  0.00    +0.000 HD
BRANCH   9  11
ATOM     11  C   UNL     1      -1.562  12.521  22.577  0.00  0.00    +0.000 A 
ATOM     12  C   UNL     1      -1.021  13.745  22.995  0.00  0.00    +0.000 A 
ATOM     13  C   UNL     1      -1.656  14.523  23.962  0.00  0.00    +0.000 A 
ATOM     14  C   UNL     1      -2.849  14.088  24.516  0.00  0.00    +0.000 A 
ATOM     15  F   UNL     1      -3.436  14.842  25.456  0.00  0.00    +0.000 F 
ATOM     16  C   UNL     1      -3.420  12.889  24.095  0.00  0.00    +0.000 A 
ATOM     17 CL   UNL     1      -4.902  12.346  24.784  0.00  0.00    +0.000 Cl
ATOM     18  C   UNL     1      -2.786  12.108  23.118  0.00  0.00    +0.000 A 
ENDBRANCH   9  11
ENDBRANCH   4   7
BRANCH   1  19
ATOM     19  C   UNL     1       2.647   7.552  17.883  0.00  0.00    +0.000 C 
BRANCH  19  20
ATOM     20  C   UNL     1       3.557   6.469  18.474  0.00  0.00    +0.000 C 
BRANCH  20  21
ATOM     21  C   UNL     1       3.147   5.054  18.059  0.00  0.00    +0.000 C 
BRANCH  21  22
ATOM     22  C   UNL     1       3.249   4.089  19.239  0.00  0.00    +0.000 C 
BRANCH  22  23
ATOM     23  C   UNL     1       2.566   4.658  20.481  0.00  0.00    +0.000 C 
BRANCH  23  25
ATOM     24  C   UNL     1       1.435   2.633  21.461  0.00  0.00    +0.000 C 
ATOM     25  C   UNL     1       1.234   3.957  20.742  0.00  0.00    +0.000 C 
ENDBRANCH  23  25
ENDBRANCH  22  23
ENDBRANCH  21  22
ENDBRANCH  20  21
ENDBRANCH  19  20
ENDBRANCH   1  19
TORSDOF 8
ENDMDL
MODEL 6
REMARK VINA RESULT:      -7.2      1.400      1.982
REMARK  Name = 
REMARK  9 active torsions:
REMARK  status: ('A' for Active; 'I' for Inactive)
REMARK    1  A    between atoms: C_1  and  C_2
REMARK    2  A    between atoms: C_2  and  C_3
REMARK    3  A    between atoms: C_3  and  C_4
REMARK    4  A    between atoms: C_4  and  C_5
REMARK    5  A    between atoms: C_5  and  C_6
REMARK    6  A    between atoms: C_6  and  C_7
REMARK    7  A    between atoms: C_7  and  C_8
REMARK    8  A    between atoms: C_11  and  C_12
REMARK    9  A    between atoms: N_14  and  C_15
REMARK                            x       y       z     vdW  Elec       q    Type
REMARK                         _______ _______ _______ _____ _____    ______ ____
ROOT
ATOM      1  C   UNL     1       4.587   5.188  16.705  0.00  0.00    +0.000 A 
ATOM      2  C   UNL     1       3.468   4.880  17.486  0.00  0.00    +0.000 A 
ATOM      3  C   UNL     1       2.707   5.897  18.052  0.00  0.00    +0.000 A 
ATOM      4  C   UNL     1       3.052   7.240  17.853  0.00  0.00    +0.000 A 
ATOM      5  C   UNL     1       4.168   7.563  17.079  0.00  0.00    +0.000 A 
ATOM      6  C   UNL     1       4.932   6.536  16.508  0.00  0.00    +0.000 A 
ENDROOT
BRANCH   4   7
ATOM      7  C   UNL     1       2.255   8.253  18.593  0.00  0.00    +0.000 C 
ATOM      8  O   UNL     1       2.055   9.319  18.019  0.00  0.00    +0.000 OA
ATOM      9  N   UNL     1       1.862   7.937  19.884  0.00  0.00    +0.000 N 
ATOM     10  H   UNL     1       2.272   7.116  20.313  0.00  0.00    +0.000 HD
BRANCH   9  11
ATOM     11  C   UNL     1       1.102   8.796  20.718  0.00  0.00    +0.000 A 
ATOM     12  C   UNL     1       1.164   8.735  22.118  0.00  0.00    +0.000 A 
ATOM     13  C   UNL     1       0.365   9.558  22.912  0.00  0.00    +0.000 A 
ATOM     14  C   UNL     1      -0.498  10.460  22.312  0.00  0.00    +0.000 A 
ATOM     15  F   UNL     1      -1.269  11.231  23.093  0.00  0.00    +0.000 F 
ATOM     16  C   UNL     1      -0.554  10.558  20.924  0.00  0.00    +0.000 A 
ATOM     17 CL   UNL     1      -1.629  11.678  20.177  0.00  0.00    +0.000 Cl
ATOM     18  C   UNL     1       0.251   9.736  20.123  0.00  0.00    +0.000 A 
ENDBRANCH   9  11
ENDBRANCH   4   7
BRANCH   1  19
ATOM     19  C   UNL     1       5.416   4.080  16.100  0.00  0.00    +0.000 C 
BRANCH  19  20
ATOM     20  C   UNL     1       6.128   4.476  14.802  0.00  0.00    +0.000 C 
BRANCH  20  21
ATOM     21  C   UNL     1       5.967   3.435  13.692  0.00  0.00    +0.000 C 
BRANCH  21  22
ATOM     22  C   UNL     1       5.208   4.020  12.501  0.00  0.00    +0.000 C 
BRANCH  22  23
ATOM     23  C   UNL     1       4.883   2.944  11.468  0.00  0.00    +0.000 C 
BRANCH  23  25
ATOM     24  C   UNL     1       3.252   4.141   9.969  0.00  0.00    +0.000 C 
ATOM     25  C   UNL     1       3.429   3.048  11.010  0.00  0.00    +0.000 C 
ENDBRANCH  23  25
ENDBRANCH  22  23
ENDBRANCH  21  22
ENDBRANCH  20  21
ENDBRANCH  19  20
ENDBRANCH   1  19
TORSDOF 8
ENDMDL
MODEL 7
REMARK VINA RESULT:      -7.1      4.588      6.457
REMARK  Name = 
REMARK  9 active torsions:
REMARK  status: ('A' for Active; 'I' for Inactive)
REMARK    1  A    between atoms: C_1  and  C_2
REMARK    2  A    between atoms: C_2  and  C_3
REMARK    3  A    between atoms: C_3  and  C_4
REMARK    4  A    between atoms: C_4  and  C_5
REMARK    5  A    between atoms: C_5  and  C_6
REMARK    6  A    between atoms: C_6  and  C_7
REMARK    7  A    between atoms: C_7  and  C_8
REMARK    8  A    between atoms: C_11  and  C_12
REMARK    9  A    between atoms: N_14  and  C_15
REMARK                            x       y       z     vdW  Elec       q    Type
REMARK                         _______ _______ _______ _____ _____    ______ ____
ROOT
ATOM      1  C   UNL     1       2.496   7.580  18.686  0.00  0.00    +0.000 A 
ATOM      2  C   UNL     1       2.036   7.575  20.007  0.00  0.00    +0.000 A 
ATOM      3  C   UNL     1       1.126   8.535  20.436  0.00  0.00    +0.000 A 
ATOM      4  C   UNL     1       0.663   9.522  19.555  0.00  0.00    +0.000 A 
ATOM      5  C   UNL     1       1.115   9.541  18.235  0.00  0.00    +0.000 A 
ATOM      6  C   UNL     1       2.031   8.570  17.805  0.00  0.00    +0.000 A 
ENDROOT
BRANCH   4   7
ATOM      7  C   UNL     1      -0.212  10.576  20.130  0.00  0.00    +0.000 C 
ATOM      8  O   UNL     1      -1.158  10.941  19.440  0.00  0.00    +0.000 OA
ATOM      9  N   UNL     1       0.147  11.102  21.361  0.00  0.00    +0.000 N 
ATOM     10  H   UNL     1       1.064  10.867  21.724  0.00  0.00    +0.000 HD
BRANCH   9  11
ATOM     11  C   UNL     1      -0.580  12.114  22.039  0.00  0.00    +0.000 A 
ATOM     12  C   UNL     1      -0.174  13.456  22.050  0.00  0.00    +0.000 A 
ATOM     13  C   UNL     1      -0.882  14.418  22.768  0.00  0.00    +0.000 A 
ATOM     14  C   UNL     1      -2.013  14.049  23.478  0.00  0.00    +0.000 A 
ATOM     15  F   UNL     1      -2.671  14.987  24.175  0.00  0.00    +0.000 F 
ATOM     16  C   UNL     1      -2.451  12.727  23.457  0.00  0.00    +0.000 A 
ATOM     17 CL   UNL     1      -3.857  12.267  24.340  0.00  0.00    +0.000 Cl
ATOM     18  C   UNL     1      -1.745  11.759  22.731  0.00  0.00    +0.000 A 
ENDBRANCH   9  11
ENDBRANCH   4   7
BRANCH   1  19
ATOM     19  C   UNL     1       3.491   6.540  18.228  0.00  0.00    +0.000 C 
BRANCH  19  20
ATOM     20  C   UNL     1       3.051   5.097  18.500  0.00  0.00    +0.000 C 
BRANCH  20  21
ATOM     21  C   UNL     1       1.804   4.695  17.708  0.00  0.00    +0.000 C 
BRANCH  21  22
ATOM     22  C   UNL     1       1.151   3.453  18.314  0.00  0.00    +0.000 C 
BRANCH  22  23
ATOM     23  C   UNL     1       2.067   2.790  19.341  0.00  0.00    +0.000 C 
BRANCH  23  25
ATOM     24  C   UNL     1       2.165   3.446  21.770  0.00  0.00    +0.000 C 
ATOM     25  C   UNL     1       1.382   2.697  20.704  0.00  0.00    +0.000 C 
ENDBRANCH  23  25
ENDBRANCH  22  23
ENDBRANCH  21  22
ENDBRANCH  20  21
ENDBRANCH  19  20
ENDBRANCH   1  19
TORSDOF 8
ENDMDL
MODEL 8
REMARK VINA RESULT:      -7.0      3.706      6.223
REMARK  Name = 
REMARK  9 active torsions:
REMARK  status: ('A' for Active; 'I' for Inactive)
REMARK    1  A    between atoms: C_1  and  C_2
REMARK    2  A    between atoms: C_2  and  C_3
REMARK    3  A    between atoms: C_3  and  C_4
REMARK    4  A    between atoms: C_4  and  C_5
REMARK    5  A    between atoms: C_5  and  C_6
REMARK    6  A    between atoms: C_6  and  C_7
REMARK    7  A    between atoms: C_7  and  C_8
REMARK    8  A    between atoms: C_11  and  C_12
REMARK    9  A    between atoms: N_14  and  C_15
REMARK                            x       y       z     vdW  Elec       q    Type
REMARK                         _______ _______ _______ _____ _____    ______ ____
ROOT
ATOM      1  C   UNL     1       1.948   8.128  19.154  0.00  0.00    +0.000 A 
ATOM      2  C   UNL     1       1.805   7.696  20.477  0.00  0.00    +0.000 A 
ATOM      3  C   UNL     1       1.113   8.476  21.397  0.00  0.00    +0.000 A 
ATOM      4  C   UNL     1       0.557   9.704  21.015  0.00  0.00    +0.000 A 
ATOM      5  C   UNL     1       0.694  10.149  19.699  0.00  0.00    +0.000 A 
ATOM      6  C   UNL     1       1.389   9.360  18.773  0.00  0.00    +0.000 A 
ENDROOT
BRANCH   4   7
ATOM      7  C   UNL     1      -0.058  10.524  22.091  0.00  0.00    +0.000 C 
ATOM      8  O   UNL     1       0.156  10.165  23.244  0.00  0.00    +0.000 OA
ATOM      9  N   UNL     1      -0.869  11.580  21.705  0.00  0.00    +0.000 N 
ATOM     10  H   UNL     1      -1.133  11.638  20.729  0.00  0.00    +0.000 HD
BRANCH   9  11
ATOM     11  C   UNL     1      -1.527  12.452  22.609  0.00  0.00    +0.000 A 
ATOM     12  C   UNL     1      -0.975  13.675  23.014  0.00  0.00    +0.000 A 
ATOM     13  C   UNL     1      -1.623  14.487  23.945  0.00  0.00    +0.000 A 
ATOM     14  C   UNL     1      -2.838  14.087  24.474  0.00  0.00    +0.000 A 
ATOM     15  F   UNL     1      -3.438  14.873  25.379  0.00  0.00    +0.000 F 
ATOM     16  C   UNL     1      -3.420  12.889  24.064  0.00  0.00    +0.000 A 
ATOM     17 CL   UNL     1      -4.931  12.390  24.722  0.00  0.00    +0.000 Cl
ATOM     18  C   UNL     1      -2.774  12.074  23.124  0.00  0.00    +0.000 A 
ENDBRANCH   9  11
ENDBRANCH   4   7
BRANCH   1  19
ATOM     19  C   UNL     1       2.707   7.282  18.160  0.00  0.00    +0.000 C 
BRANCH  19  20
ATOM     20  C   UNL     1       3.376   6.048  18.777  0.00  0.00    +0.000 C 
BRANCH  20  21
ATOM     21  C   UNL     1       4.791   5.808  18.246  0.00  0.00    +0.000 C 
BRANCH  21  22
ATOM     22  C   UNL     1       5.137   6.812  17.147  0.00  0.00    +0.000 C 
BRANCH  22  23
ATOM     23  C   UNL     1       5.135   6.151  15.770  0.00  0.00    +0.000 C 
BRANCH  23  25
ATOM     24  C   UNL     1       6.266   4.076  14.902  0.00  0.00    +0.000 C 
ATOM     25  C   UNL     1       5.257   4.633  15.893  0.00  0.00    +0.000 C 
ENDBRANCH  23  25
ENDBRANCH  22  23
ENDBRANCH  21  22
ENDBRANCH  20  21
ENDBRANCH  19  20
ENDBRANCH   1  19
TORSDOF 8
ENDMDL
MODEL 9
REMARK VINA RESULT:      -7.0      0.755      1.258
REMARK  Name = 
REMARK  9 active torsions:
REMARK  status: ('A' for Active; 'I' for Inactive)
REMARK    1  A    between atoms: C_1  and  C_2
REMARK    2  A    between atoms: C_2  and  C_3
REMARK    3  A    between atoms: C_3  and  C_4
REMARK    4  A    between atoms: C_4  and  C_5
REMARK    5  A    between atoms: C_5  and  C_6
REMARK    6  A    between atoms: C_6  and  C_7
REMARK    7  A    between atoms: C_7  and  C_8
REMARK    8  A    between atoms: C_11  and  C_12
REMARK    9  A    between atoms: N_14  and  C_15
REMARK                            x       y       z     vdW  Elec       q    Type
REMARK                         _______ _______ _______ _____ _____    ______ ____
ROOT
ATOM      1  C   UNL     1       5.692   4.991  16.282  0.00  0.00    +0.000 A 
ATOM      2  C   UNL     1       4.638   4.224  16.789  0.00  0.00    +0.000 A 
ATOM      3  C   UNL     1       3.661   4.814  17.584  0.00  0.00    +0.000 A 
ATOM      4  C   UNL     1       3.723   6.180  17.893  0.00  0.00    +0.000 A 
ATOM      5  C   UNL     1       4.771   6.957  17.397  0.00  0.00    +0.000 A 
ATOM      6  C   UNL     1       5.752   6.360  16.594  0.00  0.00    +0.000 A 
ENDROOT
BRANCH   4   7
ATOM      7  C   UNL     1       2.707   6.697  18.845  0.00  0.00    +0.000 C 
ATOM      8  O   UNL     1       2.112   5.863  19.520  0.00  0.00    +0.000 OA
ATOM      9  N   UNL     1       2.471   8.063  18.848  0.00  0.00    +0.000 N 
ATOM     10  H   UNL     1       2.874   8.612  18.097  0.00  0.00    +0.000 HD
BRANCH   9  11
ATOM     11  C   UNL     1       1.534   8.709  19.694  0.00  0.00    +0.000 A 
ATOM     12  C   UNL     1       1.461   8.454  21.071  0.00  0.00    +0.000 A 
ATOM     13  C   UNL     1       0.494   9.066  21.868  0.00  0.00    +0.000 A 
ATOM     14  C   UNL     1      -0.406   9.950  21.297  0.00  0.00    +0.000 A 
ATOM     15  F   UNL     1      -1.337  10.516  22.077  0.00  0.00    +0.000 F 
ATOM     16  C   UNL     1      -0.332  10.241  19.936  0.00  0.00    +0.000 A 
ATOM     17 CL   UNL     1      -1.452  11.339  19.224  0.00  0.00    +0.000 Cl
ATOM     18  C   UNL     1       0.642   9.632  19.134  0.00  0.00    +0.000 A 
ENDBRANCH   9  11
ENDBRANCH   4   7
BRANCH   1  19
ATOM     19  C   UNL     1       6.755   4.344  15.426  0.00  0.00    +0.000 C 
BRANCH  19  20
ATOM     20  C   UNL     1       6.531   4.520  13.920  0.00  0.00    +0.000 C 
BRANCH  20  21
ATOM     21  C   UNL     1       5.717   3.382  13.302  0.00  0.00    +0.000 C 
BRANCH  21  22
ATOM     22  C   UNL     1       5.569   3.574  11.793  0.00  0.00    +0.000 C 
BRANCH  22  23
ATOM     23  C   UNL     1       4.361   2.813  11.252  0.00  0.00    +0.000 C 
BRANCH  23  25
ATOM     24  C   UNL     1       3.139   3.986   9.389  0.00  0.00    +0.000 C 
ATOM     25  C   UNL     1       3.227   3.771  10.891  0.00  0.00    +0.000 C 
ENDBRANCH  23  25
ENDBRANCH  22  23
ENDBRANCH  21  22
ENDBRANCH  20  21
ENDBRANCH  19  20
ENDBRANCH   1  19
TORSDOF 8
ENDMDL
