MODEL 1
REMARK VINA RESULT:      -8.7      0.000      0.000
REMARK  Name = 
REMARK  6 active torsions:
REMARK  status: ('A' for Active; 'I' for Inactive)
REMARK    1  A    between atoms: C_1  and  O_2
REMARK    2  A    between atoms: O_2  and  C_3
REMARK    3  A    between atoms: C_3  and  C_5
REMARK    4  A    between atoms: C_8  and  C_9
REMARK    5  A    between atoms: C_9  and  N_10
REMARK    6  A    between atoms: N_20  and  C_21
REMARK                            x       y       z     vdW  Elec       q    Type
REMARK                         _______ _______ _______ _____ _____    ______ ____
ROOT
ATOM      1  N   UNL     1       1.820   8.173  19.542  0.00  0.00    +0.000 N 
ATOM      2  C   UNL     1       0.960   7.944  20.590  0.00  0.00    +0.000 A 
ATOM      3  N   UNL     1       1.112   6.736  21.097  0.00  0.00    +0.000 NA
ATOM      4  C   UNL     1       2.089   6.166  20.331  0.00  0.00    +0.000 A 
ATOM      5  C   UNL     1       2.623   4.835  20.402  0.00  0.00    +0.000 A 
ATOM      6  C   UNL     1       2.217   3.934  21.390  0.00  0.00    +0.000 A 
ATOM      7  C   UNL     1       2.759   2.654  21.402  0.00  0.00    +0.000 A 
ATOM      8  C   UNL     1       3.667   2.323  20.415  0.00  0.00    +0.000 A 
ATOM      9  N   UNL     1       4.064   3.170  19.440  0.00  0.00    +0.000 NA
ATOM     10  C   UNL     1       3.566   4.436  19.438  0.00  0.00    +0.000 A 
ATOM     11  N   UNL     1       3.988   5.369  18.420  0.00  0.00    +0.000 N 
ATOM     12  C   UNL     1       3.547   6.704  18.388  0.00  0.00    +0.000 A 
ATOM     13  O   UNL     1       3.974   7.556  17.611  0.00  0.00    +0.000 OA
ATOM     14  C   UNL     1       2.545   7.024  19.363  0.00  0.00    +0.000 A 
ENDROOT
BRANCH  11  15
ATOM     15  C   UNL     1       4.920   4.928  17.436  0.00  0.00    +0.000 A 
ATOM     16  C   UNL     1       6.298   5.027  17.654  0.00  0.00    +0.000 A 
ATOM     17  C   UNL     1       7.200   4.698  16.640  0.00  0.00    +0.000 A 
ATOM     18  C   UNL     1       6.734   4.251  15.406  0.00  0.00    +0.000 A 
ATOM     19  C   UNL     1       5.364   4.129  15.182  0.00  0.00    +0.000 A 
ATOM     20  C   UNL     1       4.460   4.476  16.188  0.00  0.00    +0.000 A 
ENDBRANCH  11  15
BRANCH   1  21
ATOM     21  C   UNL     1       1.793   9.336  18.665  0.00  0.00    +0.000 C 
BRANCH  21  25
ATOM     22  C   UNL     1      -2.101  11.221  18.630  0.00  0.00    +0.000 A 
ATOM     23  C   UNL     1      -1.776  10.244  17.686  0.00  0.00    +0.000 A 
ATOM     24  C   UNL     1      -0.503   9.663  17.691  0.00  0.00    +0.000 A 
ATOM     25  C   UNL     1       0.465  10.049  18.633  0.00  0.00    +0.000 A 
ATOM     26  C   UNL     1       0.130  11.039  19.570  0.00  0.00    +0.000 A 
ATOM     27  C   UNL     1      -1.146  11.618  19.568  0.00  0.00    +0.000 A 
BRANCH  22  28
ATOM     28  C   UNL     1      -3.476  11.792  18.610  0.00  0.00    +0.000 C 
ATOM     29  O   UNL     1      -3.980  12.393  19.545  0.00  0.00    +0.000 OA
BRANCH  28  31
ATOM     30  C   UNL     1      -5.490  11.438  17.471  0.00  0.00    +0.000 C 
ATOM     31  O   UNL     1      -4.068  11.549  17.415  0.00  0.00    +0.000 OA
ENDBRANCH  28  31
ENDBRANCH  22  28
ENDBRANCH  21  25
ENDBRANCH   1  21
TORSDOF 5
ENDMDL
MODEL 2
REMARK VINA RESULT:      -8.5      0.477      1.147
REMARK  Name = 
REMARK  6 active torsions:
REMARK  status: ('A' for Active; 'I' for Inactive)
REMARK    1  A    between atoms: C_1  and  O_2
REMARK    2  A    between atoms: O_2  and  C_3
REMARK    3  A    between atoms: C_3  and  C_5
REMARK    4  A    between atoms: C_8  and  C_9
REMARK    5  A    between atoms: C_9  and  N_10
REMARK    6  A    between atoms: N_20  and  C_21
REMARK                            x       y       z     vdW  Elec       q    Type
REMARK                         _______ _______ _______ _____ _____    ______ ____
ROOT
ATOM      1  N   UNL     1       1.725   8.359  19.547  0.00  0.00    +0.000 N 
ATOM      2  C   UNL     1       0.856   8.116  20.584  0.00  0.00    +0.000 A 
ATOM      3  N   UNL     1       1.004   6.902  21.077  0.00  0.00    +0.000 NA
ATOM      4  C   UNL     1       1.990   6.343  20.315  0.00  0.00    +0.000 A 
ATOM      5  C   UNL     1       2.525   5.012  20.376  0.00  0.00    +0.000 A 
ATOM      6  C   UNL     1       2.112   4.099  21.349  0.00  0.00    +0.000 A 
ATOM      7  C   UNL     1       2.656   2.820  21.352  0.00  0.00    +0.000 A 
ATOM      8  C   UNL     1       3.574   2.501  20.369  0.00  0.00    +0.000 A 
ATOM      9  N   UNL     1       3.979   3.361  19.408  0.00  0.00    +0.000 NA
ATOM     10  C   UNL     1       3.479   4.626  19.416  0.00  0.00    +0.000 A 
ATOM     11  N   UNL     1       3.909   5.572  18.413  0.00  0.00    +0.000 N 
ATOM     12  C   UNL     1       3.465   6.906  18.392  0.00  0.00    +0.000 A 
ATOM     13  O   UNL     1       3.899   7.767  17.629  0.00  0.00    +0.000 OA
ATOM     14  C   UNL     1       2.454   7.213  19.361  0.00  0.00    +0.000 A 
ENDROOT
BRANCH  11  15
ATOM     15  C   UNL     1       4.851   5.144  17.433  0.00  0.00    +0.000 A 
ATOM     16  C   UNL     1       4.427   4.559  16.235  0.00  0.00    +0.000 A 
ATOM     17  C   UNL     1       5.358   4.041  15.333  0.00  0.00    +0.000 A 
ATOM     18  C   UNL     1       6.721   4.118  15.611  0.00  0.00    +0.000 A 
ATOM     19  C   UNL     1       7.158   4.716  16.791  0.00  0.00    +0.000 A 
ATOM     20  C   UNL     1       6.227   5.216  17.704  0.00  0.00    +0.000 A 
ENDBRANCH  11  15
BRANCH   1  21
ATOM     21  C   UNL     1       1.705   9.532  18.683  0.00  0.00    +0.000 C 
BRANCH  21  25
ATOM     22  C   UNL     1      -2.305  11.087  18.212  0.00  0.00    +0.000 A 
ATOM     23  C   UNL     1      -1.864  10.011  17.438  0.00  0.00    +0.000 A 
ATOM     24  C   UNL     1      -0.557   9.536  17.580  0.00  0.00    +0.000 A 
ATOM     25  C   UNL     1       0.333  10.128  18.492  0.00  0.00    +0.000 A 
ATOM     26  C   UNL     1      -0.118  11.215  19.257  0.00  0.00    +0.000 A 
ATOM     27  C   UNL     1      -1.429  11.688  19.118  0.00  0.00    +0.000 A 
BRANCH  22  28
ATOM     28  C   UNL     1      -3.714  11.542  18.053  0.00  0.00    +0.000 C 
ATOM     29  O   UNL     1      -4.381  11.360  17.047  0.00  0.00    +0.000 OA
BRANCH  28  31
ATOM     30  C   UNL     1      -5.513  11.970  19.487  0.00  0.00    +0.000 C 
ATOM     31  O   UNL     1      -4.135  12.172  19.177  0.00  0.00    +0.000 OA
ENDBRANCH  28  31
ENDBRANCH  22  28
ENDBRANCH  21  25
ENDBRANCH   1  21
TORSDOF 5
ENDMDL
MODEL 3
REMARK VINA RESULT:      -8.3      0.779      1.132
REMARK  Name = 
REMARK  6 active torsions:
REMARK  status: ('A' for Active; 'I' for Inactive)
REMARK    1  A    between atoms: C_1  and  O_2
REMARK    2  A    between atoms: O_2  and  C_3
REMARK    3  A    between atoms: C_3  and  C_5
REMARK    4  A    between atoms: C_8  and  C_9
REMARK    5  A    between atoms: C_9  and  N_10
REMARK    6  A    between atoms: N_20  and  C_21
REMARK                            x       y       z     vdW  Elec       q    Type
REMARK                         _______ _______ _______ _____ _____    ______ ____
ROOT
ATOM      1  N   UNL     1       1.834   8.106  19.490  0.00  0.00    +0.000 N 
ATOM      2  C   UNL     1       0.991   7.858  20.547  0.00  0.00    +0.000 A 
ATOM      3  N   UNL     1       1.172   6.653  21.050  0.00  0.00    +0.000 NA
ATOM      4  C   UNL     1       2.152   6.104  20.274  0.00  0.00    +0.000 A 
ATOM      5  C   UNL     1       2.714   4.783  20.338  0.00  0.00    +0.000 A 
ATOM      6  C   UNL     1       2.337   3.873  21.328  0.00  0.00    +0.000 A 
ATOM      7  C   UNL     1       2.904   2.604  21.333  0.00  0.00    +0.000 A 
ATOM      8  C   UNL     1       3.809   2.293  20.336  0.00  0.00    +0.000 A 
ATOM      9  N   UNL     1       4.178   3.149  19.358  0.00  0.00    +0.000 NA
ATOM     10  C   UNL     1       3.655   4.404  19.362  0.00  0.00    +0.000 A 
ATOM     11  N   UNL     1       4.047   5.347  18.342  0.00  0.00    +0.000 N 
ATOM     12  C   UNL     1       3.578   6.673  18.316  0.00  0.00    +0.000 A 
ATOM     13  O   UNL     1       3.980   7.534  17.536  0.00  0.00    +0.000 OA
ATOM     14  C   UNL     1       2.581   6.972  19.302  0.00  0.00    +0.000 A 
ENDROOT
BRANCH  11  15
ATOM     15  C   UNL     1       4.977   4.926  17.348  0.00  0.00    +0.000 A 
ATOM     16  C   UNL     1       6.356   5.010  17.569  0.00  0.00    +0.000 A 
ATOM     17  C   UNL     1       7.257   4.703  16.548  0.00  0.00    +0.000 A 
ATOM     18  C   UNL     1       6.789   4.291  15.302  0.00  0.00    +0.000 A 
ATOM     19  C   UNL     1       5.418   4.183  15.073  0.00  0.00    +0.000 A 
ATOM     20  C   UNL     1       4.516   4.510  16.087  0.00  0.00    +0.000 A 
ENDBRANCH  11  15
BRANCH   1  21
ATOM     21  C   UNL     1       1.775   9.269  18.615  0.00  0.00    +0.000 C 
BRANCH  21  25
ATOM     22  C   UNL     1      -1.768  11.643  19.343  0.00  0.00    +0.000 A 
ATOM     23  C   UNL     1      -1.744  10.699  18.313  0.00  0.00    +0.000 A 
ATOM     24  C   UNL     1      -0.583   9.958  18.070  0.00  0.00    +0.000 A 
ATOM     25  C   UNL     1       0.572  10.148  18.847  0.00  0.00    +0.000 A 
ATOM     26  C   UNL     1       0.540  11.107  19.872  0.00  0.00    +0.000 A 
ATOM     27  C   UNL     1      -0.625  11.846  20.118  0.00  0.00    +0.000 A 
BRANCH  22  28
ATOM     28  C   UNL     1      -3.034  12.388  19.588  0.00  0.00    +0.000 C 
ATOM     29  O   UNL     1      -4.115  12.071  19.120  0.00  0.00    +0.000 OA
BRANCH  28  31
ATOM     30  C   UNL     1      -3.985  14.097  20.874  0.00  0.00    +0.000 C 
ATOM     31  O   UNL     1      -2.804  13.449  20.401  0.00  0.00    +0.000 OA
ENDBRANCH  28  31
ENDBRANCH  22  28
ENDBRANCH  21  25
ENDBRANCH   1  21
TORSDOF 5
ENDMDL
MODEL 4
REMARK VINA RESULT:      -8.1      0.950      1.385
REMARK  Name = 
REMARK  6 active torsions:
REMARK  status: ('A' for Active; 'I' for Inactive)
REMARK    1  A    between atoms: C_1  and  O_2
REMARK    2  A    between atoms: O_2  and  C_3
REMARK    3  A    between atoms: C_3  and  C_5
REMARK    4  A    between atoms: C_8  and  C_9
REMARK    5  A    between atoms: C_9  and  N_10
REMARK    6  A    between atoms: N_20  and  C_21
REMARK                            x       y       z     vdW  Elec       q    Type
REMARK                         _______ _______ _______ _____ _____    ______ ____
ROOT
ATOM      1  N   UNL     1       1.894   7.980  19.503  0.00  0.00    +0.000 N 
ATOM      2  C   UNL     1       1.081   7.683  20.571  0.00  0.00    +0.000 A 
ATOM      3  N   UNL     1       1.299   6.468  21.034  0.00  0.00    +0.000 NA
ATOM      4  C   UNL     1       2.272   5.963  20.220  0.00  0.00    +0.000 A 
ATOM      5  C   UNL     1       2.863   4.654  20.232  0.00  0.00    +0.000 A 
ATOM      6  C   UNL     1       2.528   3.707  21.203  0.00  0.00    +0.000 A 
ATOM      7  C   UNL     1       3.122   2.452  21.158  0.00  0.00    +0.000 A 
ATOM      8  C   UNL     1       4.009   2.189  20.132  0.00  0.00    +0.000 A 
ATOM      9  N   UNL     1       4.338   3.081  19.171  0.00  0.00    +0.000 NA
ATOM     10  C   UNL     1       3.789   4.324  19.225  0.00  0.00    +0.000 A 
ATOM     11  N   UNL     1       4.137   5.305  18.224  0.00  0.00    +0.000 N 
ATOM     12  C   UNL     1       3.640   6.620  18.248  0.00  0.00    +0.000 A 
ATOM     13  O   UNL     1       4.006   7.512  17.485  0.00  0.00    +0.000 OA
ATOM     14  C   UNL     1       2.660   6.868  19.264  0.00  0.00    +0.000 A 
ENDROOT
BRANCH  11  15
ATOM     15  C   UNL     1       5.052   4.933  17.197  0.00  0.00    +0.000 A 
ATOM     16  C   UNL     1       6.433   5.080  17.374  0.00  0.00    +0.000 A 
ATOM     17  C   UNL     1       7.313   4.820  16.322  0.00  0.00    +0.000 A 
ATOM     18  C   UNL     1       6.824   4.394  15.089  0.00  0.00    +0.000 A 
ATOM     19  C   UNL     1       5.453   4.223  14.905  0.00  0.00    +0.000 A 
ATOM     20  C   UNL     1       4.570   4.502  15.950  0.00  0.00    +0.000 A 
ENDBRANCH  11  15
BRANCH   1  21
ATOM     21  C   UNL     1       1.790   9.166  18.664  0.00  0.00    +0.000 C 
BRANCH  21  25
ATOM     22  C   UNL     1      -1.403  11.917  19.643  0.00  0.00    +0.000 A 
ATOM     23  C   UNL     1      -0.205  11.931  20.364  0.00  0.00    +0.000 A 
ATOM     24  C   UNL     1       0.807  11.017  20.056  0.00  0.00    +0.000 A 
ATOM     25  C   UNL     1       0.643  10.074  19.028  0.00  0.00    +0.000 A 
ATOM     26  C   UNL     1      -0.568  10.062  18.318  0.00  0.00    +0.000 A 
ATOM     27  C   UNL     1      -1.582  10.980  18.624  0.00  0.00    +0.000 A 
BRANCH  22  28
ATOM     28  C   UNL     1      -2.443  12.926  19.983  0.00  0.00    +0.000 C 
ATOM     29  O   UNL     1      -2.204  14.010  20.490  0.00  0.00    +0.000 OA
BRANCH  28  31
ATOM     30  C   UNL     1      -4.695  12.749  20.599  0.00  0.00    +0.000 C 
ATOM     31  O   UNL     1      -3.673  12.466  19.644  0.00  0.00    +0.000 OA
ENDBRANCH  28  31
ENDBRANCH  22  28
ENDBRANCH  21  25
ENDBRANCH   1  21
TORSDOF 5
ENDMDL
MODEL 5
REMARK VINA RESULT:      -8.0      0.813      1.512
REMARK  Name = 
REMARK  6 active torsions:
REMARK  status: ('A' for Active; 'I' for Inactive)
REMARK    1  A    between atoms: C_1  and  O_2
REMARK    2  A    between atoms: O_2  and  C_3
REMARK    3  A    between atoms: C_3  and  C_5
REMARK    4  A    between atoms: C_8  and  C_9
REMARK    5  A    between atoms: C_9  and  N_10
REMARK    6  A    between atoms: N_20  and  C_21
REMARK                            x       y       z     vdW  Elec       q    Type
REMARK                         _______ _______ _______ _____ _____    ______ ____
ROOT
ATOM      1  N   UNL     1       1.743   8.334  19.733  0.00  0.00    +0.000 N 
ATOM      2  C   UNL     1       0.874   8.062  20.763  0.00  0.00    +0.000 A 
ATOM      3  N   UNL     1       1.019   6.833  21.218  0.00  0.00    +0.000 NA
ATOM      4  C   UNL     1       2.002   6.295  20.438  0.00  0.00    +0.000 A 
ATOM      5  C   UNL     1       2.533   4.961  20.457  0.00  0.00    +0.000 A 
ATOM      6  C   UNL     1       2.117   4.019  21.401  0.00  0.00    +0.000 A 
ATOM      7  C   UNL     1       2.656   2.738  21.364  0.00  0.00    +0.000 A 
ATOM      8  C   UNL     1       3.573   2.448  20.371  0.00  0.00    +0.000 A 
ATOM      9  N   UNL     1       3.980   3.335  19.436  0.00  0.00    +0.000 NA
ATOM     10  C   UNL     1       3.484   4.601  19.484  0.00  0.00    +0.000 A 
ATOM     11  N   UNL     1       3.917   5.576  18.511  0.00  0.00    +0.000 N 
ATOM     12  C   UNL     1       3.478   6.912  18.532  0.00  0.00    +0.000 A 
ATOM     13  O   UNL     1       3.913   7.795  17.796  0.00  0.00    +0.000 OA
ATOM     14  C   UNL     1       2.468   7.192  19.511  0.00  0.00    +0.000 A 
ENDROOT
BRANCH  11  15
ATOM     15  C   UNL     1       4.856   5.176  17.518  0.00  0.00    +0.000 A 
ATOM     16  C   UNL     1       4.429   4.703  16.272  0.00  0.00    +0.000 A 
ATOM     17  C   UNL     1       5.351   4.207  15.349  0.00  0.00    +0.000 A 
ATOM     18  C   UNL     1       6.711   4.196  15.654  0.00  0.00    +0.000 A 
ATOM     19  C   UNL     1       7.153   4.683  16.883  0.00  0.00    +0.000 A 
ATOM     20  C   UNL     1       6.229   5.160  17.815  0.00  0.00    +0.000 A 
ENDBRANCH  11  15
BRANCH   1  21
ATOM     21  C   UNL     1       1.726   9.533  18.906  0.00  0.00    +0.000 C 
BRANCH  21  25
ATOM     22  C   UNL     1      -2.150  10.857  17.513  0.00  0.00    +0.000 A 
ATOM     23  C   UNL     1      -1.458  11.583  18.486  0.00  0.00    +0.000 A 
ATOM     24  C   UNL     1      -0.219  11.129  18.948  0.00  0.00    +0.000 A 
ATOM     25  C   UNL     1       0.348   9.943  18.451  0.00  0.00    +0.000 A 
ATOM     26  C   UNL     1      -0.361   9.217  17.482  0.00  0.00    +0.000 A 
ATOM     27  C   UNL     1      -1.601   9.674  17.015  0.00  0.00    +0.000 A 
BRANCH  22  28
ATOM     28  C   UNL     1      -3.452  11.391  17.025  0.00  0.00    +0.000 C 
ATOM     29  O   UNL     1      -4.388  11.677  17.753  0.00  0.00    +0.000 OA
BRANCH  28  31
ATOM     30  C   UNL     1      -3.808  10.331  14.969  0.00  0.00    +0.000 C 
ATOM     31  O   UNL     1      -3.434  11.514  15.675  0.00  0.00    +0.000 OA
ENDBRANCH  28  31
ENDBRANCH  22  28
ENDBRANCH  21  25
ENDBRANCH   1  21
TORSDOF 5
ENDMDL
MODEL 6
REMARK VINA RESULT:      -7.9      3.593     10.210
REMARK  Name = 
REMARK  6 active torsions:
REMARK  status: ('A' for Active; 'I' for Inactive)
REMARK    1  A    between atoms: C_1  and  O_2
REMARK    2  A    between atoms: O_2  and  C_3
REMARK    3  A    between atoms: C_3  and  C_5
REMARK    4  A    between atoms: C_8  and  C_9
REMARK    5  A    between atoms: C_9  and  N_10
REMARK    6  A    between atoms: N_20  and  C_21
REMARK                            x       y       z     vdW  Elec       q    Type
REMARK                         _______ _______ _______ _____ _____    ______ ____
ROOT
ATOM      1  N   UNL     1      -0.873  10.989  18.416  0.00  0.00    +0.000 N 
ATOM      2  C   UNL     1      -1.303  10.236  17.349  0.00  0.00    +0.000 A 
ATOM      3  N   UNL     1      -2.610  10.309  17.189  0.00  0.00    +0.000 NA
ATOM      4  C   UNL     1      -3.032  11.121  18.203  0.00  0.00    +0.000 A 
ATOM      5  C   UNL     1      -4.373  11.507  18.545  0.00  0.00    +0.000 A 
ATOM      6  C   UNL     1      -5.468  11.120  17.769  0.00  0.00    +0.000 A 
ATOM      7  C   UNL     1      -6.744  11.512  18.156  0.00  0.00    +0.000 A 
ATOM      8  C   UNL     1      -6.873  12.257  19.313  0.00  0.00    +0.000 A 
ATOM      9  N   UNL     1      -5.831  12.631  20.089  0.00  0.00    +0.000 NA
ATOM     10  C   UNL     1      -4.575  12.281  19.702  0.00  0.00    +0.000 A 
ATOM     11  N   UNL     1      -3.442  12.685  20.501  0.00  0.00    +0.000 N 
ATOM     12  C   UNL     1      -2.116  12.395  20.134  0.00  0.00    +0.000 A 
ATOM     13  O   UNL     1      -1.126  12.822  20.724  0.00  0.00    +0.000 OA
ATOM     14  C   UNL     1      -1.987  11.555  18.979  0.00  0.00    +0.000 A 
ENDROOT
BRANCH  11  15
ATOM     15  C   UNL     1      -3.679  13.440  21.686  0.00  0.00    +0.000 A 
ATOM     16  C   UNL     1      -3.708  14.839  21.654  0.00  0.00    +0.000 A 
ATOM     17  C   UNL     1      -3.828  15.571  22.837  0.00  0.00    +0.000 A 
ATOM     18  C   UNL     1      -3.937  14.913  24.060  0.00  0.00    +0.000 A 
ATOM     19  C   UNL     1      -3.930  13.520  24.105  0.00  0.00    +0.000 A 
ATOM     20  C   UNL     1      -3.791  12.787  22.924  0.00  0.00    +0.000 A 
ENDBRANCH  11  15
BRANCH   1  21
ATOM     21  C   UNL     1       0.478  10.991  18.960  0.00  0.00    +0.000 C 
BRANCH  21  25
ATOM     22  C   UNL     1       2.268   7.114  19.657  0.00  0.00    +0.000 A 
ATOM     23  C   UNL     1       2.405   7.748  18.420  0.00  0.00    +0.000 A 
ATOM     24  C   UNL     1       1.797   8.988  18.198  0.00  0.00    +0.000 A 
ATOM     25  C   UNL     1       1.042   9.614  19.204  0.00  0.00    +0.000 A 
ATOM     26  C   UNL     1       0.902   8.963  20.440  0.00  0.00    +0.000 A 
ATOM     27  C   UNL     1       1.514   7.722  20.663  0.00  0.00    +0.000 A 
BRANCH  22  28
ATOM     28  C   UNL     1       2.956   5.809  19.862  0.00  0.00    +0.000 C 
ATOM     29  O   UNL     1       4.106   5.584  19.525  0.00  0.00    +0.000 OA
BRANCH  28  31
ATOM     30  C   UNL     1       1.437   4.050  19.586  0.00  0.00    +0.000 C 
ATOM     31  O   UNL     1       2.124   4.931  20.475  0.00  0.00    +0.000 OA
ENDBRANCH  28  31
ENDBRANCH  22  28
ENDBRANCH  21  25
ENDBRANCH   1  21
TORSDOF 5
ENDMDL
MODEL 7
REMARK VINA RESULT:      -7.8      3.744     10.263
REMARK  Name = 
REMARK  6 active torsions:
REMARK  status: ('A' for Active; 'I' for Inactive)
REMARK    1  A    between atoms: C_1  and  O_2
REMARK    2  A    between atoms: O_2  and  C_3
REMARK    3  A    between atoms: C_3  and  C_5
REMARK    4  A    between atoms: C_8  and  C_9
REMARK    5  A    between atoms: C_9  and  N_10
REMARK    6  A    between atoms: N_20  and  C_21
REMARK                            x       y       z     vdW  Elec       q    Type
REMARK                         _______ _______ _______ _____ _____    ______ ____
ROOT
ATOM      1  N   UNL     1      -1.082  11.337  18.230  0.00  0.00    +0.000 N 
ATOM      2  C   UNL     1      -1.530  10.575  17.178  0.00  0.00    +0.000 A 
ATOM      3  N   UNL     1      -2.847  10.526  17.130  0.00  0.00    +0.000 NA
ATOM      4  C   UNL     1      -3.254  11.267  18.203  0.00  0.00    +0.000 A 
ATOM      5  C   UNL     1      -4.590  11.514  18.668  0.00  0.00    +0.000 A 
ATOM      6  C   UNL     1      -5.707  11.044  17.974  0.00  0.00    +0.000 A 
ATOM      7  C   UNL     1      -6.976  11.302  18.478  0.00  0.00    +0.000 A 
ATOM      8  C   UNL     1      -7.073  12.001  19.667  0.00  0.00    +0.000 A 
ATOM      9  N   UNL     1      -6.008  12.453  20.366  0.00  0.00    +0.000 NA
ATOM     10  C   UNL     1      -4.763  12.235  19.864  0.00  0.00    +0.000 A 
ATOM     11  N   UNL     1      -3.608  12.724  20.579  0.00  0.00    +0.000 N 
ATOM     12  C   UNL     1      -2.297  12.572  20.093  0.00  0.00    +0.000 A 
ATOM     13  O   UNL     1      -1.304  13.077  20.612  0.00  0.00    +0.000 OA
ATOM     14  C   UNL     1      -2.191  11.779  18.903  0.00  0.00    +0.000 A 
ENDROOT
BRANCH  11  15
ATOM     15  C   UNL     1      -3.811  13.423  21.804  0.00  0.00    +0.000 A 
ATOM     16  C   UNL     1      -3.970  14.813  21.823  0.00  0.00    +0.000 A 
ATOM     17  C   UNL     1      -4.055  15.499  23.035  0.00  0.00    +0.000 A 
ATOM     18  C   UNL     1      -4.000  14.801  24.240  0.00  0.00    +0.000 A 
ATOM     19  C   UNL     1      -3.863  13.415  24.237  0.00  0.00    +0.000 A 
ATOM     20  C   UNL     1      -3.758  12.730  23.025  0.00  0.00    +0.000 A 
ENDBRANCH  11  15
BRANCH   1  21
ATOM     21  C   UNL     1       0.306  11.455  18.659  0.00  0.00    +0.000 C 
BRANCH  21  25
ATOM     22  C   UNL     1       2.044   7.583  19.501  0.00  0.00    +0.000 A 
ATOM     23  C   UNL     1       1.343   8.278  20.490  0.00  0.00    +0.000 A 
ATOM     24  C   UNL     1       0.811   9.541  20.213  0.00  0.00    +0.000 A 
ATOM     25  C   UNL     1       0.971  10.133  18.948  0.00  0.00    +0.000 A 
ATOM     26  C   UNL     1       1.686   9.430  17.967  0.00  0.00    +0.000 A 
ATOM     27  C   UNL     1       2.216   8.163  18.243  0.00  0.00    +0.000 A 
BRANCH  22  28
ATOM     28  C   UNL     1       2.569   6.228  19.827  0.00  0.00    +0.000 C 
ATOM     29  O   UNL     1       3.555   5.734  19.306  0.00  0.00    +0.000 OA
BRANCH  28  31
ATOM     30  C   UNL     1       2.135   4.284  21.056  0.00  0.00    +0.000 C 
ATOM     31  O   UNL     1       1.799   5.643  20.778  0.00  0.00    +0.000 OA
ENDBRANCH  28  31
ENDBRANCH  22  28
ENDBRANCH  21  25
ENDBRANCH   1  21
TORSDOF 5
ENDMDL
MODEL 8
REMARK VINA RESULT:      -7.8      3.529     10.372
REMARK  Name = 
REMARK  6 active torsions:
REMARK  status: ('A' for Active; 'I' for Inactive)
REMARK    1  A    between atoms: C_1  and  O_2
REMARK    2  A    between atoms: O_2  and  C_3
REMARK    3  A    between atoms: C_3  and  C_5
REMARK    4  A    between atoms: C_8  and  C_9
REMARK    5  A    between atoms: C_9  and  N_10
REMARK    6  A    between atoms: N_20  and  C_21
REMARK                            x       y       z     vdW  Elec       q    Type
REMARK                         _______ _______ _______ _____ _____    ______ ____
ROOT
ATOM      1  N   UNL     1      -0.971  11.018  18.346  0.00  0.00    +0.000 N 
ATOM      2  C   UNL     1      -1.412  10.216  17.321  0.00  0.00    +0.000 A 
ATOM      3  N   UNL     1      -2.722  10.273  17.178  0.00  0.00    +0.000 NA
ATOM      4  C   UNL     1      -3.134  11.126  18.162  0.00  0.00    +0.000 A 
ATOM      5  C   UNL     1      -4.471  11.519  18.507  0.00  0.00    +0.000 A 
ATOM      6  C   UNL     1      -5.576  11.091  17.767  0.00  0.00    +0.000 A 
ATOM      7  C   UNL     1      -6.848  11.492  18.155  0.00  0.00    +0.000 A 
ATOM      8  C   UNL     1      -6.964  12.287  19.280  0.00  0.00    +0.000 A 
ATOM      9  N   UNL     1      -5.914  12.702  20.022  0.00  0.00    +0.000 NA
ATOM     10  C   UNL     1      -4.662  12.344  19.632  0.00  0.00    +0.000 A 
ATOM     11  N   UNL     1      -3.519  12.789  20.394  0.00  0.00    +0.000 N 
ATOM     12  C   UNL     1      -2.197  12.491  20.019  0.00  0.00    +0.000 A 
ATOM     13  O   UNL     1      -1.200  12.951  20.574  0.00  0.00    +0.000 OA
ATOM     14  C   UNL     1      -2.080  11.602  18.901  0.00  0.00    +0.000 A 
ENDROOT
BRANCH  11  15
ATOM     15  C   UNL     1      -3.743  13.596  21.547  0.00  0.00    +0.000 A 
ATOM     16  C   UNL     1      -3.915  13.016  22.809  0.00  0.00    +0.000 A 
ATOM     17  C   UNL     1      -4.246  13.806  23.911  0.00  0.00    +0.000 A 
ATOM     18  C   UNL     1      -4.391  15.184  23.767  0.00  0.00    +0.000 A 
ATOM     19  C   UNL     1      -4.203  15.778  22.520  0.00  0.00    +0.000 A 
ATOM     20  C   UNL     1      -3.892  14.986  21.413  0.00  0.00    +0.000 A 
ENDBRANCH  11  15
BRANCH   1  21
ATOM     21  C   UNL     1       0.389  11.053  18.868  0.00  0.00    +0.000 C 
BRANCH  21  25
ATOM     22  C   UNL     1       2.332   7.223  19.391  0.00  0.00    +0.000 A 
ATOM     23  C   UNL     1       2.329   7.855  18.144  0.00  0.00    +0.000 A 
ATOM     24  C   UNL     1       1.673   9.079  17.983  0.00  0.00    +0.000 A 
ATOM     25  C   UNL     1       1.007   9.691  19.058  0.00  0.00    +0.000 A 
ATOM     26  C   UNL     1       1.007   9.042  20.302  0.00  0.00    +0.000 A 
ATOM     27  C   UNL     1       1.668   7.817  20.465  0.00  0.00    +0.000 A 
BRANCH  22  28
ATOM     28  C   UNL     1       3.068   5.936  19.528  0.00  0.00    +0.000 C 
ATOM     29  O   UNL     1       2.689   5.002  20.216  0.00  0.00    +0.000 OA
BRANCH  28  31
ATOM     30  C   UNL     1       5.180   4.996  19.163  0.00  0.00    +0.000 C 
ATOM     31  O   UNL     1       4.199   5.959  18.781  0.00  0.00    +0.000 OA
ENDBRANCH  28  31
ENDBRANCH  22  28
ENDBRANCH  21  25
ENDBRANCH   1  21
TORSDOF 5
ENDMDL
