MODEL 1
REMARK VINA RESULT:      -6.9      0.000      0.000
REMARK  Name = 
REMARK  5 active torsions:
REMARK  status: ('A' for Active; 'I' for Inactive)
REMARK    1  A    between atoms: C_2  and  O_3
REMARK    2  A    between atoms: C_2  and  C_4
REMARK    3  A    between atoms: C_4  and  N_5
REMARK    4  A    between atoms: C_16  and  C_17
REMARK    5  A    between atoms: C_26  and  O_27
REMARK                            x       y       z     vdW  Elec       q    Type
REMARK                         _______ _______ _______ _____ _____    ______ ____
ROOT
ATOM      1  N   UNL     1       3.912  15.838  20.131  0.00  0.00    +0.000 N 
ATOM      2  C   UNL     1       2.703  16.237  19.648  0.00  0.00    +0.000 C 
ATOM      3  O   UNL     1       2.523  17.010  18.712  0.00  0.00    +0.000 OA
ATOM      4  C   UNL     1       1.637  15.381  20.263  0.00  0.00    +0.000 C 
ATOM      5  C   UNL     1       1.184  14.462  19.157  0.00  0.00    +0.000 C 
ATOM      6  C   UNL     1       2.311  13.360  19.116  0.00  0.00    +0.000 C 
ATOM      7  C   UNL     1       2.051  12.954  20.544  0.00  0.00    +0.000 C 
ATOM      8  C   UNL     1       2.335  14.385  21.206  0.00  0.00    +0.000 C 
ATOM      9  C   UNL     1       3.821  14.809  21.032  0.00  0.00    +0.000 C 
ATOM     10  O   UNL     1       4.763  14.191  21.508  0.00  0.00    +0.000 OA
ATOM     11  C   UNL     1       0.542  12.484  20.334  0.00  0.00    +0.000 C 
ATOM     12  C   UNL     1       0.178  11.364  19.268  0.00  0.00    +0.000 C 
ATOM     13  C   UNL     1      -1.335  11.239  19.117  0.00  0.00    +0.000 A 
ATOM     14  S   UNL     1      -2.068  10.090  18.077  0.00  0.00    +0.000 S 
ATOM     15  C   UNL     1      -3.523  10.962  18.170  0.00  0.00    +0.000 A 
ATOM     16  N   UNL     1      -3.541  12.034  18.911  0.00  0.00    +0.000 NA
ATOM     17  C   UNL     1      -2.267  12.230  19.440  0.00  0.00    +0.000 A 
ATOM     18  S   UNL     1      -1.777  13.837  20.162  0.00  0.00    +0.000 S 
ATOM     19  C   UNL     1      -0.065  13.688  19.585  0.00  0.00    +0.000 C 
ENDROOT
BRANCH  12  20
ATOM     20  C   UNL     1       1.053  10.154  19.116  0.00  0.00    +0.000 A 
ATOM     21  C   UNL     1       1.685   9.837  17.917  0.00  0.00    +0.000 A 
ATOM     22  C   UNL     1       2.290   8.590  17.775  0.00  0.00    +0.000 A 
ATOM     23  C   UNL     1       2.283   7.666  18.825  0.00  0.00    +0.000 A 
ATOM     24 CL   UNL     1       2.953   6.101  18.596  0.00  0.00    +0.000 Cl
ATOM     25  C   UNL     1       1.709   7.986  20.044  0.00  0.00    +0.000 A 
ATOM     26  C   UNL     1       1.109   9.234  20.192  0.00  0.00    +0.000 A 
ENDBRANCH  12  20
BRANCH  15  27
ATOM     27  O   UNL     1      -4.583  10.585  17.452  0.00  0.00    +0.000 OA
ATOM     28  H   UNL     1      -4.695   9.644  17.672  0.00  0.00    +0.000 HD
ENDBRANCH  15  27
BRANCH   1  29
ATOM     29  C   UNL     1       5.125  16.254  19.434  0.00  0.00    +0.000 C 
BRANCH  29  31
ATOM     30  O   UNL     1       6.506  14.570  18.397  0.00  0.00    +0.000 OA
ATOM     31  C   UNL     1       5.494  15.247  18.348  0.00  0.00    +0.000 C 
BRANCH  31  32
ATOM     32  O   UNL     1       4.607  15.136  17.348  0.00  0.00    +0.000 OA
ATOM     33  H   UNL     1       4.304  14.237  17.146  0.00  0.00    +0.000 HD
ENDBRANCH  31  32
ENDBRANCH  29  31
ENDBRANCH   1  29
TORSDOF 5
ENDMDL
MODEL 2
REMARK VINA RESULT:      -6.7      0.966      1.190
REMARK  Name = 
REMARK  5 active torsions:
REMARK  status: ('A' for Active; 'I' for Inactive)
REMARK    1  A    between atoms: C_2  and  O_3
REMARK    2  A    between atoms: C_2  and  C_4
REMARK    3  A    between atoms: C_4  and  N_5
REMARK    4  A    between atoms: C_16  and  C_17
REMARK    5  A    between atoms: C_26  and  O_27
REMARK                            x       y       z     vdW  Elec       q    Type
REMARK                         _______ _______ _______ _____ _____    ______ ____
ROOT
ATOM      1  N   UNL     1       4.087  15.800  19.787  0.00  0.00    +0.000 N 
ATOM      2  C   UNL     1       2.880  16.192  19.290  0.00  0.00    +0.000 C 
ATOM      3  O   UNL     1       2.706  16.922  18.319  0.00  0.00    +0.000 OA
ATOM      4  C   UNL     1       1.806  15.381  19.951  0.00  0.00    +0.000 C 
ATOM      5  C   UNL     1       1.335  14.417  18.892  0.00  0.00    +0.000 C 
ATOM      6  C   UNL     1       2.447  13.298  18.898  0.00  0.00    +0.000 C 
ATOM      7  C   UNL     1       2.189  12.965  20.346  0.00  0.00    +0.000 C 
ATOM      8  C   UNL     1       2.496  14.422  20.937  0.00  0.00    +0.000 C 
ATOM      9  C   UNL     1       3.986  14.817  20.736  0.00  0.00    +0.000 C 
ATOM     10  O   UNL     1       4.922  14.209  21.237  0.00  0.00    +0.000 OA
ATOM     11  C   UNL     1       0.673  12.506  20.166  0.00  0.00    +0.000 C 
ATOM     12  C   UNL     1       0.288  11.342  19.156  0.00  0.00    +0.000 C 
ATOM     13  C   UNL     1      -1.227  11.230  19.018  0.00  0.00    +0.000 A 
ATOM     14  S   UNL     1      -1.981  10.043  18.038  0.00  0.00    +0.000 S 
ATOM     15  C   UNL     1      -3.423  10.938  18.095  0.00  0.00    +0.000 A 
ATOM     16  N   UNL     1      -3.423  12.045  18.784  0.00  0.00    +0.000 NA
ATOM     17  C   UNL     1      -2.144  12.248  19.298  0.00  0.00    +0.000 A 
ATOM     18  S   UNL     1      -1.628  13.881  19.939  0.00  0.00    +0.000 S 
ATOM     19  C   UNL     1       0.078  13.681  19.362  0.00  0.00    +0.000 C 
ENDROOT
BRANCH  12  20
ATOM     20  C   UNL     1       1.146  10.114  19.058  0.00  0.00    +0.000 A 
ATOM     21  C   UNL     1       1.805   9.757  17.885  0.00  0.00    +0.000 A 
ATOM     22  C   UNL     1       2.392   8.496  17.791  0.00  0.00    +0.000 A 
ATOM     23  C   UNL     1       2.340   7.600  18.862  0.00  0.00    +0.000 A 
ATOM     24 CL   UNL     1       2.989   6.018  18.690  0.00  0.00    +0.000 Cl
ATOM     25  C   UNL     1       1.738   7.959  20.056  0.00  0.00    +0.000 A 
ATOM     26  C   UNL     1       1.156   9.220  20.157  0.00  0.00    +0.000 A 
ENDBRANCH  12  20
BRANCH  15  27
ATOM     27  O   UNL     1      -4.493  10.542  17.402  0.00  0.00    +0.000 OA
ATOM     28  H   UNL     1      -4.876   9.831  17.944  0.00  0.00    +0.000 HD
ENDBRANCH  15  27
BRANCH   1  29
ATOM     29  C   UNL     1       5.301  16.166  19.064  0.00  0.00    +0.000 C 
BRANCH  29  31
ATOM     30  O   UNL     1       6.038  18.354  19.764  0.00  0.00    +0.000 OA
ATOM     31  C   UNL     1       6.139  17.146  19.881  0.00  0.00    +0.000 C 
BRANCH  31  32
ATOM     32  O   UNL     1       6.977  16.581  20.764  0.00  0.00    +0.000 OA
ATOM     33  H   UNL     1       7.423  15.772  20.470  0.00  0.00    +0.000 HD
ENDBRANCH  31  32
ENDBRANCH  29  31
ENDBRANCH   1  29
TORSDOF 5
ENDMDL
MODEL 3
REMARK VINA RESULT:      -6.4      3.785      7.479
REMARK  Name = 
REMARK  5 active torsions:
REMARK  status: ('A' for Active; 'I' for Inactive)
REMARK    1  A    between atoms: C_2  and  O_3
REMARK    2  A    between atoms: C_2  and  C_4
REMARK    3  A    between atoms: C_4  and  N_5
REMARK    4  A    between atoms: C_16  and  C_17
REMARK    5  A    between atoms: C_26  and  O_27
REMARK                            x       y       z     vdW  Elec       q    Type
REMARK                         _______ _______ _______ _____ _____    ______ ____
ROOT
ATOM      1  N   UNL     1      -5.134  13.578  22.977  0.00  0.00    +0.000 N 
ATOM      2  C   UNL     1      -4.381  14.711  23.044  0.00  0.00    +0.000 C 
ATOM      3  O   UNL     1      -4.146  15.359  24.060  0.00  0.00    +0.000 OA
ATOM      4  C   UNL     1      -3.669  14.890  21.737  0.00  0.00    +0.000 C 
ATOM      5  C   UNL     1      -2.230  14.547  22.023  0.00  0.00    +0.000 C 
ATOM      6  C   UNL     1      -2.224  12.970  22.027  0.00  0.00    +0.000 C 
ATOM      7  C   UNL     1      -2.713  12.904  20.603  0.00  0.00    +0.000 C 
ATOM      8  C   UNL     1      -4.077  13.715  20.829  0.00  0.00    +0.000 C 
ATOM      9  C   UNL     1      -5.050  12.946  21.765  0.00  0.00    +0.000 C 
ATOM     10  O   UNL     1      -5.524  11.850  21.497  0.00  0.00    +0.000 OA
ATOM     11  C   UNL     1      -1.469  13.651  19.942  0.00  0.00    +0.000 C 
ATOM     12  C   UNL     1       0.009  13.105  20.144  0.00  0.00    +0.000 C 
ATOM     13  C   UNL     1       1.028  14.097  19.589  0.00  0.00    +0.000 A 
ATOM     14  S   UNL     1       2.715  13.796  19.606  0.00  0.00    +0.000 S 
ATOM     15  C   UNL     1       2.994  15.447  19.324  0.00  0.00    +0.000 A 
ATOM     16  N   UNL     1       1.955  16.226  19.203  0.00  0.00    +0.000 NA
ATOM     17  C   UNL     1       0.805  15.462  19.391  0.00  0.00    +0.000 A 
ATOM     18  S   UNL     1      -0.810  16.250  19.732  0.00  0.00    +0.000 S 
ATOM     19  C   UNL     1      -1.346  14.909  20.826  0.00  0.00    +0.000 C 
ENDROOT
BRANCH  12  20
ATOM     20  C   UNL     1       0.284  11.630  20.085  0.00  0.00    +0.000 A 
ATOM     21  C   UNL     1       0.554  10.876  21.224  0.00  0.00    +0.000 A 
ATOM     22  C   UNL     1       1.024   9.573  21.082  0.00  0.00    +0.000 A 
ATOM     23  C   UNL     1       1.211   9.013  19.814  0.00  0.00    +0.000 A 
ATOM     24 CL   UNL     1       1.880   7.438  19.662  0.00  0.00    +0.000 Cl
ATOM     25  C   UNL     1       0.895   9.728  18.672  0.00  0.00    +0.000 A 
ATOM     26  C   UNL     1       0.418  11.029  18.810  0.00  0.00    +0.000 A 
ENDBRANCH  12  20
BRANCH  15  27
ATOM     27  O   UNL     1       4.239  15.926  19.293  0.00  0.00    +0.000 OA
ATOM     28  H   UNL     1       4.715  15.311  18.709  0.00  0.00    +0.000 HD
ENDBRANCH  15  27
BRANCH   1  29
ATOM     29  C   UNL     1      -5.632  12.986  24.215  0.00  0.00    +0.000 C 
BRANCH  29  31
ATOM     30  O   UNL     1      -7.915  13.737  24.424  0.00  0.00    +0.000 OA
ATOM     31  C   UNL     1      -7.149  12.827  24.163  0.00  0.00    +0.000 C 
BRANCH  31  32
ATOM     32  O   UNL     1      -7.582  11.617  23.777  0.00  0.00    +0.000 OA
ATOM     33  H   UNL     1      -8.440  11.338  24.133  0.00  0.00    +0.000 HD
ENDBRANCH  31  32
ENDBRANCH  29  31
ENDBRANCH   1  29
TORSDOF 5
ENDMDL
MODEL 4
REMARK VINA RESULT:      -6.4      0.990      1.059
REMARK  Name = 
REMARK  5 active torsions:
REMARK  status: ('A' for Active; 'I' for Inactive)
REMARK    1  A    between atoms: C_2  and  O_3
REMARK    2  A    between atoms: C_2  and  C_4
REMARK    3  A    between atoms: C_4  and  N_5
REMARK    4  A    between atoms: C_16  and  C_17
REMARK    5  A    between atoms: C_26  and  O_27
REMARK                            x       y       z     vdW  Elec       q    Type
REMARK                         _______ _______ _______ _____ _____    ______ ____
ROOT
ATOM      1  N   UNL     1       2.810  16.108  21.107  0.00  0.00    +0.000 N 
ATOM      2  C   UNL     1       1.643  16.453  20.493  0.00  0.00    +0.000 C 
ATOM      3  O   UNL     1       1.517  17.303  19.616  0.00  0.00    +0.000 OA
ATOM      4  C   UNL     1       0.592  15.452  20.867  0.00  0.00    +0.000 C 
ATOM      5  C   UNL     1       0.384  14.621  19.627  0.00  0.00    +0.000 C 
ATOM      6  C   UNL     1       1.607  13.626  19.646  0.00  0.00    +0.000 C 
ATOM      7  C   UNL     1       1.198  13.051  20.979  0.00  0.00    +0.000 C 
ATOM      8  C   UNL     1       1.250  14.424  21.804  0.00  0.00    +0.000 C 
ATOM      9  C   UNL     1       2.697  14.986  21.886  0.00  0.00    +0.000 C 
ATOM     10  O   UNL     1       3.622  14.402  22.433  0.00  0.00    +0.000 OA
ATOM     11  C   UNL     1      -0.216  12.483  20.511  0.00  0.00    +0.000 C 
ATOM     12  C   UNL     1      -0.322  11.455  19.305  0.00  0.00    +0.000 C 
ATOM     13  C   UNL     1      -1.782  11.221  18.927  0.00  0.00    +0.000 A 
ATOM     14  S   UNL     1      -2.254  10.131  17.690  0.00  0.00    +0.000 S 
ATOM     15  C   UNL     1      -3.784  10.865  17.653  0.00  0.00    +0.000 A 
ATOM     16  N   UNL     1      -4.007  11.848  18.480  0.00  0.00    +0.000 NA
ATOM     17  C   UNL     1      -2.841  12.091  19.203  0.00  0.00    +0.000 A 
ATOM     18  S   UNL     1      -2.610  13.649  20.133  0.00  0.00    +0.000 S 
ATOM     19  C   UNL     1      -0.831  13.704  19.797  0.00  0.00    +0.000 C 
ENDROOT
BRANCH  12  20
ATOM     20  C   UNL     1       0.678  10.344  19.169  0.00  0.00    +0.000 A 
ATOM     21  C   UNL     1       1.367  10.103  17.983  0.00  0.00    +0.000 A 
ATOM     22  C   UNL     1       2.103   8.927  17.852  0.00  0.00    +0.000 A 
ATOM     23  C   UNL     1       2.169   8.002  18.898  0.00  0.00    +0.000 A 
ATOM     24 CL   UNL     1       3.006   6.517  18.679  0.00  0.00    +0.000 Cl
ATOM     25  C   UNL     1       1.537   8.252  20.104  0.00  0.00    +0.000 A 
ATOM     26  C   UNL     1       0.806   9.429  20.243  0.00  0.00    +0.000 A 
ENDBRANCH  12  20
BRANCH  15  27
ATOM     27  O   UNL     1      -4.697  10.479  16.759  0.00  0.00    +0.000 OA
ATOM     28  H   UNL     1      -4.402  10.889  15.927  0.00  0.00    +0.000 HD
ENDBRANCH  15  27
BRANCH   1  29
ATOM     29  C   UNL     1       4.059  16.695  20.632  0.00  0.00    +0.000 C 
BRANCH  29  31
ATOM     30  O   UNL     1       4.831  15.012  19.085  0.00  0.00    +0.000 OA
ATOM     31  C   UNL     1       4.422  16.147  19.255  0.00  0.00    +0.000 C 
BRANCH  31  32
ATOM     32  O   UNL     1       4.228  16.996  18.234  0.00  0.00    +0.000 OA
ATOM     33  H   UNL     1       4.440  16.656  17.351  0.00  0.00    +0.000 HD
ENDBRANCH  31  32
ENDBRANCH  29  31
ENDBRANCH   1  29
TORSDOF 5
ENDMDL
MODEL 5
REMARK VINA RESULT:      -6.3      3.135      4.098
REMARK  Name = 
REMARK  5 active torsions:
REMARK  status: ('A' for Active; 'I' for Inactive)
REMARK    1  A    between atoms: C_2  and  O_3
REMARK    2  A    between atoms: C_2  and  C_4
REMARK    3  A    between atoms: C_4  and  N_5
REMARK    4  A    between atoms: C_16  and  C_17
REMARK    5  A    between atoms: C_26  and  O_27
REMARK                            x       y       z     vdW  Elec       q    Type
REMARK                         _______ _______ _______ _____ _____    ______ ____
ROOT
ATOM      1  N   UNL     1       2.496  14.482  18.845  0.00  0.00    +0.000 N 
ATOM      2  C   UNL     1       1.758  15.134  19.786  0.00  0.00    +0.000 C 
ATOM      3  O   UNL     1       1.609  16.350  19.867  0.00  0.00    +0.000 OA
ATOM      4  C   UNL     1       0.947  14.125  20.542  0.00  0.00    +0.000 C 
ATOM      5  C   UNL     1      -0.468  14.318  20.060  0.00  0.00    +0.000 C 
ATOM      6  C   UNL     1      -0.484  13.572  18.670  0.00  0.00    +0.000 C 
ATOM      7  C   UNL     1      -0.110  12.256  19.304  0.00  0.00    +0.000 C 
ATOM      8  C   UNL     1       1.273  12.741  19.953  0.00  0.00    +0.000 C 
ATOM      9  C   UNL     1       2.312  13.124  18.861  0.00  0.00    +0.000 C 
ATOM     10  O   UNL     1       2.755  12.333  18.040  0.00  0.00    +0.000 OA
ATOM     11  C   UNL     1      -1.398  12.123  20.235  0.00  0.00    +0.000 C 
ATOM     12  C   UNL     1      -2.859  12.148  19.613  0.00  0.00    +0.000 C 
ATOM     13  C   UNL     1      -3.911  12.208  20.718  0.00  0.00    +0.000 A 
ATOM     14  S   UNL     1      -5.594  12.203  20.392  0.00  0.00    +0.000 S 
ATOM     15  C   UNL     1      -5.882  12.761  21.969  0.00  0.00    +0.000 A 
ATOM     16  N   UNL     1      -4.850  12.950  22.744  0.00  0.00    +0.000 NA
ATOM     17  C   UNL     1      -3.694  12.667  22.020  0.00  0.00    +0.000 A 
ATOM     18  S   UNL     1      -2.052  13.224  22.601  0.00  0.00    +0.000 S 
ATOM     19  C   UNL     1      -1.440  13.506  20.919  0.00  0.00    +0.000 C 
ENDROOT
BRANCH  12  20
ATOM     20  C   UNL     1      -3.148  11.415  18.336  0.00  0.00    +0.000 A 
ATOM     21  C   UNL     1      -2.387  10.330  17.910  0.00  0.00    +0.000 A 
ATOM     22  C   UNL     1      -2.561   9.844  16.616  0.00  0.00    +0.000 A 
ATOM     23  C   UNL     1      -3.497  10.421  15.752  0.00  0.00    +0.000 A 
ATOM     24 CL   UNL     1      -3.627   9.864  14.132  0.00  0.00    +0.000 Cl
ATOM     25  C   UNL     1      -4.302  11.463  16.178  0.00  0.00    +0.000 A 
ATOM     26  C   UNL     1      -4.137  11.949  17.472  0.00  0.00    +0.000 A 
ENDBRANCH  12  20
BRANCH  15  27
ATOM     27  O   UNL     1      -7.122  13.053  22.367  0.00  0.00    +0.000 OA
ATOM     28  H   UNL     1      -7.420  13.730  21.734  0.00  0.00    +0.000 HD
ENDBRANCH  15  27
BRANCH   1  29
ATOM     29  C   UNL     1       3.086  15.249  17.752  0.00  0.00    +0.000 C 
BRANCH  29  31
ATOM     30  O   UNL     1       5.467  15.176  18.128  0.00  0.00    +0.000 OA
ATOM     31  C   UNL     1       4.437  15.824  18.167  0.00  0.00    +0.000 C 
BRANCH  31  32
ATOM     32  O   UNL     1       4.416  17.111  18.548  0.00  0.00    +0.000 OA
ATOM     33  H   UNL     1       4.688  17.757  17.879  0.00  0.00    +0.000 HD
ENDBRANCH  31  32
ENDBRANCH  29  31
ENDBRANCH   1  29
TORSDOF 5
ENDMDL
MODEL 6
REMARK VINA RESULT:      -6.3      0.966      1.509
REMARK  Name = 
REMARK  5 active torsions:
REMARK  status: ('A' for Active; 'I' for Inactive)
REMARK    1  A    between atoms: C_2  and  O_3
REMARK    2  A    between atoms: C_2  and  C_4
REMARK    3  A    between atoms: C_4  and  N_5
REMARK    4  A    between atoms: C_16  and  C_17
REMARK    5  A    between atoms: C_26  and  O_27
REMARK                            x       y       z     vdW  Elec       q    Type
REMARK                         _______ _______ _______ _____ _____    ______ ____
ROOT
ATOM      1  N   UNL     1       3.715  15.414  20.141  0.00  0.00    +0.000 N 
ATOM      2  C   UNL     1       2.546  15.891  19.627  0.00  0.00    +0.000 C 
ATOM      3  O   UNL     1       2.440  16.657  18.674  0.00  0.00    +0.000 OA
ATOM      4  C   UNL     1       1.409  15.127  20.237  0.00  0.00    +0.000 C 
ATOM      5  C   UNL     1       0.910  14.223  19.139  0.00  0.00    +0.000 C 
ATOM      6  C   UNL     1       1.954  13.040  19.138  0.00  0.00    +0.000 C 
ATOM      7  C   UNL     1       1.640  12.682  20.569  0.00  0.00    +0.000 C 
ATOM      8  C   UNL     1       2.016  14.101  21.211  0.00  0.00    +0.000 C 
ATOM      9  C   UNL     1       3.531  14.412  21.058  0.00  0.00    +0.000 C 
ATOM     10  O   UNL     1       4.417  13.736  21.562  0.00  0.00    +0.000 OA
ATOM     11  C   UNL     1       0.104  12.319  20.338  0.00  0.00    +0.000 C 
ATOM     12  C   UNL     1      -0.322  11.209  19.286  0.00  0.00    +0.000 C 
ATOM     13  C   UNL     1      -1.838  11.192  19.108  0.00  0.00    +0.000 A 
ATOM     14  S   UNL     1      -2.634  10.080  18.074  0.00  0.00    +0.000 S 
ATOM     15  C   UNL     1      -4.022  11.057  18.123  0.00  0.00    +0.000 A 
ATOM     16  N   UNL     1      -3.975  12.142  18.845  0.00  0.00    +0.000 NA
ATOM     17  C   UNL     1      -2.700  12.254  19.395  0.00  0.00    +0.000 A 
ATOM     18  S   UNL     1      -2.106  13.834  20.097  0.00  0.00    +0.000 S 
ATOM     19  C   UNL     1      -0.400  13.550  19.556  0.00  0.00    +0.000 C 
ENDROOT
BRANCH  12  20
ATOM     20  C   UNL     1       0.465   9.935  19.172  0.00  0.00    +0.000 A 
ATOM     21  C   UNL     1       0.761   9.141  20.276  0.00  0.00    +0.000 A 
ATOM     22  C   UNL     1       1.681   8.103  20.140  0.00  0.00    +0.000 A 
ATOM     23  C   UNL     1       2.294   7.845  18.911  0.00  0.00    +0.000 A 
ATOM     24 CL   UNL     1       3.494   6.622  18.790  0.00  0.00    +0.000 Cl
ATOM     25  C   UNL     1       1.970   8.589  17.789  0.00  0.00    +0.000 A 
ATOM     26  C   UNL     1       1.045   9.622  17.918  0.00  0.00    +0.000 A 
ENDBRANCH  12  20
BRANCH  15  27
ATOM     27  O   UNL     1      -5.095  10.746  17.393  0.00  0.00    +0.000 OA
ATOM     28  H   UNL     1      -5.707  10.342  18.032  0.00  0.00    +0.000 HD
ENDBRANCH  15  27
BRANCH   1  29
ATOM     29  C   UNL     1       4.966  15.727  19.459  0.00  0.00    +0.000 C 
BRANCH  29  31
ATOM     30  O   UNL     1       5.532  18.060  19.705  0.00  0.00    +0.000 OA
ATOM     31  C   UNL     1       5.654  16.920  20.118  0.00  0.00    +0.000 C 
BRANCH  31  32
ATOM     32  O   UNL     1       6.381  16.628  21.207  0.00  0.00    +0.000 OA
ATOM     33  H   UNL     1       6.806  15.757  21.214  0.00  0.00    +0.000 HD
ENDBRANCH  31  32
ENDBRANCH  29  31
ENDBRANCH   1  29
TORSDOF 5
ENDMDL
MODEL 7
REMARK VINA RESULT:      -6.2      4.904      7.686
REMARK  Name = 
REMARK  5 active torsions:
REMARK  status: ('A' for Active; 'I' for Inactive)
REMARK    1  A    between atoms: C_2  and  O_3
REMARK    2  A    between atoms: C_2  and  C_4
REMARK    3  A    between atoms: C_4  and  N_5
REMARK    4  A    between atoms: C_16  and  C_17
REMARK    5  A    between atoms: C_26  and  O_27
REMARK                            x       y       z     vdW  Elec       q    Type
REMARK                         _______ _______ _______ _____ _____    ______ ____
ROOT
ATOM      1  N   UNL     1      -5.047  14.562  24.153  0.00  0.00    +0.000 N 
ATOM      2  C   UNL     1      -5.002  13.223  23.907  0.00  0.00    +0.000 C 
ATOM      3  O   UNL     1      -5.933  12.538  23.491  0.00  0.00    +0.000 OA
ATOM      4  C   UNL     1      -3.574  12.773  23.969  0.00  0.00    +0.000 C 
ATOM      5  C   UNL     1      -3.181  12.515  22.537  0.00  0.00    +0.000 C 
ATOM      6  C   UNL     1      -2.899  13.959  21.971  0.00  0.00    +0.000 C 
ATOM      7  C   UNL     1      -1.812  14.211  22.985  0.00  0.00    +0.000 C 
ATOM      8  C   UNL     1      -2.717  14.010  24.292  0.00  0.00    +0.000 C 
ATOM      9  C   UNL     1      -3.814  15.106  24.400  0.00  0.00    +0.000 C 
ATOM     10  O   UNL     1      -3.571  16.299  24.520  0.00  0.00    +0.000 OA
ATOM     11  C   UNL     1      -0.847  13.029  22.522  0.00  0.00    +0.000 C 
ATOM     12  C   UNL     1      -0.325  12.942  21.025  0.00  0.00    +0.000 C 
ATOM     13  C   UNL     1       0.410  11.626  20.788  0.00  0.00    +0.000 A 
ATOM     14  S   UNL     1       1.138  11.230  19.288  0.00  0.00    +0.000 S 
ATOM     15  C   UNL     1       1.207   9.604  19.771  0.00  0.00    +0.000 A 
ATOM     16  N   UNL     1       0.751   9.303  20.955  0.00  0.00    +0.000 NA
ATOM     17  C   UNL     1       0.250  10.461  21.545  0.00  0.00    +0.000 A 
ATOM     18  S   UNL     1      -0.856  10.382  22.999  0.00  0.00    +0.000 S 
ATOM     19  C   UNL     1      -1.814  11.828  22.475  0.00  0.00    +0.000 C 
ENDROOT
BRANCH  12  20
ATOM     20  C   UNL     1       0.104  14.185  20.301  0.00  0.00    +0.000 A 
ATOM     21  C   UNL     1      -0.636  14.735  19.259  0.00  0.00    +0.000 A 
ATOM     22  C   UNL     1      -0.073  15.746  18.483  0.00  0.00    +0.000 A 
ATOM     23  C   UNL     1       1.214  16.222  18.750  0.00  0.00    +0.000 A 
ATOM     24 CL   UNL     1       1.923  17.403  17.723  0.00  0.00    +0.000 Cl
ATOM     25  C   UNL     1       1.943  15.726  19.818  0.00  0.00    +0.000 A 
ATOM     26  C   UNL     1       1.382  14.721  20.600  0.00  0.00    +0.000 A 
ENDBRANCH  12  20
BRANCH  15  27
ATOM     27  O   UNL     1       1.658   8.668  18.933  0.00  0.00    +0.000 OA
ATOM     28  H   UNL     1       1.173   7.865  19.193  0.00  0.00    +0.000 HD
ENDBRANCH  15  27
BRANCH   1  29
ATOM     29  C   UNL     1      -6.252  15.306  23.799  0.00  0.00    +0.000 C 
BRANCH  29  31
ATOM     30  O   UNL     1      -5.660  16.547  21.817  0.00  0.00    +0.000 OA
ATOM     31  C   UNL     1      -6.275  15.616  22.305  0.00  0.00    +0.000 C 
BRANCH  31  32
ATOM     32  O   UNL     1      -6.997  14.767  21.558  0.00  0.00    +0.000 OA
ATOM     33  H   UNL     1      -6.918  14.872  20.597  0.00  0.00    +0.000 HD
ENDBRANCH  31  32
ENDBRANCH  29  31
ENDBRANCH   1  29
TORSDOF 5
ENDMDL
MODEL 8
REMARK VINA RESULT:      -6.1      4.805      7.528
REMARK  Name = 
REMARK  5 active torsions:
REMARK  status: ('A' for Active; 'I' for Inactive)
REMARK    1  A    between atoms: C_2  and  O_3
REMARK    2  A    between atoms: C_2  and  C_4
REMARK    3  A    between atoms: C_4  and  N_5
REMARK    4  A    between atoms: C_16  and  C_17
REMARK    5  A    between atoms: C_26  and  O_27
REMARK                            x       y       z     vdW  Elec       q    Type
REMARK                         _______ _______ _______ _____ _____    ______ ____
ROOT
ATOM      1  N   UNL     1      -4.521  14.331  24.041  0.00  0.00    +0.000 N 
ATOM      2  C   UNL     1      -4.519  13.015  23.685  0.00  0.00    +0.000 C 
ATOM      3  O   UNL     1      -5.482  12.387  23.254  0.00  0.00    +0.000 OA
ATOM      4  C   UNL     1      -3.101  12.532  23.651  0.00  0.00    +0.000 C 
ATOM      5  C   UNL     1      -2.771  12.384  22.188  0.00  0.00    +0.000 C 
ATOM      6  C   UNL     1      -2.477  13.864  21.730  0.00  0.00    +0.000 C 
ATOM      7  C   UNL     1      -1.345  14.009  22.714  0.00  0.00    +0.000 C 
ATOM      8  C   UNL     1      -2.202  13.720  24.037  0.00  0.00    +0.000 C 
ATOM      9  C   UNL     1      -3.266  14.826  24.281  0.00  0.00    +0.000 C 
ATOM     10  O   UNL     1      -2.990  15.999  24.487  0.00  0.00    +0.000 OA
ATOM     11  C   UNL     1      -0.428  12.849  22.117  0.00  0.00    +0.000 C 
ATOM     12  C   UNL     1       0.031  12.874  20.597  0.00  0.00    +0.000 C 
ATOM     13  C   UNL     1       0.723  11.566  20.224  0.00  0.00    +0.000 A 
ATOM     14  S   UNL     1       1.381  11.280  18.667  0.00  0.00    +0.000 S 
ATOM     15  C   UNL     1       1.430   9.619  19.012  0.00  0.00    +0.000 A 
ATOM     16  N   UNL     1       1.014   9.231  20.186  0.00  0.00    +0.000 NA
ATOM     17  C   UNL     1       0.566  10.347  20.889  0.00  0.00    +0.000 A 
ATOM     18  S   UNL     1      -0.483  10.172  22.376  0.00  0.00    +0.000 S 
ATOM     19  C   UNL     1      -1.425  11.676  22.012  0.00  0.00    +0.000 C 
ENDROOT
BRANCH  12  20
ATOM     20  C   UNL     1       0.462  14.163  19.960  0.00  0.00    +0.000 A 
ATOM     21  C   UNL     1       1.577  14.874  20.395  0.00  0.00    +0.000 A 
ATOM     22  C   UNL     1       1.789  16.166  19.920  0.00  0.00    +0.000 A 
ATOM     23  C   UNL     1       0.906  16.747  19.004  0.00  0.00    +0.000 A 
ATOM     24 CL   UNL     1       1.136  18.374  18.504  0.00  0.00    +0.000 Cl
ATOM     25  C   UNL     1      -0.176  16.034  18.518  0.00  0.00    +0.000 A 
ATOM     26  C   UNL     1      -0.388  14.740  18.984  0.00  0.00    +0.000 A 
ENDBRANCH  12  20
BRANCH  15  27
ATOM     27  O   UNL     1       1.823   8.746  18.083  0.00  0.00    +0.000 OA
ATOM     28  H   UNL     1       1.117   8.779  17.414  0.00  0.00    +0.000 HD
ENDBRANCH  15  27
BRANCH   1  29
ATOM     29  C   UNL     1      -5.720  15.127  23.800  0.00  0.00    +0.000 C 
BRANCH  29  31
ATOM     30  O   UNL     1      -5.268  16.695  22.024  0.00  0.00    +0.000 OA
ATOM     31  C   UNL     1      -5.752  15.629  22.359  0.00  0.00    +0.000 C 
BRANCH  31  32
ATOM     32  O   UNL     1      -6.326  14.796  21.478  0.00  0.00    +0.000 OA
ATOM     33  H   UNL     1      -7.268  14.946  21.301  0.00  0.00    +0.000 HD
ENDBRANCH  31  32
ENDBRANCH  29  31
ENDBRANCH   1  29
TORSDOF 5
ENDMDL
MODEL 9
REMARK VINA RESULT:      -6.1      4.171      8.081
REMARK  Name = 
REMARK  5 active torsions:
REMARK  status: ('A' for Active; 'I' for Inactive)
REMARK    1  A    between atoms: C_2  and  O_3
REMARK    2  A    between atoms: C_2  and  C_4
REMARK    3  A    between atoms: C_4  and  N_5
REMARK    4  A    between atoms: C_16  and  C_17
REMARK    5  A    between atoms: C_26  and  O_27
REMARK                            x       y       z     vdW  Elec       q    Type
REMARK                         _______ _______ _______ _____ _____    ______ ____
ROOT
ATOM      1  N   UNL     1      -6.833  13.953  22.446  0.00  0.00    +0.000 N 
ATOM      2  C   UNL     1      -6.145  15.109  22.658  0.00  0.00    +0.000 C 
ATOM      3  O   UNL     1      -6.201  15.804  23.669  0.00  0.00    +0.000 OA
ATOM      4  C   UNL     1      -5.113  15.256  21.580  0.00  0.00    +0.000 C 
ATOM      5  C   UNL     1      -3.797  14.967  22.255  0.00  0.00    +0.000 C 
ATOM      6  C   UNL     1      -3.766  13.392  22.333  0.00  0.00    +0.000 C 
ATOM      7  C   UNL     1      -3.855  13.254  20.835  0.00  0.00    +0.000 C 
ATOM      8  C   UNL     1      -5.243  14.035  20.652  0.00  0.00    +0.000 C 
ATOM      9  C   UNL     1      -6.418  13.275  21.330  0.00  0.00    +0.000 C 
ATOM     10  O   UNL     1      -6.785  12.157  20.996  0.00  0.00    +0.000 OA
ATOM     11  C   UNL     1      -2.492  14.010  20.495  0.00  0.00    +0.000 C 
ATOM     12  C   UNL     1      -1.113  13.515  21.108  0.00  0.00    +0.000 C 
ATOM     13  C   UNL     1      -0.000  14.513  20.798  0.00  0.00    +0.000 A 
ATOM     14  S   UNL     1       1.626  14.262  21.278  0.00  0.00    +0.000 S 
ATOM     15  C   UNL     1       1.942  15.907  21.004  0.00  0.00    +0.000 A 
ATOM     16  N   UNL     1       0.960  16.650  20.575  0.00  0.00    +0.000 NA
ATOM     17  C   UNL     1      -0.186  15.862  20.485  0.00  0.00    +0.000 A 
ATOM     18  S   UNL     1      -1.846  16.617  20.347  0.00  0.00    +0.000 S 
ATOM     19  C   UNL     1      -2.632  15.306  21.321  0.00  0.00    +0.000 C 
ENDROOT
BRANCH  12  20
ATOM     20  C   UNL     1      -0.807  12.048  21.193  0.00  0.00    +0.000 A 
ATOM     21  C   UNL     1      -0.647  11.389  22.409  0.00  0.00    +0.000 A 
ATOM     22  C   UNL     1      -0.141  10.091  22.418  0.00  0.00    +0.000 A 
ATOM     23  C   UNL     1       0.190   9.442  21.224  0.00  0.00    +0.000 A 
ATOM     24 CL   UNL     1       0.898   7.878  21.265  0.00  0.00    +0.000 Cl
ATOM     25  C   UNL     1      -0.017  10.061  20.003  0.00  0.00    +0.000 A 
ATOM     26  C   UNL     1      -0.528  11.356  19.989  0.00  0.00    +0.000 A 
ENDBRANCH  12  20
BRANCH  15  27
ATOM     27  O   UNL     1       3.142  16.421  21.283  0.00  0.00    +0.000 OA
ATOM     28  H   UNL     1       3.221  17.178  20.677  0.00  0.00    +0.000 HD
ENDBRANCH  15  27
BRANCH   1  29
ATOM     29  C   UNL     1      -7.634  13.398  23.532  0.00  0.00    +0.000 C 
BRANCH  29  31
ATOM     30  O   UNL     1      -5.962  12.058  24.642  0.00  0.00    +0.000 OA
ATOM     31  C   UNL     1      -7.021  12.095  24.041  0.00  0.00    +0.000 C 
BRANCH  31  32
ATOM     32  O   UNL     1      -7.750  10.993  23.807  0.00  0.00    +0.000 OA
ATOM     33  H   UNL     1      -7.950  10.805  22.877  0.00  0.00    +0.000 HD
ENDBRANCH  31  32
ENDBRANCH  29  31
ENDBRANCH   1  29
TORSDOF 5
ENDMDL
