MODEL 1
REMARK VINA RESULT:      -6.5      0.000      0.000
REMARK  Name = 
REMARK  9 active torsions:
REMARK  status: ('A' for Active; 'I' for Inactive)
REMARK    1  A    between atoms: C_2  and  O_3
REMARK    2  A    between atoms: C_2  and  C_4
REMARK    3  A    between atoms: N_7  and  C_8
REMARK    4  A    between atoms: C_8  and  S_10
REMARK    5  A    between atoms: S_10  and  S_11
REMARK    6  A    between atoms: S_11  and  C_12
REMARK    7  A    between atoms: C_12  and  N_14
REMARK    8  A    between atoms: C_17  and  C_18
REMARK    9  A    between atoms: C_18  and  O_20
REMARK                            x       y       z     vdW  Elec       q    Type
REMARK                         _______ _______ _______ _____ _____    ______ ____
ROOT
ATOM      1  S   UNL     1       1.909   4.415  18.938  0.00  0.00    +0.000 S 
ENDROOT
BRANCH   1   2
ATOM      2  C   UNL     1       3.473   3.570  19.079  0.00  0.00    +0.000 C 
ATOM      3  S   UNL     1       3.646   2.420  20.306  0.00  0.00    +0.000 S 
BRANCH   2   7
ATOM      4  C   UNL     1       6.035   5.752  16.427  0.00  0.00    +0.000 C 
ATOM      5  C   UNL     1       6.026   5.945  17.948  0.00  0.00    +0.000 C 
ATOM      6  C   UNL     1       5.731   4.657  18.723  0.00  0.00    +0.000 C 
ATOM      7  N   UNL     1       4.512   3.997  18.221  0.00  0.00    +0.000 N 
ATOM      8  C   UNL     1       4.602   3.675  16.787  0.00  0.00    +0.000 C 
ATOM      9  C   UNL     1       4.823   4.941  15.956  0.00  0.00    +0.000 C 
BRANCH   4  11
ATOM     10  O   UNL     1       8.060   4.424  16.645  0.00  0.00    +0.000 OA
ATOM     11  C   UNL     1       7.327   5.109  15.951  0.00  0.00    +0.000 C 
BRANCH  11  12
ATOM     12  O   UNL     1       7.591   5.349  14.647  0.00  0.00    +0.000 OA
ATOM     13  H   UNL     1       6.931   4.994  14.022  0.00  0.00    +0.000 HD
ENDBRANCH  11  12
ENDBRANCH   4  11
ENDBRANCH   2   7
ENDBRANCH   1   2
BRANCH   1  14
ATOM     14  S   UNL     1       1.970   5.777  20.498  0.00  0.00    +0.000 S 
BRANCH  14  15
ATOM     15  C   UNL     1       2.063   7.345  19.655  0.00  0.00    +0.000 C 
ATOM     16  S   UNL     1       2.796   7.385  18.131  0.00  0.00    +0.000 S 
BRANCH  15  17
ATOM     17  N   UNL     1       1.458   8.455  20.282  0.00  0.00    +0.000 N 
ATOM     18  C   UNL     1       0.994   8.426  21.679  0.00  0.00    +0.000 C 
ATOM     19  C   UNL     1      -0.499   8.742  21.759  0.00  0.00    +0.000 C 
ATOM     20  C   UNL     1      -0.841  10.079  21.091  0.00  0.00    +0.000 C 
ATOM     21  C   UNL     1      -0.225  10.157  19.683  0.00  0.00    +0.000 C 
ATOM     22  C   UNL     1       1.259   9.774  19.658  0.00  0.00    +0.000 C 
BRANCH  20  23
ATOM     23  C   UNL     1      -0.409  11.257  21.953  0.00  0.00    +0.000 C 
ATOM     24  O   UNL     1      -0.512  11.309  23.168  0.00  0.00    +0.000 OA
BRANCH  23  25
ATOM     25  O   UNL     1       0.137  12.270  21.241  0.00  0.00    +0.000 OA
ATOM     26  H   UNL     1       0.895  12.711  21.668  0.00  0.00    +0.000 HD
ENDBRANCH  23  25
ENDBRANCH  20  23
ENDBRANCH  15  17
ENDBRANCH  14  15
ENDBRANCH   1  14
TORSDOF 9
ENDMDL
MODEL 2
REMARK VINA RESULT:      -6.4      0.850      8.568
REMARK  Name = 
REMARK  9 active torsions:
REMARK  status: ('A' for Active; 'I' for Inactive)
REMARK    1  A    between atoms: C_2  and  O_3
REMARK    2  A    between atoms: C_2  and  C_4
REMARK    3  A    between atoms: N_7  and  C_8
REMARK    4  A    between atoms: C_8  and  S_10
REMARK    5  A    between atoms: S_10  and  S_11
REMARK    6  A    between atoms: S_11  and  C_12
REMARK    7  A    between atoms: C_12  and  N_14
REMARK    8  A    between atoms: C_17  and  C_18
REMARK    9  A    between atoms: C_18  and  O_20
REMARK                            x       y       z     vdW  Elec       q    Type
REMARK                         _______ _______ _______ _____ _____    ______ ____
ROOT
ATOM      1  S   UNL     1       2.474   5.969  20.069  0.00  0.00    +0.000 S 
ENDROOT
BRANCH   1   2
ATOM      2  C   UNL     1       2.196   7.539  19.270  0.00  0.00    +0.000 C 
ATOM      3  S   UNL     1       2.912   7.799  17.760  0.00  0.00    +0.000 S 
BRANCH   2   7
ATOM      4  C   UNL     1      -0.815   9.968  21.109  0.00  0.00    +0.000 C 
ATOM      5  C   UNL     1      -0.350   8.620  21.674  0.00  0.00    +0.000 C 
ATOM      6  C   UNL     1       1.134   8.337  21.425  0.00  0.00    +0.000 C 
ATOM      7  N   UNL     1       1.482   8.514  20.002  0.00  0.00    +0.000 N 
ATOM      8  C   UNL     1       1.172   9.869  19.518  0.00  0.00    +0.000 C 
ATOM      9  C   UNL     1      -0.318  10.179  19.676  0.00  0.00    +0.000 C 
BRANCH   4  11
ATOM     10  O   UNL     1      -0.321  12.289  21.640  0.00  0.00    +0.000 OA
ATOM     11  C   UNL     1      -0.392  11.125  21.999  0.00  0.00    +0.000 C 
BRANCH  11  12
ATOM     12  O   UNL     1      -0.116  10.746  23.267  0.00  0.00    +0.000 OA
ATOM     13  H   UNL     1      -0.349   9.823  23.481  0.00  0.00    +0.000 HD
ENDBRANCH  11  12
ENDBRANCH   4  11
ENDBRANCH   2   7
ENDBRANCH   1   2
BRANCH   1  14
ATOM     14  S   UNL     1       1.952   4.599  18.604  0.00  0.00    +0.000 S 
BRANCH  14  15
ATOM     15  C   UNL     1       3.451   3.662  18.382  0.00  0.00    +0.000 C 
ATOM     16  S   UNL     1       3.478   2.063  18.934  0.00  0.00    +0.000 S 
BRANCH  15  17
ATOM     17  N   UNL     1       4.511   4.289  17.693  0.00  0.00    +0.000 N 
ATOM     18  C   UNL     1       4.644   4.248  16.227  0.00  0.00    +0.000 C 
ATOM     19  C   UNL     1       5.981   3.627  15.824  0.00  0.00    +0.000 C 
ATOM     20  C   UNL     1       7.170   4.352  16.466  0.00  0.00    +0.000 C 
ATOM     21  C   UNL     1       6.951   4.520  17.980  0.00  0.00    +0.000 C 
ATOM     22  C   UNL     1       5.571   5.094  18.324  0.00  0.00    +0.000 C 
BRANCH  20  23
ATOM     23  C   UNL     1       7.434   5.690  15.790  0.00  0.00    +0.000 C 
ATOM     24  O   UNL     1       7.514   6.762  16.369  0.00  0.00    +0.000 OA
BRANCH  23  25
ATOM     25  O   UNL     1       7.600   5.590  14.451  0.00  0.00    +0.000 OA
ATOM     26  H   UNL     1       7.102   4.866  14.029  0.00  0.00    +0.000 HD
ENDBRANCH  23  25
ENDBRANCH  20  23
ENDBRANCH  15  17
ENDBRANCH  14  15
ENDBRANCH   1  14
TORSDOF 9
ENDMDL
MODEL 3
REMARK VINA RESULT:      -6.4      0.262      8.516
REMARK  Name = 
REMARK  9 active torsions:
REMARK  status: ('A' for Active; 'I' for Inactive)
REMARK    1  A    between atoms: C_2  and  O_3
REMARK    2  A    between atoms: C_2  and  C_4
REMARK    3  A    between atoms: N_7  and  C_8
REMARK    4  A    between atoms: C_8  and  S_10
REMARK    5  A    between atoms: S_10  and  S_11
REMARK    6  A    between atoms: S_11  and  C_12
REMARK    7  A    between atoms: C_12  and  N_14
REMARK    8  A    between atoms: C_17  and  C_18
REMARK    9  A    between atoms: C_18  and  O_20
REMARK                            x       y       z     vdW  Elec       q    Type
REMARK                         _______ _______ _______ _____ _____    ______ ____
ROOT
ATOM      1  S   UNL     1       2.360   6.136  20.420  0.00  0.00    +0.000 S 
ENDROOT
BRANCH   1   2
ATOM      2  C   UNL     1       2.077   7.634  19.495  0.00  0.00    +0.000 C 
ATOM      3  S   UNL     1       2.717   7.736  17.933  0.00  0.00    +0.000 S 
BRANCH   2   7
ATOM      4  C   UNL     1      -0.770  10.293  21.277  0.00  0.00    +0.000 C 
ATOM      5  C   UNL     1      -0.281   9.002  21.945  0.00  0.00    +0.000 C 
ATOM      6  C   UNL     1       1.179   8.667  21.624  0.00  0.00    +0.000 C 
ATOM      7  N   UNL     1       1.427   8.692  20.171  0.00  0.00    +0.000 N 
ATOM      8  C   UNL     1       1.099   9.995  19.571  0.00  0.00    +0.000 C 
ATOM      9  C   UNL     1      -0.373  10.347  19.799  0.00  0.00    +0.000 C 
BRANCH   4  11
ATOM     10  O   UNL     1       0.409  12.406  21.511  0.00  0.00    +0.000 OA
ATOM     11  C   UNL     1      -0.272  11.527  22.011  0.00  0.00    +0.000 C 
BRANCH  11  12
ATOM     12  O   UNL     1      -0.682  11.581  23.298  0.00  0.00    +0.000 OA
ATOM     13  H   UNL     1      -1.064  12.435  23.573  0.00  0.00    +0.000 HD
ENDBRANCH  11  12
ENDBRANCH   4  11
ENDBRANCH   2   7
ENDBRANCH   1   2
BRANCH   1  14
ATOM     14  S   UNL     1       2.048   4.650  19.010  0.00  0.00    +0.000 S 
BRANCH  14  15
ATOM     15  C   UNL     1       3.535   3.674  19.123  0.00  0.00    +0.000 C 
ATOM     16  S   UNL     1       3.561   2.389  20.222  0.00  0.00    +0.000 S 
BRANCH  15  17
ATOM     17  N   UNL     1       4.586   3.990  18.236  0.00  0.00    +0.000 N 
ATOM     18  C   UNL     1       5.814   4.677  18.668  0.00  0.00    +0.000 C 
ATOM     19  C   UNL     1       6.007   5.978  17.889  0.00  0.00    +0.000 C 
ATOM     20  C   UNL     1       6.009   5.745  16.373  0.00  0.00    +0.000 C 
ATOM     21  C   UNL     1       4.796   4.899  15.952  0.00  0.00    +0.000 C 
ATOM     22  C   UNL     1       4.621   3.638  16.806  0.00  0.00    +0.000 C 
BRANCH  20  23
ATOM     23  C   UNL     1       7.315   5.116  15.910  0.00  0.00    +0.000 C 
ATOM     24  O   UNL     1       8.048   4.433  16.607  0.00  0.00    +0.000 OA
BRANCH  23  25
ATOM     25  O   UNL     1       7.599   5.367  14.610  0.00  0.00    +0.000 OA
ATOM     26  H   UNL     1       8.497   5.708  14.445  0.00  0.00    +0.000 HD
ENDBRANCH  23  25
ENDBRANCH  20  23
ENDBRANCH  15  17
ENDBRANCH  14  15
ENDBRANCH   1  14
TORSDOF 9
ENDMDL
MODEL 4
REMARK VINA RESULT:      -6.4      3.151      9.416
REMARK  Name = 
REMARK  9 active torsions:
REMARK  status: ('A' for Active; 'I' for Inactive)
REMARK    1  A    between atoms: C_2  and  O_3
REMARK    2  A    between atoms: C_2  and  C_4
REMARK    3  A    between atoms: N_7  and  C_8
REMARK    4  A    between atoms: C_8  and  S_10
REMARK    5  A    between atoms: S_10  and  S_11
REMARK    6  A    between atoms: S_11  and  C_12
REMARK    7  A    between atoms: C_12  and  N_14
REMARK    8  A    between atoms: C_17  and  C_18
REMARK    9  A    between atoms: C_18  and  O_20
REMARK                            x       y       z     vdW  Elec       q    Type
REMARK                         _______ _______ _______ _____ _____    ______ ____
ROOT
ATOM      1  S   UNL     1       0.986   8.846  18.998  0.00  0.00    +0.000 S 
ENDROOT
BRANCH   1   2
ATOM      2  C   UNL     1       0.557  10.513  18.532  0.00  0.00    +0.000 C 
ATOM      3  S   UNL     1       1.677  11.739  18.851  0.00  0.00    +0.000 S 
BRANCH   2   7
ATOM      4  C   UNL     1      -3.678  10.789  17.951  0.00  0.00    +0.000 C 
ATOM      5  C   UNL     1      -2.853  11.847  18.694  0.00  0.00    +0.000 C 
ATOM      6  C   UNL     1      -1.438  12.019  18.133  0.00  0.00    +0.000 C 
ATOM      7  N   UNL     1      -0.745  10.722  18.023  0.00  0.00    +0.000 N 
ATOM      8  C   UNL     1      -1.477   9.768  17.174  0.00  0.00    +0.000 C 
ATOM      9  C   UNL     1      -2.877   9.502  17.732  0.00  0.00    +0.000 C 
BRANCH   4  11
ATOM     10  O   UNL     1      -4.116  10.744  15.560  0.00  0.00    +0.000 OA
ATOM     11  C   UNL     1      -4.211  11.321  16.631  0.00  0.00    +0.000 C 
BRANCH  11  12
ATOM     12  O   UNL     1      -4.839  12.511  16.752  0.00  0.00    +0.000 OA
ATOM     13  H   UNL     1      -4.248  13.280  16.854  0.00  0.00    +0.000 HD
ENDBRANCH  11  12
ENDBRANCH   4  11
ENDBRANCH   2   7
ENDBRANCH   1   2
BRANCH   1  14
ATOM     14  S   UNL     1       2.579   8.405  17.749  0.00  0.00    +0.000 S 
BRANCH  14  15
ATOM     15  C   UNL     1       3.212   6.885  18.430  0.00  0.00    +0.000 C 
ATOM     16  S   UNL     1       2.365   6.174  19.710  0.00  0.00    +0.000 S 
BRANCH  15  17
ATOM     17  N   UNL     1       4.350   6.323  17.814  0.00  0.00    +0.000 N 
ATOM     18  C   UNL     1       5.025   6.949  16.665  0.00  0.00    +0.000 C 
ATOM     19  C   UNL     1       5.055   5.996  15.471  0.00  0.00    +0.000 C 
ATOM     20  C   UNL     1       5.701   4.650  15.825  0.00  0.00    +0.000 C 
ATOM     21  C   UNL     1       5.087   4.075  17.113  0.00  0.00    +0.000 C 
ATOM     22  C   UNL     1       5.032   5.095  18.256  0.00  0.00    +0.000 C 
BRANCH  20  23
ATOM     23  C   UNL     1       7.214   4.773  15.935  0.00  0.00    +0.000 C 
ATOM     24  O   UNL     1       7.889   4.302  16.836  0.00  0.00    +0.000 OA
BRANCH  23  25
ATOM     25  O   UNL     1       7.772   5.454  14.908  0.00  0.00    +0.000 OA
ATOM     26  H   UNL     1       8.565   5.972  15.141  0.00  0.00    +0.000 HD
ENDBRANCH  23  25
ENDBRANCH  20  23
ENDBRANCH  15  17
ENDBRANCH  14  15
ENDBRANCH   1  14
TORSDOF 9
ENDMDL
MODEL 5
REMARK VINA RESULT:      -6.2      1.618      2.313
REMARK  Name = 
REMARK  9 active torsions:
REMARK  status: ('A' for Active; 'I' for Inactive)
REMARK    1  A    between atoms: C_2  and  O_3
REMARK    2  A    between atoms: C_2  and  C_4
REMARK    3  A    between atoms: N_7  and  C_8
REMARK    4  A    between atoms: C_8  and  S_10
REMARK    5  A    between atoms: S_10  and  S_11
REMARK    6  A    between atoms: S_11  and  C_12
REMARK    7  A    between atoms: C_12  and  N_14
REMARK    8  A    between atoms: C_17  and  C_18
REMARK    9  A    between atoms: C_18  and  O_20
REMARK                            x       y       z     vdW  Elec       q    Type
REMARK                         _______ _______ _______ _____ _____    ______ ____
ROOT
ATOM      1  S   UNL     1       2.504   3.649  18.197  0.00  0.00    +0.000 S 
ENDROOT
BRANCH   1   2
ATOM      2  C   UNL     1       4.159   3.347  18.788  0.00  0.00    +0.000 C 
ATOM      3  S   UNL     1       4.417   1.991  19.765  0.00  0.00    +0.000 S 
BRANCH   2   7
ATOM      4  C   UNL     1       7.790   5.529  18.151  0.00  0.00    +0.000 C 
ATOM      5  C   UNL     1       7.195   4.554  17.127  0.00  0.00    +0.000 C 
ATOM      6  C   UNL     1       5.663   4.529  17.131  0.00  0.00    +0.000 C 
ATOM      7  N   UNL     1       5.134   4.326  18.492  0.00  0.00    +0.000 N 
ATOM      8  C   UNL     1       5.591   5.365  19.429  0.00  0.00    +0.000 C 
ATOM      9  C   UNL     1       7.119   5.386  19.520  0.00  0.00    +0.000 C 
BRANCH   4  11
ATOM     10  O   UNL     1       7.148   7.328  16.646  0.00  0.00    +0.000 OA
ATOM     11  C   UNL     1       7.713   6.967  17.665  0.00  0.00    +0.000 C 
BRANCH  11  12
ATOM     12  O   UNL     1       8.322   7.842  18.497  0.00  0.00    +0.000 OA
ATOM     13  H   UNL     1       7.852   8.008  19.335  0.00  0.00    +0.000 HD
ENDBRANCH  11  12
ENDBRANCH   4  11
ENDBRANCH   2   7
ENDBRANCH   1   2
BRANCH   1  14
ATOM     14  S   UNL     1       2.442   5.712  18.010  0.00  0.00    +0.000 S 
BRANCH  14  15
ATOM     15  C   UNL     1       1.952   6.245  19.639  0.00  0.00    +0.000 C 
ATOM     16  S   UNL     1       1.844   5.077  20.858  0.00  0.00    +0.000 S 
BRANCH  15  17
ATOM     17  N   UNL     1       1.747   7.627  19.834  0.00  0.00    +0.000 N 
ATOM     18  C   UNL     1       1.336   8.197  21.128  0.00  0.00    +0.000 C 
ATOM     19  C   UNL     1       0.024   8.967  20.985  0.00  0.00    +0.000 C 
ATOM     20  C   UNL     1       0.107  10.052  19.905  0.00  0.00    +0.000 C 
ATOM     21  C   UNL     1       0.678   9.475  18.598  0.00  0.00    +0.000 C 
ATOM     22  C   UNL     1       1.962   8.666  18.812  0.00  0.00    +0.000 C 
BRANCH  20  23
ATOM     23  C   UNL     1       0.914  11.251  20.384  0.00  0.00    +0.000 C 
ATOM     24  O   UNL     1       1.354  11.391  21.514  0.00  0.00    +0.000 OA
BRANCH  23  25
ATOM     25  O   UNL     1       1.129  12.172  19.417  0.00  0.00    +0.000 OA
ATOM     26  H   UNL     1       0.792  11.929  18.535  0.00  0.00    +0.000 HD
ENDBRANCH  23  25
ENDBRANCH  20  23
ENDBRANCH  15  17
ENDBRANCH  14  15
ENDBRANCH   1  14
TORSDOF 9
ENDMDL
MODEL 6
REMARK VINA RESULT:      -6.2      0.943      1.376
REMARK  Name = 
REMARK  9 active torsions:
REMARK  status: ('A' for Active; 'I' for Inactive)
REMARK    1  A    between atoms: C_2  and  O_3
REMARK    2  A    between atoms: C_2  and  C_4
REMARK    3  A    between atoms: N_7  and  C_8
REMARK    4  A    between atoms: C_8  and  S_10
REMARK    5  A    between atoms: S_10  and  S_11
REMARK    6  A    between atoms: S_11  and  C_12
REMARK    7  A    between atoms: C_12  and  N_14
REMARK    8  A    between atoms: C_17  and  C_18
REMARK    9  A    between atoms: C_18  and  O_20
REMARK                            x       y       z     vdW  Elec       q    Type
REMARK                         _______ _______ _______ _____ _____    ______ ____
ROOT
ATOM      1  S   UNL     1       1.510   4.819  19.426  0.00  0.00    +0.000 S 
ENDROOT
BRANCH   1   2
ATOM      2  C   UNL     1       2.514   3.492  18.786  0.00  0.00    +0.000 C 
ATOM      3  S   UNL     1       1.914   1.915  18.903  0.00  0.00    +0.000 S 
BRANCH   2   7
ATOM      4  C   UNL     1       6.166   5.480  17.757  0.00  0.00    +0.000 C 
ATOM      5  C   UNL     1       5.863   4.932  19.157  0.00  0.00    +0.000 C 
ATOM      6  C   UNL     1       5.015   3.657  19.140  0.00  0.00    +0.000 C 
ATOM      7  N   UNL     1       3.803   3.831  18.317  0.00  0.00    +0.000 N 
ATOM      8  C   UNL     1       4.121   4.205  16.930  0.00  0.00    +0.000 C 
ATOM      9  C   UNL     1       4.909   5.517  16.883  0.00  0.00    +0.000 C 
BRANCH   4  11
ATOM     10  O   UNL     1       7.442   4.637  15.867  0.00  0.00    +0.000 OA
ATOM     11  C   UNL     1       7.271   4.692  17.073  0.00  0.00    +0.000 C 
BRANCH  11  12
ATOM     12  O   UNL     1       8.087   4.058  17.944  0.00  0.00    +0.000 OA
ATOM     13  H   UNL     1       9.032   4.290  17.867  0.00  0.00    +0.000 HD
ENDBRANCH  11  12
ENDBRANCH   4  11
ENDBRANCH   2   7
ENDBRANCH   1   2
BRANCH   1  14
ATOM     14  S   UNL     1       2.904   6.280  19.888  0.00  0.00    +0.000 S 
BRANCH  14  15
ATOM     15  C   UNL     1       2.197   7.748  19.165  0.00  0.00    +0.000 C 
ATOM     16  S   UNL     1       2.267   7.918  17.483  0.00  0.00    +0.000 S 
BRANCH  15  17
ATOM     17  N   UNL     1       1.557   8.656  20.035  0.00  0.00    +0.000 N 
ATOM     18  C   UNL     1       1.273   8.342  21.445  0.00  0.00    +0.000 C 
ATOM     19  C   UNL     1      -0.224   8.449  21.731  0.00  0.00    +0.000 C 
ATOM     20  C   UNL     1      -0.786   9.824  21.347  0.00  0.00    +0.000 C 
ATOM     21  C   UNL     1      -0.359  10.206  19.920  0.00  0.00    +0.000 C 
ATOM     22  C   UNL     1       1.144  10.023  19.677  0.00  0.00    +0.000 C 
BRANCH  20  23
ATOM     23  C   UNL     1      -0.381  10.890  22.355  0.00  0.00    +0.000 C 
ATOM     24  O   UNL     1      -0.116  12.049  22.077  0.00  0.00    +0.000 OA
BRANCH  23  25
ATOM     25  O   UNL     1      -0.355  10.440  23.631  0.00  0.00    +0.000 OA
ATOM     26  H   UNL     1      -0.477  11.127  24.311  0.00  0.00    +0.000 HD
ENDBRANCH  23  25
ENDBRANCH  20  23
ENDBRANCH  15  17
ENDBRANCH  14  15
ENDBRANCH   1  14
TORSDOF 9
ENDMDL
MODEL 7
REMARK VINA RESULT:      -6.1      3.961      8.966
REMARK  Name = 
REMARK  9 active torsions:
REMARK  status: ('A' for Active; 'I' for Inactive)
REMARK    1  A    between atoms: C_2  and  O_3
REMARK    2  A    between atoms: C_2  and  C_4
REMARK    3  A    between atoms: N_7  and  C_8
REMARK    4  A    between atoms: C_8  and  S_10
REMARK    5  A    between atoms: S_10  and  S_11
REMARK    6  A    between atoms: S_11  and  C_12
REMARK    7  A    between atoms: C_12  and  N_14
REMARK    8  A    between atoms: C_17  and  C_18
REMARK    9  A    between atoms: C_18  and  O_20
REMARK                            x       y       z     vdW  Elec       q    Type
REMARK                         _______ _______ _______ _____ _____    ______ ____
ROOT
ATOM      1  S   UNL     1       1.171  10.304  19.271  0.00  0.00    +0.000 S 
ENDROOT
BRANCH   1   2
ATOM      2  C   UNL     1      -0.294  11.090  19.914  0.00  0.00    +0.000 C 
ATOM      3  S   UNL     1      -0.312  11.520  21.550  0.00  0.00    +0.000 S 
BRANCH   2   7
ATOM      4  C   UNL     1      -4.038  10.672  17.875  0.00  0.00    +0.000 C 
ATOM      5  C   UNL     1      -3.860  11.483  19.164  0.00  0.00    +0.000 C 
ATOM      6  C   UNL     1      -2.493  12.166  19.269  0.00  0.00    +0.000 C 
ATOM      7  N   UNL     1      -1.397  11.207  19.037  0.00  0.00    +0.000 N 
ATOM      8  C   UNL     1      -1.497  10.551  17.724  0.00  0.00    +0.000 C 
ATOM      9  C   UNL     1      -2.818   9.790  17.592  0.00  0.00    +0.000 C 
BRANCH   4  11
ATOM     10  O   UNL     1      -5.321  12.283  16.583  0.00  0.00    +0.000 OA
ATOM     11  C   UNL     1      -4.337  11.569  16.685  0.00  0.00    +0.000 C 
BRANCH  11  12
ATOM     12  O   UNL     1      -3.379  11.526  15.733  0.00  0.00    +0.000 OA
ATOM     13  H   UNL     1      -3.639  11.901  14.870  0.00  0.00    +0.000 HD
ENDBRANCH  11  12
ENDBRANCH   4  11
ENDBRANCH   2   7
ENDBRANCH   1   2
BRANCH   1  14
ATOM     14  S   UNL     1       1.271   8.541  20.356  0.00  0.00    +0.000 S 
BRANCH  14  15
ATOM     15  C   UNL     1       2.209   7.467  19.287  0.00  0.00    +0.000 C 
ATOM     16  S   UNL     1       2.738   8.086  17.804  0.00  0.00    +0.000 S 
BRANCH  15  17
ATOM     17  N   UNL     1       2.518   6.178  19.771  0.00  0.00    +0.000 N 
ATOM     18  C   UNL     1       3.778   5.487  19.453  0.00  0.00    +0.000 C 
ATOM     19  C   UNL     1       3.502   4.151  18.765  0.00  0.00    +0.000 C 
ATOM     20  C   UNL     1       2.577   3.255  19.599  0.00  0.00    +0.000 C 
ATOM     21  C   UNL     1       1.329   4.034  20.051  0.00  0.00    +0.000 C 
ATOM     22  C   UNL     1       1.667   5.391  20.680  0.00  0.00    +0.000 C 
BRANCH  20  23
ATOM     23  C   UNL     1       3.313   2.647  20.784  0.00  0.00    +0.000 C 
ATOM     24  O   UNL     1       2.840   2.498  21.899  0.00  0.00    +0.000 OA
BRANCH  23  25
ATOM     25  O   UNL     1       4.573   2.253  20.487  0.00  0.00    +0.000 OA
ATOM     26  H   UNL     1       5.240   2.459  21.168  0.00  0.00    +0.000 HD
ENDBRANCH  23  25
ENDBRANCH  20  23
ENDBRANCH  15  17
ENDBRANCH  14  15
ENDBRANCH   1  14
TORSDOF 9
ENDMDL
MODEL 8
REMARK VINA RESULT:      -6.1      1.862      8.447
REMARK  Name = 
REMARK  9 active torsions:
REMARK  status: ('A' for Active; 'I' for Inactive)
REMARK    1  A    between atoms: C_2  and  O_3
REMARK    2  A    between atoms: C_2  and  C_4
REMARK    3  A    between atoms: N_7  and  C_8
REMARK    4  A    between atoms: C_8  and  S_10
REMARK    5  A    between atoms: S_10  and  S_11
REMARK    6  A    between atoms: S_11  and  C_12
REMARK    7  A    between atoms: C_12  and  N_14
REMARK    8  A    between atoms: C_17  and  C_18
REMARK    9  A    between atoms: C_18  and  O_20
REMARK                            x       y       z     vdW  Elec       q    Type
REMARK                         _______ _______ _______ _____ _____    ______ ____
ROOT
ATOM      1  S   UNL     1       2.214   7.338  18.984  0.00  0.00    +0.000 S 
ENDROOT
BRANCH   1   2
ATOM      2  C   UNL     1       1.512   8.493  20.148  0.00  0.00    +0.000 C 
ATOM      3  S   UNL     1       1.741   8.196  21.797  0.00  0.00    +0.000 S 
BRANCH   2   7
ATOM      4  C   UNL     1      -0.352  12.236  19.219  0.00  0.00    +0.000 C 
ATOM      5  C   UNL     1       0.995  11.792  18.637  0.00  0.00    +0.000 C 
ATOM      6  C   UNL     1       1.089  10.281  18.406  0.00  0.00    +0.000 C 
ATOM      7  N   UNL     1       0.711   9.530  19.618  0.00  0.00    +0.000 N 
ATOM      8  C   UNL     1      -0.650   9.854  20.073  0.00  0.00    +0.000 C 
ATOM      9  C   UNL     1      -0.781  11.346  20.390  0.00  0.00    +0.000 C 
BRANCH   4  11
ATOM     10  O   UNL     1      -2.562  11.830  18.289  0.00  0.00    +0.000 OA
ATOM     11  C   UNL     1      -1.436  12.280  18.155  0.00  0.00    +0.000 C 
BRANCH  11  12
ATOM     12  O   UNL     1      -1.042  12.901  17.021  0.00  0.00    +0.000 OA
ATOM     13  H   UNL     1      -1.214  12.405  16.198  0.00  0.00    +0.000 HD
ENDBRANCH  11  12
ENDBRANCH   4  11
ENDBRANCH   2   7
ENDBRANCH   1   2
BRANCH   1  14
ATOM     14  S   UNL     1       2.277   5.569  20.061  0.00  0.00    +0.000 S 
BRANCH  14  15
ATOM     15  C   UNL     1       2.706   4.363  18.821  0.00  0.00    +0.000 C 
ATOM     16  S   UNL     1       1.505   3.287  18.309  0.00  0.00    +0.000 S 
BRANCH  15  17
ATOM     17  N   UNL     1       4.011   4.420  18.285  0.00  0.00    +0.000 N 
ATOM     18  C   UNL     1       5.216   4.175  19.095  0.00  0.00    +0.000 C 
ATOM     19  C   UNL     1       6.147   5.386  19.056  0.00  0.00    +0.000 C 
ATOM     20  C   UNL     1       6.517   5.781  17.621  0.00  0.00    +0.000 C 
ATOM     21  C   UNL     1       5.257   5.890  16.745  0.00  0.00    +0.000 C 
ATOM     22  C   UNL     1       4.334   4.672  16.871  0.00  0.00    +0.000 C 
BRANCH  20  23
ATOM     23  C   UNL     1       7.529   4.815  17.022  0.00  0.00    +0.000 C 
ATOM     24  O   UNL     1       8.278   4.099  17.667  0.00  0.00    +0.000 OA
BRANCH  23  25
ATOM     25  O   UNL     1       7.518   4.798  15.669  0.00  0.00    +0.000 OA
ATOM     26  H   UNL     1       7.269   5.642  15.250  0.00  0.00    +0.000 HD
ENDBRANCH  23  25
ENDBRANCH  20  23
ENDBRANCH  15  17
ENDBRANCH  14  15
ENDBRANCH   1  14
TORSDOF 9
ENDMDL
MODEL 9
REMARK VINA RESULT:      -6.1      3.206      4.126
REMARK  Name = 
REMARK  9 active torsions:
REMARK  status: ('A' for Active; 'I' for Inactive)
REMARK    1  A    between atoms: C_2  and  O_3
REMARK    2  A    between atoms: C_2  and  C_4
REMARK    3  A    between atoms: N_7  and  C_8
REMARK    4  A    between atoms: C_8  and  S_10
REMARK    5  A    between atoms: S_10  and  S_11
REMARK    6  A    between atoms: S_11  and  C_12
REMARK    7  A    between atoms: C_12  and  N_14
REMARK    8  A    between atoms: C_17  and  C_18
REMARK    9  A    between atoms: C_18  and  O_20
REMARK                            x       y       z     vdW  Elec       q    Type
REMARK                         _______ _______ _______ _____ _____    ______ ____
ROOT
ATOM      1  S   UNL     1       2.036   8.374  18.087  0.00  0.00    +0.000 S 
ENDROOT
BRANCH   1   2
ATOM      2  C   UNL     1       2.664   6.939  18.938  0.00  0.00    +0.000 C 
ATOM      3  S   UNL     1       1.912   6.480  20.381  0.00  0.00    +0.000 S 
BRANCH   2   7
ATOM      4  C   UNL     1       6.681   5.866  17.907  0.00  0.00    +0.000 C 
ATOM      5  C   UNL     1       5.999   5.443  19.214  0.00  0.00    +0.000 C 
ATOM      6  C   UNL     1       4.495   5.195  19.062  0.00  0.00    +0.000 C 
ATOM      7  N   UNL     1       3.828   6.337  18.408  0.00  0.00    +0.000 N 
ATOM      8  C   UNL     1       4.394   6.629  17.082  0.00  0.00    +0.000 C 
ATOM      9  C   UNL     1       5.886   6.958  17.184  0.00  0.00    +0.000 C 
BRANCH   4  11
ATOM     10  O   UNL     1       7.987   4.402  16.471  0.00  0.00    +0.000 OA
ATOM     11  C   UNL     1       6.918   4.679  16.989  0.00  0.00    +0.000 C 
BRANCH  11  12
ATOM     12  O   UNL     1       5.815   3.918  16.810  0.00  0.00    +0.000 OA
ATOM     13  H   UNL     1       5.867   3.022  17.192  0.00  0.00    +0.000 HD
ENDBRANCH  11  12
ENDBRANCH   4  11
ENDBRANCH   2   7
ENDBRANCH   1   2
BRANCH   1  14
ATOM     14  S   UNL     1       0.947   9.350  19.555  0.00  0.00    +0.000 S 
BRANCH  14  15
ATOM     15  C   UNL     1       0.553  10.910  18.788  0.00  0.00    +0.000 C 
ATOM     16  S   UNL     1       1.733  12.122  18.799  0.00  0.00    +0.000 S 
BRANCH  15  17
ATOM     17  N   UNL     1      -0.703  11.021  18.153  0.00  0.00    +0.000 N 
ATOM     18  C   UNL     1      -1.548  12.221  18.263  0.00  0.00    +0.000 C 
ATOM     19  C   UNL     1      -2.915  11.867  18.848  0.00  0.00    +0.000 C 
ATOM     20  C   UNL     1      -3.619  10.768  18.042  0.00  0.00    +0.000 C 
ATOM     21  C   UNL     1      -2.673   9.577  17.807  0.00  0.00    +0.000 C 
ATOM     22  C   UNL     1      -1.300  10.000  17.274  0.00  0.00    +0.000 C 
BRANCH  20  23
ATOM     23  C   UNL     1      -4.170  11.308  16.731  0.00  0.00    +0.000 C 
ATOM     24  O   UNL     1      -4.046  10.767  15.644  0.00  0.00    +0.000 OA
BRANCH  23  25
ATOM     25  O   UNL     1      -4.851  12.469  16.874  0.00  0.00    +0.000 OA
ATOM     26  H   UNL     1      -5.036  12.943  16.042  0.00  0.00    +0.000 HD
ENDBRANCH  23  25
ENDBRANCH  20  23
ENDBRANCH  15  17
ENDBRANCH  14  15
ENDBRANCH   1  14
TORSDOF 9
ENDMDL
