MODEL 1
REMARK VINA RESULT:      -7.6      0.000      0.000
REMARK  Name = 
REMARK  10 active torsions:
REMARK  status: ('A' for Active; 'I' for Inactive)
REMARK    1  A    between atoms: C_1  and  C_2
REMARK    2  A    between atoms: C_2  and  C_3
REMARK    3  A    between atoms: C_3  and  C_4
REMARK    4  A    between atoms: C_4  and  N_5
REMARK    5  A    between atoms: C_14  and  C_15
REMARK    6  A    between atoms: N_17  and  C_18
REMARK    7  A    between atoms: C_18  and  C_19
REMARK    8  A    between atoms: C_18  and  C_20
REMARK    9  A    between atoms: C_20  and  O_22
REMARK   10  A    between atoms: O_22  and  C_23
REMARK                            x       y       z     vdW  Elec       q    Type
REMARK                         _______ _______ _______ _____ _____    ______ ____
ROOT
ATOM      1  N   UNL     1       4.121   4.356  18.386  0.00  0.00    +0.000 N 
ATOM      2  C   UNL     1       4.805   4.430  17.183  0.00  0.00    +0.000 A 
ATOM      3  C   UNL     1       5.602   3.488  16.507  0.00  0.00    +0.000 A 
ATOM      4  C   UNL     1       6.239   3.881  15.327  0.00  0.00    +0.000 A 
ATOM      5  C   UNL     1       6.068   5.162  14.818  0.00  0.00    +0.000 A 
ATOM      6  C   UNL     1       5.250   6.084  15.478  0.00  0.00    +0.000 A 
ATOM      7  C   UNL     1       4.612   5.717  16.682  0.00  0.00    +0.000 A 
ATOM      8  C   UNL     1       3.740   6.403  17.581  0.00  0.00    +0.000 A 
ATOM      9  C   UNL     1       3.195   7.694  17.589  0.00  0.00    +0.000 A 
ATOM     10  C   UNL     1       2.363   8.014  18.651  0.00  0.00    +0.000 A 
ATOM     11  N   UNL     1       2.048   7.167  19.670  0.00  0.00    +0.000 NA
ATOM     12  C   UNL     1       2.578   5.920  19.664  0.00  0.00    +0.000 A 
ATOM     13  C   UNL     1       3.429   5.532  18.628  0.00  0.00    +0.000 A 
ENDROOT
BRANCH  10  14
ATOM     14  C   UNL     1       1.763   9.390  18.699  0.00  0.00    +0.000 C 
ATOM     15  O   UNL     1       2.044  10.238  17.860  0.00  0.00    +0.000 OA
ATOM     16  N   UNL     1       0.902   9.621  19.747  0.00  0.00    +0.000 N 
ATOM     17  H   UNL     1       0.761   8.866  20.415  0.00  0.00    +0.000 HD
BRANCH  16  18
ATOM     18  C   UNL     1       0.268  10.919  19.967  0.00  0.00    +0.000 C 
ATOM     19  C   UNL     1      -1.191  10.883  19.526  0.00  0.00    +0.000 C 
BRANCH  18  20
ATOM     20  C   UNL     1       0.347  11.388  21.427  0.00  0.00    +0.000 C 
ATOM     21  O   UNL     1       0.327  12.564  21.772  0.00  0.00    +0.000 OA
BRANCH  20  22
ATOM     22  O   UNL     1       0.433  10.334  22.292  0.00  0.00    +0.000 OA
ATOM     23  C   UNL     1      -0.703  10.185  23.142  0.00  0.00    +0.000 C 
ENDBRANCH  20  22
ENDBRANCH  18  20
ENDBRANCH  16  18
ENDBRANCH  10  14
BRANCH   1  24
ATOM     24  C   UNL     1       4.176   3.203  19.279  0.00  0.00    +0.000 C 
BRANCH  24  25
ATOM     25  C   UNL     1       3.239   2.079  18.830  0.00  0.00    +0.000 C 
BRANCH  25  27
ATOM     26  C   UNL     1       0.802   2.661  18.718  0.00  0.00    +0.000 C 
ATOM     27  C   UNL     1       1.914   2.095  19.588  0.00  0.00    +0.000 C 
ENDBRANCH  25  27
ENDBRANCH  24  25
ENDBRANCH   1  24
TORSDOF 7
ENDMDL
MODEL 2
REMARK VINA RESULT:      -7.5      3.083      8.196
REMARK  Name = 
REMARK  10 active torsions:
REMARK  status: ('A' for Active; 'I' for Inactive)
REMARK    1  A    between atoms: C_1  and  C_2
REMARK    2  A    between atoms: C_2  and  C_3
REMARK    3  A    between atoms: C_3  and  C_4
REMARK    4  A    between atoms: C_4  and  N_5
REMARK    5  A    between atoms: C_14  and  C_15
REMARK    6  A    between atoms: N_17  and  C_18
REMARK    7  A    between atoms: C_18  and  C_19
REMARK    8  A    between atoms: C_18  and  C_20
REMARK    9  A    between atoms: C_20  and  O_22
REMARK   10  A    between atoms: O_22  and  C_23
REMARK                            x       y       z     vdW  Elec       q    Type
REMARK                         _______ _______ _______ _____ _____    ______ ____
ROOT
ATOM      1  N   UNL     1       0.380  10.487  19.365  0.00  0.00    +0.000 N 
ATOM      2  C   UNL     1       0.010  10.346  20.693  0.00  0.00    +0.000 A 
ATOM      3  C   UNL     1      -0.814  11.134  21.518  0.00  0.00    +0.000 A 
ATOM      4  C   UNL     1      -0.943  10.779  22.863  0.00  0.00    +0.000 A 
ATOM      5  C   UNL     1      -0.296   9.658  23.369  0.00  0.00    +0.000 A 
ATOM      6  C   UNL     1       0.496   8.861  22.537  0.00  0.00    +0.000 A 
ATOM      7  C   UNL     1       0.658   9.211  21.180  0.00  0.00    +0.000 A 
ATOM      8  C   UNL     1       1.382   8.631  20.095  0.00  0.00    +0.000 A 
ATOM      9  C   UNL     1       2.193   7.493  19.984  0.00  0.00    +0.000 A 
ATOM     10  C   UNL     1       2.740   7.235  18.736  0.00  0.00    +0.000 A 
ATOM     11  N   UNL     1       2.541   8.004  17.630  0.00  0.00    +0.000 NA
ATOM     12  C   UNL     1       1.759   9.106  17.738  0.00  0.00    +0.000 A 
ATOM     13  C   UNL     1       1.181   9.430  18.967  0.00  0.00    +0.000 A 
ENDROOT
BRANCH  10  14
ATOM     14  C   UNL     1       3.619   6.028  18.577  0.00  0.00    +0.000 C 
ATOM     15  O   UNL     1       3.543   5.078  19.348  0.00  0.00    +0.000 OA
ATOM     16  N   UNL     1       4.508   6.080  17.529  0.00  0.00    +0.000 N 
ATOM     17  H   UNL     1       4.524   6.929  16.967  0.00  0.00    +0.000 HD
BRANCH  16  18
ATOM     18  C   UNL     1       5.467   5.011  17.262  0.00  0.00    +0.000 C 
ATOM     19  C   UNL     1       5.072   4.239  16.007  0.00  0.00    +0.000 C 
BRANCH  18  20
ATOM     20  C   UNL     1       6.909   5.517  17.115  0.00  0.00    +0.000 C 
ATOM     21  O   UNL     1       7.280   6.284  16.234  0.00  0.00    +0.000 OA
BRANCH  20  22
ATOM     22  O   UNL     1       7.722   5.014  18.090  0.00  0.00    +0.000 OA
ATOM     23  C   UNL     1       7.695   5.755  19.309  0.00  0.00    +0.000 C 
ENDBRANCH  20  22
ENDBRANCH  18  20
ENDBRANCH  16  18
ENDBRANCH  10  14
BRANCH   1  24
ATOM     24  C   UNL     1       0.002  11.627  18.536  0.00  0.00    +0.000 C 
BRANCH  24  25
ATOM     25  C   UNL     1      -1.452  11.542  18.064  0.00  0.00    +0.000 C 
BRANCH  25  27
ATOM     26  C   UNL     1      -3.294   9.985  17.376  0.00  0.00    +0.000 C 
ATOM     27  C   UNL     1      -1.787  10.174  17.475  0.00  0.00    +0.000 C 
ENDBRANCH  25  27
ENDBRANCH  24  25
ENDBRANCH   1  24
TORSDOF 7
ENDMDL
MODEL 3
REMARK VINA RESULT:      -7.3      0.922      1.365
REMARK  Name = 
REMARK  10 active torsions:
REMARK  status: ('A' for Active; 'I' for Inactive)
REMARK    1  A    between atoms: C_1  and  C_2
REMARK    2  A    between atoms: C_2  and  C_3
REMARK    3  A    between atoms: C_3  and  C_4
REMARK    4  A    between atoms: C_4  and  N_5
REMARK    5  A    between atoms: C_14  and  C_15
REMARK    6  A    between atoms: N_17  and  C_18
REMARK    7  A    between atoms: C_18  and  C_19
REMARK    8  A    between atoms: C_18  and  C_20
REMARK    9  A    between atoms: C_20  and  O_22
REMARK   10  A    between atoms: O_22  and  C_23
REMARK                            x       y       z     vdW  Elec       q    Type
REMARK                         _______ _______ _______ _____ _____    ______ ____
ROOT
ATOM      1  N   UNL     1       4.300   4.525  18.485  0.00  0.00    +0.000 N 
ATOM      2  C   UNL     1       4.916   4.532  17.243  0.00  0.00    +0.000 A 
ATOM      3  C   UNL     1       5.714   3.572  16.595  0.00  0.00    +0.000 A 
ATOM      4  C   UNL     1       6.270   3.896  15.355  0.00  0.00    +0.000 A 
ATOM      5  C   UNL     1       6.019   5.127  14.762  0.00  0.00    +0.000 A 
ATOM      6  C   UNL     1       5.199   6.065  15.396  0.00  0.00    +0.000 A 
ATOM      7  C   UNL     1       4.642   5.768  16.658  0.00  0.00    +0.000 A 
ATOM      8  C   UNL     1       3.792   6.488  17.551  0.00  0.00    +0.000 A 
ATOM      9  C   UNL     1       3.195   7.755  17.493  0.00  0.00    +0.000 A 
ATOM     10  C   UNL     1       2.409   8.125  18.574  0.00  0.00    +0.000 A 
ATOM     11  N   UNL     1       2.184   7.347  19.669  0.00  0.00    +0.000 NA
ATOM     12  C   UNL     1       2.764   6.124  19.727  0.00  0.00    +0.000 A 
ATOM     13  C   UNL     1       3.574   5.689  18.676  0.00  0.00    +0.000 A 
ENDROOT
BRANCH  10  14
ATOM     14  C   UNL     1       1.755   9.476  18.552  0.00  0.00    +0.000 C 
ATOM     15  O   UNL     1       1.936  10.257  17.625  0.00  0.00    +0.000 OA
ATOM     16  N   UNL     1       0.966   9.766  19.641  0.00  0.00    +0.000 N 
ATOM     17  H   UNL     1       0.907   9.069  20.380  0.00  0.00    +0.000 HD
BRANCH  16  18
ATOM     18  C   UNL     1       0.295  11.055  19.801  0.00  0.00    +0.000 C 
ATOM     19  C   UNL     1      -1.217  10.887  19.697  0.00  0.00    +0.000 C 
BRANCH  18  20
ATOM     20  C   UNL     1       0.640  11.754  21.123  0.00  0.00    +0.000 C 
ATOM     21  O   UNL     1      -0.072  11.724  22.120  0.00  0.00    +0.000 OA
BRANCH  20  22
ATOM     22  O   UNL     1       1.838  12.405  21.052  0.00  0.00    +0.000 OA
ATOM     23  C   UNL     1       1.921  13.359  19.994  0.00  0.00    +0.000 C 
ENDBRANCH  20  22
ENDBRANCH  18  20
ENDBRANCH  16  18
ENDBRANCH  10  14
BRANCH   1  24
ATOM     24  C   UNL     1       4.451   3.447  19.457  0.00  0.00    +0.000 C 
BRANCH  24  25
ATOM     25  C   UNL     1       3.136   2.703  19.703  0.00  0.00    +0.000 C 
BRANCH  25  27
ATOM     26  C   UNL     1       1.225   2.895  21.316  0.00  0.00    +0.000 C 
ATOM     27  C   UNL     1       2.730   2.720  21.174  0.00  0.00    +0.000 C 
ENDBRANCH  25  27
ENDBRANCH  24  25
ENDBRANCH   1  24
TORSDOF 7
ENDMDL
MODEL 4
REMARK VINA RESULT:      -7.3      1.033      1.295
REMARK  Name = 
REMARK  10 active torsions:
REMARK  status: ('A' for Active; 'I' for Inactive)
REMARK    1  A    between atoms: C_1  and  C_2
REMARK    2  A    between atoms: C_2  and  C_3
REMARK    3  A    between atoms: C_3  and  C_4
REMARK    4  A    between atoms: C_4  and  N_5
REMARK    5  A    between atoms: C_14  and  C_15
REMARK    6  A    between atoms: N_17  and  C_18
REMARK    7  A    between atoms: C_18  and  C_19
REMARK    8  A    between atoms: C_18  and  C_20
REMARK    9  A    between atoms: C_20  and  O_22
REMARK   10  A    between atoms: O_22  and  C_23
REMARK                            x       y       z     vdW  Elec       q    Type
REMARK                         _______ _______ _______ _____ _____    ______ ____
ROOT
ATOM      1  N   UNL     1       3.668   4.752  18.777  0.00  0.00    +0.000 N 
ATOM      2  C   UNL     1       4.377   4.825  17.588  0.00  0.00    +0.000 A 
ATOM      3  C   UNL     1       5.164   3.875  16.914  0.00  0.00    +0.000 A 
ATOM      4  C   UNL     1       5.832   4.268  15.751  0.00  0.00    +0.000 A 
ATOM      5  C   UNL     1       5.700   5.559  15.256  0.00  0.00    +0.000 A 
ATOM      6  C   UNL     1       4.890   6.490  15.912  0.00  0.00    +0.000 A 
ATOM      7  C   UNL     1       4.222   6.123  17.100  0.00  0.00    +0.000 A 
ATOM      8  C   UNL     1       3.349   6.817  17.992  0.00  0.00    +0.000 A 
ATOM      9  C   UNL     1       2.833   8.120  18.007  0.00  0.00    +0.000 A 
ATOM     10  C   UNL     1       1.990   8.446  19.058  0.00  0.00    +0.000 A 
ATOM     11  N   UNL     1       1.637   7.593  20.060  0.00  0.00    +0.000 NA
ATOM     12  C   UNL     1       2.138   6.334  20.047  0.00  0.00    +0.000 A 
ATOM     13  C   UNL     1       3.000   5.940  19.021  0.00  0.00    +0.000 A 
ENDROOT
BRANCH  10  14
ATOM     14  C   UNL     1       1.420   9.834  19.113  0.00  0.00    +0.000 C 
ATOM     15  O   UNL     1       1.759  10.694  18.309  0.00  0.00    +0.000 OA
ATOM     16  N   UNL     1       0.519  10.061  20.127  0.00  0.00    +0.000 N 
ATOM     17  H   UNL     1       0.330   9.294  20.770  0.00  0.00    +0.000 HD
BRANCH  16  18
ATOM     18  C   UNL     1      -0.094  11.368  20.352  0.00  0.00    +0.000 C 
ATOM     19  C   UNL     1      -1.479  11.427  19.715  0.00  0.00    +0.000 C 
BRANCH  18  20
ATOM     20  C   UNL     1      -0.202  11.736  21.838  0.00  0.00    +0.000 C 
ATOM     21  O   UNL     1      -0.026  10.943  22.756  0.00  0.00    +0.000 OA
BRANCH  20  22
ATOM     22  O   UNL     1      -0.509  13.056  22.010  0.00  0.00    +0.000 OA
ATOM     23  C   UNL     1      -1.262  13.328  23.191  0.00  0.00    +0.000 C 
ENDBRANCH  20  22
ENDBRANCH  18  20
ENDBRANCH  16  18
ENDBRANCH  10  14
BRANCH   1  24
ATOM     24  C   UNL     1       3.681   3.586  19.655  0.00  0.00    +0.000 C 
BRANCH  24  25
ATOM     25  C   UNL     1       2.590   2.576  19.290  0.00  0.00    +0.000 C 
BRANCH  25  27
ATOM     26  C   UNL     1       1.737   2.773  21.640  0.00  0.00    +0.000 C 
ATOM     27  C   UNL     1       1.351   2.722  20.168  0.00  0.00    +0.000 C 
ENDBRANCH  25  27
ENDBRANCH  24  25
ENDBRANCH   1  24
TORSDOF 7
ENDMDL
MODEL 5
REMARK VINA RESULT:      -7.3      3.036      8.547
REMARK  Name = 
REMARK  10 active torsions:
REMARK  status: ('A' for Active; 'I' for Inactive)
REMARK    1  A    between atoms: C_1  and  C_2
REMARK    2  A    between atoms: C_2  and  C_3
REMARK    3  A    between atoms: C_3  and  C_4
REMARK    4  A    between atoms: C_4  and  N_5
REMARK    5  A    between atoms: C_14  and  C_15
REMARK    6  A    between atoms: N_17  and  C_18
REMARK    7  A    between atoms: C_18  and  C_19
REMARK    8  A    between atoms: C_18  and  C_20
REMARK    9  A    between atoms: C_20  and  O_22
REMARK   10  A    between atoms: O_22  and  C_23
REMARK                            x       y       z     vdW  Elec       q    Type
REMARK                         _______ _______ _______ _____ _____    ______ ____
ROOT
ATOM      1  N   UNL     1       0.377  10.805  19.430  0.00  0.00    +0.000 N 
ATOM      2  C   UNL     1      -0.083  10.626  20.726  0.00  0.00    +0.000 A 
ATOM      3  C   UNL     1      -0.909  11.423  21.538  0.00  0.00    +0.000 A 
ATOM      4  C   UNL     1      -1.142  11.014  22.854  0.00  0.00    +0.000 A 
ATOM      5  C   UNL     1      -0.593   9.834  23.341  0.00  0.00    +0.000 A 
ATOM      6  C   UNL     1       0.201   9.030  22.519  0.00  0.00    +0.000 A 
ATOM      7  C   UNL     1       0.467   9.432  21.192  0.00  0.00    +0.000 A 
ATOM      8  C   UNL     1       1.222   8.860  20.124  0.00  0.00    +0.000 A 
ATOM      9  C   UNL     1       1.971   7.681  20.005  0.00  0.00    +0.000 A 
ATOM     10  C   UNL     1       2.579   7.448  18.780  0.00  0.00    +0.000 A 
ATOM     11  N   UNL     1       2.493   8.278  17.704  0.00  0.00    +0.000 NA
ATOM     12  C   UNL     1       1.771   9.419  17.820  0.00  0.00    +0.000 A 
ATOM     13  C   UNL     1       1.138   9.721  19.028  0.00  0.00    +0.000 A 
ENDROOT
BRANCH  10  14
ATOM     14  C   UNL     1       3.395   6.198  18.614  0.00  0.00    +0.000 C 
ATOM     15  O   UNL     1       3.198   5.211  19.312  0.00  0.00    +0.000 OA
ATOM     16  N   UNL     1       4.370   6.257  17.646  0.00  0.00    +0.000 N 
ATOM     17  H   UNL     1       4.483   7.135  17.143  0.00  0.00    +0.000 HD
BRANCH  16  18
ATOM     18  C   UNL     1       5.283   5.146  17.386  0.00  0.00    +0.000 C 
ATOM     19  C   UNL     1       4.713   4.225  16.312  0.00  0.00    +0.000 C 
BRANCH  18  20
ATOM     20  C   UNL     1       6.688   5.604  16.971  0.00  0.00    +0.000 C 
ATOM     21  O   UNL     1       7.644   4.849  16.837  0.00  0.00    +0.000 OA
BRANCH  20  22
ATOM     22  O   UNL     1       6.737   6.953  16.761  0.00  0.00    +0.000 OA
ATOM     23  C   UNL     1       7.686   7.634  17.581  0.00  0.00    +0.000 C 
ENDBRANCH  20  22
ENDBRANCH  18  20
ENDBRANCH  16  18
ENDBRANCH  10  14
BRANCH   1  24
ATOM     24  C   UNL     1       0.117  12.003  18.638  0.00  0.00    +0.000 C 
BRANCH  24  25
ATOM     25  C   UNL     1       0.964  13.194  19.097  0.00  0.00    +0.000 C 
BRANCH  25  27
ATOM     26  C   UNL     1       2.946  14.341  18.073  0.00  0.00    +0.000 C 
ATOM     27  C   UNL     1       2.429  13.050  18.689  0.00  0.00    +0.000 C 
ENDBRANCH  25  27
ENDBRANCH  24  25
ENDBRANCH   1  24
TORSDOF 7
ENDMDL
MODEL 6
REMARK VINA RESULT:      -7.3      3.184      8.624
REMARK  Name = 
REMARK  10 active torsions:
REMARK  status: ('A' for Active; 'I' for Inactive)
REMARK    1  A    between atoms: C_1  and  C_2
REMARK    2  A    between atoms: C_2  and  C_3
REMARK    3  A    between atoms: C_3  and  C_4
REMARK    4  A    between atoms: C_4  and  N_5
REMARK    5  A    between atoms: C_14  and  C_15
REMARK    6  A    between atoms: N_17  and  C_18
REMARK    7  A    between atoms: C_18  and  C_19
REMARK    8  A    between atoms: C_18  and  C_20
REMARK    9  A    between atoms: C_20  and  O_22
REMARK   10  A    between atoms: O_22  and  C_23
REMARK                            x       y       z     vdW  Elec       q    Type
REMARK                         _______ _______ _______ _____ _____    ______ ____
ROOT
ATOM      1  N   UNL     1       0.649  10.797  19.488  0.00  0.00    +0.000 N 
ATOM      2  C   UNL     1      -0.025  10.902  20.695  0.00  0.00    +0.000 A 
ATOM      3  C   UNL     1      -0.787  11.947  21.247  0.00  0.00    +0.000 A 
ATOM      4  C   UNL     1      -1.290  11.792  22.541  0.00  0.00    +0.000 A 
ATOM      5  C   UNL     1      -1.066  10.622  23.257  0.00  0.00    +0.000 A 
ATOM      6  C   UNL     1      -0.335   9.574  22.691  0.00  0.00    +0.000 A 
ATOM      7  C   UNL     1       0.200   9.715  21.392  0.00  0.00    +0.000 A 
ATOM      8  C   UNL     1       0.976   8.862  20.551  0.00  0.00    +0.000 A 
ATOM      9  C   UNL     1       1.485   7.565  20.709  0.00  0.00    +0.000 A 
ATOM     10  C   UNL     1       2.209   7.044  19.647  0.00  0.00    +0.000 A 
ATOM     11  N   UNL     1       2.451   7.702  18.480  0.00  0.00    +0.000 NA
ATOM     12  C   UNL     1       1.963   8.957  18.328  0.00  0.00    +0.000 A 
ATOM     13  C   UNL     1       1.230   9.546  19.360  0.00  0.00    +0.000 A 
ENDROOT
BRANCH  10  14
ATOM     14  C   UNL     1       2.775   5.659  19.780  0.00  0.00    +0.000 C 
ATOM     15  O   UNL     1       3.979   5.451  19.687  0.00  0.00    +0.000 OA
ATOM     16  N   UNL     1       1.850   4.664  19.993  0.00  0.00    +0.000 N 
ATOM     17  H   UNL     1       0.868   4.930  20.017  0.00  0.00    +0.000 HD
BRANCH  16  18
ATOM     18  C   UNL     1       2.226   3.256  20.098  0.00  0.00    +0.000 C 
ATOM     19  C   UNL     1       1.883   2.711  21.480  0.00  0.00    +0.000 C 
BRANCH  18  20
ATOM     20  C   UNL     1       1.569   2.375  19.026  0.00  0.00    +0.000 C 
ATOM     21  O   UNL     1       0.363   2.349  18.805  0.00  0.00    +0.000 OA
BRANCH  20  22
ATOM     22  O   UNL     1       2.492   1.632  18.347  0.00  0.00    +0.000 OA
ATOM     23  C   UNL     1       3.641   2.370  17.933  0.00  0.00    +0.000 C 
ENDBRANCH  20  22
ENDBRANCH  18  20
ENDBRANCH  16  18
ENDBRANCH  10  14
BRANCH   1  24
ATOM     24  C   UNL     1       0.754  11.887  18.523  0.00  0.00    +0.000 C 
BRANCH  24  25
ATOM     25  C   UNL     1       2.093  12.622  18.626  0.00  0.00    +0.000 C 
BRANCH  25  27
ATOM     26  C   UNL     1       3.100  14.833  18.003  0.00  0.00    +0.000 C 
ATOM     27  C   UNL     1       1.917  14.138  18.661  0.00  0.00    +0.000 C 
ENDBRANCH  25  27
ENDBRANCH  24  25
ENDBRANCH   1  24
TORSDOF 7
ENDMDL
MODEL 7
REMARK VINA RESULT:      -7.2      2.708      8.435
REMARK  Name = 
REMARK  10 active torsions:
REMARK  status: ('A' for Active; 'I' for Inactive)
REMARK    1  A    between atoms: C_1  and  C_2
REMARK    2  A    between atoms: C_2  and  C_3
REMARK    3  A    between atoms: C_3  and  C_4
REMARK    4  A    between atoms: C_4  and  N_5
REMARK    5  A    between atoms: C_14  and  C_15
REMARK    6  A    between atoms: N_17  and  C_18
REMARK    7  A    between atoms: C_18  and  C_19
REMARK    8  A    between atoms: C_18  and  C_20
REMARK    9  A    between atoms: C_20  and  O_22
REMARK   10  A    between atoms: O_22  and  C_23
REMARK                            x       y       z     vdW  Elec       q    Type
REMARK                         _______ _______ _______ _____ _____    ______ ____
ROOT
ATOM      1  N   UNL     1       0.130  10.797  19.375  0.00  0.00    +0.000 N 
ATOM      2  C   UNL     1      -0.313  10.749  20.687  0.00  0.00    +0.000 A 
ATOM      3  C   UNL     1      -1.139  11.619  21.424  0.00  0.00    +0.000 A 
ATOM      4  C   UNL     1      -1.352  11.346  22.777  0.00  0.00    +0.000 A 
ATOM      5  C   UNL     1      -0.786  10.228  23.377  0.00  0.00    +0.000 A 
ATOM      6  C   UNL     1       0.008   9.350  22.632  0.00  0.00    +0.000 A 
ATOM      7  C   UNL     1       0.254   9.615  21.268  0.00  0.00    +0.000 A 
ATOM      8  C   UNL     1       1.003   8.942  20.256  0.00  0.00    +0.000 A 
ATOM      9  C   UNL     1       1.763   7.765  20.250  0.00  0.00    +0.000 A 
ATOM     10  C   UNL     1       2.359   7.412  19.049  0.00  0.00    +0.000 A 
ATOM     11  N   UNL     1       2.253   8.125  17.893  0.00  0.00    +0.000 NA
ATOM     12  C   UNL     1       1.520   9.265  17.900  0.00  0.00    +0.000 A 
ATOM     13  C   UNL     1       0.898   9.684  19.078  0.00  0.00    +0.000 A 
ENDROOT
BRANCH  10  14
ATOM     14  C   UNL     1       3.186   6.159  19.002  0.00  0.00    +0.000 C 
ATOM     15  O   UNL     1       3.621   5.644  20.026  0.00  0.00    +0.000 OA
ATOM     16  N   UNL     1       3.424   5.657  17.744  0.00  0.00    +0.000 N 
ATOM     17  H   UNL     1       3.054   6.177  16.951  0.00  0.00    +0.000 HD
BRANCH  16  18
ATOM     18  C   UNL     1       4.249   4.473  17.517  0.00  0.00    +0.000 C 
ATOM     19  C   UNL     1       3.386   3.298  17.067  0.00  0.00    +0.000 C 
BRANCH  18  20
ATOM     20  C   UNL     1       5.367   4.704  16.491  0.00  0.00    +0.000 C 
ATOM     21  O   UNL     1       5.309   4.346  15.321  0.00  0.00    +0.000 OA
BRANCH  20  22
ATOM     22  O   UNL     1       6.428   5.365  17.042  0.00  0.00    +0.000 OA
ATOM     23  C   UNL     1       7.557   4.533  17.308  0.00  0.00    +0.000 C 
ENDBRANCH  20  22
ENDBRANCH  18  20
ENDBRANCH  16  18
ENDBRANCH  10  14
BRANCH   1  24
ATOM     24  C   UNL     1      -0.151  11.905  18.467  0.00  0.00    +0.000 C 
BRANCH  24  25
ATOM     25  C   UNL     1      -1.598  11.890  17.967  0.00  0.00    +0.000 C 
BRANCH  25  27
ATOM     26  C   UNL     1      -3.120   9.914  17.699  0.00  0.00    +0.000 C 
ATOM     27  C   UNL     1      -1.909  10.646  17.138  0.00  0.00    +0.000 C 
ENDBRANCH  25  27
ENDBRANCH  24  25
ENDBRANCH   1  24
TORSDOF 7
ENDMDL
MODEL 8
REMARK VINA RESULT:      -7.2      2.987      8.620
REMARK  Name = 
REMARK  10 active torsions:
REMARK  status: ('A' for Active; 'I' for Inactive)
REMARK    1  A    between atoms: C_1  and  C_2
REMARK    2  A    between atoms: C_2  and  C_3
REMARK    3  A    between atoms: C_3  and  C_4
REMARK    4  A    between atoms: C_4  and  N_5
REMARK    5  A    between atoms: C_14  and  C_15
REMARK    6  A    between atoms: N_17  and  C_18
REMARK    7  A    between atoms: C_18  and  C_19
REMARK    8  A    between atoms: C_18  and  C_20
REMARK    9  A    between atoms: C_20  and  O_22
REMARK   10  A    between atoms: O_22  and  C_23
REMARK                            x       y       z     vdW  Elec       q    Type
REMARK                         _______ _______ _______ _____ _____    ______ ____
ROOT
ATOM      1  N   UNL     1       0.264  10.892  19.388  0.00  0.00    +0.000 N 
ATOM      2  C   UNL     1      -0.259  10.855  20.671  0.00  0.00    +0.000 A 
ATOM      3  C   UNL     1      -1.086  11.757  21.365  0.00  0.00    +0.000 A 
ATOM      4  C   UNL     1      -1.394  11.484  22.700  0.00  0.00    +0.000 A 
ATOM      5  C   UNL     1      -0.918  10.336  23.321  0.00  0.00    +0.000 A 
ATOM      6  C   UNL     1      -0.123   9.427  22.617  0.00  0.00    +0.000 A 
ATOM      7  C   UNL     1       0.218   9.690  21.273  0.00  0.00    +0.000 A 
ATOM      8  C   UNL     1       0.994   8.990  20.300  0.00  0.00    +0.000 A 
ATOM      9  C   UNL     1       1.697   7.778  20.328  0.00  0.00    +0.000 A 
ATOM     10  C   UNL     1       2.348   7.407  19.160  0.00  0.00    +0.000 A 
ATOM     11  N   UNL     1       2.345   8.133  18.009  0.00  0.00    +0.000 NA
ATOM     12  C   UNL     1       1.668   9.307  17.983  0.00  0.00    +0.000 A 
ATOM     13  C   UNL     1       0.996   9.746  19.126  0.00  0.00    +0.000 A 
ENDROOT
BRANCH  10  14
ATOM     14  C   UNL     1       3.116   6.116  19.151  0.00  0.00    +0.000 C 
ATOM     15  O   UNL     1       2.635   5.085  19.605  0.00  0.00    +0.000 OA
ATOM     16  N   UNL     1       4.381   6.189  18.616  0.00  0.00    +0.000 N 
ATOM     17  H   UNL     1       4.708   7.100  18.299  0.00  0.00    +0.000 HD
BRANCH  16  18
ATOM     18  C   UNL     1       5.280   5.037  18.572  0.00  0.00    +0.000 C 
ATOM     19  C   UNL     1       5.197   4.345  17.216  0.00  0.00    +0.000 C 
BRANCH  18  20
ATOM     20  C   UNL     1       6.741   5.401  18.870  0.00  0.00    +0.000 C 
ATOM     21  O   UNL     1       7.252   5.333  19.982  0.00  0.00    +0.000 OA
BRANCH  20  22
ATOM     22  O   UNL     1       7.401   5.799  17.743  0.00  0.00    +0.000 OA
ATOM     23  C   UNL     1       7.649   7.203  17.680  0.00  0.00    +0.000 C 
ENDBRANCH  20  22
ENDBRANCH  18  20
ENDBRANCH  16  18
ENDBRANCH  10  14
BRANCH   1  24
ATOM     24  C   UNL     1       0.092  12.019  18.476  0.00  0.00    +0.000 C 
BRANCH  24  25
ATOM     25  C   UNL     1       1.281  12.982  18.515  0.00  0.00    +0.000 C 
BRANCH  25  27
ATOM     26  C   UNL     1      -0.307  14.821  19.134  0.00  0.00    +0.000 C 
ATOM     27  C   UNL     1       1.033  14.168  19.443  0.00  0.00    +0.000 C 
ENDBRANCH  25  27
ENDBRANCH  24  25
ENDBRANCH   1  24
TORSDOF 7
ENDMDL
MODEL 9
REMARK VINA RESULT:      -7.2      1.068      3.531
REMARK  Name = 
REMARK  10 active torsions:
REMARK  status: ('A' for Active; 'I' for Inactive)
REMARK    1  A    between atoms: C_1  and  C_2
REMARK    2  A    between atoms: C_2  and  C_3
REMARK    3  A    between atoms: C_3  and  C_4
REMARK    4  A    between atoms: C_4  and  N_5
REMARK    5  A    between atoms: C_14  and  C_15
REMARK    6  A    between atoms: N_17  and  C_18
REMARK    7  A    between atoms: C_18  and  C_19
REMARK    8  A    between atoms: C_18  and  C_20
REMARK    9  A    between atoms: C_20  and  O_22
REMARK   10  A    between atoms: O_22  and  C_23
REMARK                            x       y       z     vdW  Elec       q    Type
REMARK                         _______ _______ _______ _____ _____    ______ ____
ROOT
ATOM      1  N   UNL     1       3.824   4.456  17.604  0.00  0.00    +0.000 N 
ATOM      2  C   UNL     1       3.060   3.738  18.510  0.00  0.00    +0.000 A 
ATOM      3  C   UNL     1       3.043   2.370  18.836  0.00  0.00    +0.000 A 
ATOM      4  C   UNL     1       2.091   1.915  19.752  0.00  0.00    +0.000 A 
ATOM      5  C   UNL     1       1.199   2.797  20.349  0.00  0.00    +0.000 A 
ATOM      6  C   UNL     1       1.241   4.161  20.045  0.00  0.00    +0.000 A 
ATOM      7  C   UNL     1       2.180   4.641  19.108  0.00  0.00    +0.000 A 
ATOM      8  C   UNL     1       2.474   5.937  18.586  0.00  0.00    +0.000 A 
ATOM      9  C   UNL     1       1.935   7.209  18.822  0.00  0.00    +0.000 A 
ATOM     10  C   UNL     1       2.492   8.264  18.115  0.00  0.00    +0.000 A 
ATOM     11  N   UNL     1       3.513   8.144  17.222  0.00  0.00    +0.000 NA
ATOM     12  C   UNL     1       4.032   6.913  16.991  0.00  0.00    +0.000 A 
ATOM     13  C   UNL     1       3.514   5.804  17.663  0.00  0.00    +0.000 A 
ENDROOT
BRANCH  10  14
ATOM     14  C   UNL     1       1.939   9.643  18.336  0.00  0.00    +0.000 C 
ATOM     15  O   UNL     1       2.269  10.584  17.624  0.00  0.00    +0.000 OA
ATOM     16  N   UNL     1       1.064   9.765  19.391  0.00  0.00    +0.000 N 
ATOM     17  H   UNL     1       0.882   8.934  19.949  0.00  0.00    +0.000 HD
BRANCH  16  18
ATOM     18  C   UNL     1       0.472  11.045  19.773  0.00  0.00    +0.000 C 
ATOM     19  C   UNL     1      -0.983  11.116  19.323  0.00  0.00    +0.000 C 
BRANCH  18  20
ATOM     20  C   UNL     1       0.552  11.320  21.281  0.00  0.00    +0.000 C 
ATOM     21  O   UNL     1       0.298  12.403  21.795  0.00  0.00    +0.000 OA
BRANCH  20  22
ATOM     22  O   UNL     1       0.933  10.208  21.977  0.00  0.00    +0.000 OA
ATOM     23  C   UNL     1      -0.047   9.736  22.901  0.00  0.00    +0.000 C 
ENDBRANCH  20  22
ENDBRANCH  18  20
ENDBRANCH  16  18
ENDBRANCH  10  14
BRANCH   1  24
ATOM     24  C   UNL     1       4.783   3.843  16.690  0.00  0.00    +0.000 C 
BRANCH  24  25
ATOM     25  C   UNL     1       6.208   4.356  16.919  0.00  0.00    +0.000 C 
BRANCH  25  27
ATOM     26  C   UNL     1       6.156   4.099  14.424  0.00  0.00    +0.000 C 
ATOM     27  C   UNL     1       6.925   4.668  15.608  0.00  0.00    +0.000 C 
ENDBRANCH  25  27
ENDBRANCH  24  25
ENDBRANCH   1  24
TORSDOF 7
ENDMDL
