MODEL 1
REMARK VINA RESULT:      -7.0      0.000      0.000
REMARK  Name = 
REMARK  3 active torsions:
REMARK  status: ('A' for Active; 'I' for Inactive)
REMARK    1  A    between atoms: C_2  and  C_3
REMARK    2  A    between atoms: C_9  and  C_10
REMARK    3  A    between atoms: C_10  and  N_11
REMARK                            x       y       z     vdW  Elec       q    Type
REMARK                         _______ _______ _______ _____ _____    ______ ____
ROOT
ATOM      1  N   UNL     1       3.065   6.297  18.255  0.00  0.00    +0.000 N 
ATOM      2  N   UNL     1       4.388   6.555  18.163  0.00  0.00    +0.000 NA
ATOM      3  C   UNL     1       4.944   5.398  18.533  0.00  0.00    +0.000 A 
ATOM      4 BR   UNL     1       6.813   5.170  18.598  0.00  0.00    +0.000 Br
ATOM      5  C   UNL     1       4.006   4.397  18.851  0.00  0.00    +0.000 A 
ATOM      6  C   UNL     1       3.976   3.074  19.302  0.00  0.00    +0.000 A 
ATOM      7  N   UNL     1       5.094   2.326  19.628  0.00  0.00    +0.000 N 
ATOM      8  N   UNL     1       2.777   2.472  19.446  0.00  0.00    +0.000 NA
ATOM      9  C   UNL     1       1.660   3.177  19.174  0.00  0.00    +0.000 A 
ATOM     10  N   UNL     1       1.568   4.455  18.769  0.00  0.00    +0.000 NA
ATOM     11  C   UNL     1       2.784   5.010  18.627  0.00  0.00    +0.000 A 
ATOM     12  H   UNL     1       5.967   2.580  19.187  0.00  0.00    +0.000 HD
ATOM     13  H   UNL     1       4.883   1.338  19.709  0.00  0.00    +0.000 HD
ENDROOT
BRANCH   1  14
ATOM     14  C   UNL     1       2.112   7.356  17.991  0.00  0.00    +0.000 C 
BRANCH  14  21
ATOM     15  C   UNL     1       1.084  11.724  20.046  0.00  0.00    +0.000 C 
ATOM     16  O   UNL     1       1.116  12.328  21.118  0.00  0.00    +0.000 OA
ATOM     17  N   UNL     1       0.752  10.381  19.944  0.00  0.00    +0.000 N 
ATOM     18  C   UNL     1       0.293   9.689  21.141  0.00  0.00    +0.000 C 
ATOM     19  C   UNL     1       1.319   8.649  21.571  0.00  0.00    +0.000 C 
ATOM     20  C   UNL     1       1.606   7.671  20.432  0.00  0.00    +0.000 C 
ATOM     21  C   UNL     1       1.997   8.392  19.126  0.00  0.00    +0.000 C 
ATOM     22  C   UNL     1       0.991   9.512  18.786  0.00  0.00    +0.000 C 
BRANCH  15  24
ATOM     23  C   UNL     1       2.613  12.912  18.536  0.00  0.00    +0.000 C 
ATOM     24  C   UNL     1       1.380  12.451  18.783  0.00  0.00    +0.000 C 
ENDBRANCH  15  24
ENDBRANCH  14  21
ENDBRANCH   1  14
TORSDOF 3
ENDMDL
MODEL 2
REMARK VINA RESULT:      -6.9      1.493      2.249
REMARK  Name = 
REMARK  3 active torsions:
REMARK  status: ('A' for Active; 'I' for Inactive)
REMARK    1  A    between atoms: C_2  and  C_3
REMARK    2  A    between atoms: C_9  and  C_10
REMARK    3  A    between atoms: C_10  and  N_11
REMARK                            x       y       z     vdW  Elec       q    Type
REMARK                         _______ _______ _______ _____ _____    ______ ____
ROOT
ATOM      1  N   UNL     1       2.554   6.022  18.261  0.00  0.00    +0.000 N 
ATOM      2  N   UNL     1       1.568   5.100  18.329  0.00  0.00    +0.000 NA
ATOM      3  C   UNL     1       2.223   3.989  18.677  0.00  0.00    +0.000 A 
ATOM      4 BR   UNL     1       1.332   2.346  18.919  0.00  0.00    +0.000 Br
ATOM      5  C   UNL     1       3.607   4.179  18.845  0.00  0.00    +0.000 A 
ATOM      6  C   UNL     1       4.751   3.438  19.157  0.00  0.00    +0.000 A 
ATOM      7  N   UNL     1       4.770   2.073  19.380  0.00  0.00    +0.000 N 
ATOM      8  N   UNL     1       5.932   4.084  19.238  0.00  0.00    +0.000 NA
ATOM      9  C   UNL     1       5.966   5.410  18.992  0.00  0.00    +0.000 A 
ATOM     10  N   UNL     1       4.942   6.213  18.653  0.00  0.00    +0.000 NA
ATOM     11  C   UNL     1       3.786   5.530  18.597  0.00  0.00    +0.000 A 
ATOM     12  H   UNL     1       3.913   1.643  19.702  0.00  0.00    +0.000 HD
ATOM     13  H   UNL     1       5.634   1.766  19.811  0.00  0.00    +0.000 HD
ENDROOT
BRANCH   1  14
ATOM     14  C   UNL     1       2.239   7.372  17.837  0.00  0.00    +0.000 C 
BRANCH  14  21
ATOM     15  C   UNL     1       1.051  11.646  20.000  0.00  0.00    +0.000 C 
ATOM     16  O   UNL     1       1.052  12.221  21.090  0.00  0.00    +0.000 OA
ATOM     17  N   UNL     1       0.763  10.296  19.857  0.00  0.00    +0.000 N 
ATOM     18  C   UNL     1       0.314   9.557  21.030  0.00  0.00    +0.000 C 
ATOM     19  C   UNL     1       1.368   8.538  21.443  0.00  0.00    +0.000 C 
ATOM     20  C   UNL     1       1.698   7.602  20.280  0.00  0.00    +0.000 C 
ATOM     21  C   UNL     1       2.080   8.372  18.999  0.00  0.00    +0.000 C 
ATOM     22  C   UNL     1       1.042   9.468  18.679  0.00  0.00    +0.000 C 
BRANCH  15  24
ATOM     23  C   UNL     1       2.574  12.863  18.508  0.00  0.00    +0.000 C 
ATOM     24  C   UNL     1       1.337  12.417  18.761  0.00  0.00    +0.000 C 
ENDBRANCH  15  24
ENDBRANCH  14  21
ENDBRANCH   1  14
TORSDOF 3
ENDMDL
MODEL 3
REMARK VINA RESULT:      -6.8      3.528      6.755
REMARK  Name = 
REMARK  3 active torsions:
REMARK  status: ('A' for Active; 'I' for Inactive)
REMARK    1  A    between atoms: C_2  and  C_3
REMARK    2  A    between atoms: C_9  and  C_10
REMARK    3  A    between atoms: C_10  and  N_11
REMARK                            x       y       z     vdW  Elec       q    Type
REMARK                         _______ _______ _______ _____ _____    ______ ____
ROOT
ATOM      1  N   UNL     1       2.216   6.759  20.064  0.00  0.00    +0.000 N 
ATOM      2  N   UNL     1       1.486   6.909  21.192  0.00  0.00    +0.000 NA
ATOM      3  C   UNL     1       0.976   8.137  21.056  0.00  0.00    +0.000 A 
ATOM      4 BR   UNL     1      -0.147   8.896  22.364  0.00  0.00    +0.000 Br
ATOM      5  C   UNL     1       1.355   8.775  19.859  0.00  0.00    +0.000 A 
ATOM      6  C   UNL     1       1.177   9.998  19.206  0.00  0.00    +0.000 A 
ATOM      7  N   UNL     1       0.471  11.072  19.721  0.00  0.00    +0.000 N 
ATOM      8  N   UNL     1       1.737  10.165  17.991  0.00  0.00    +0.000 NA
ATOM      9  C   UNL     1       2.464   9.156  17.468  0.00  0.00    +0.000 A 
ATOM     10  N   UNL     1       2.728   7.958  18.016  0.00  0.00    +0.000 NA
ATOM     11  C   UNL     1       2.141   7.832  19.218  0.00  0.00    +0.000 A 
ATOM     12  H   UNL     1      -0.250  10.871  20.400  0.00  0.00    +0.000 HD
ATOM     13  H   UNL     1       0.264  11.768  19.014  0.00  0.00    +0.000 HD
ENDROOT
BRANCH   1  14
ATOM     14  C   UNL     1       2.993   5.551  19.873  0.00  0.00    +0.000 C 
BRANCH  14  21
ATOM     15  C   UNL     1       7.091   6.103  17.179  0.00  0.00    +0.000 C 
ATOM     16  O   UNL     1       7.514   6.040  16.024  0.00  0.00    +0.000 OA
ATOM     17  N   UNL     1       6.144   5.226  17.687  0.00  0.00    +0.000 N 
ATOM     18  C   UNL     1       5.729   4.100  16.859  0.00  0.00    +0.000 C 
ATOM     19  C   UNL     1       4.277   4.269  16.434  0.00  0.00    +0.000 C 
ATOM     20  C   UNL     1       3.372   4.432  17.655  0.00  0.00    +0.000 C 
ATOM     21  C   UNL     1       3.854   5.555  18.596  0.00  0.00    +0.000 C 
ATOM     22  C   UNL     1       5.358   5.409  18.912  0.00  0.00    +0.000 C 
BRANCH  15  24
ATOM     23  C   UNL     1       7.917   8.366  17.653  0.00  0.00    +0.000 C 
ATOM     24  C   UNL     1       7.626   7.138  18.103  0.00  0.00    +0.000 C 
ENDBRANCH  15  24
ENDBRANCH  14  21
ENDBRANCH   1  14
TORSDOF 3
ENDMDL
MODEL 4
REMARK VINA RESULT:      -6.7      1.627      2.303
REMARK  Name = 
REMARK  3 active torsions:
REMARK  status: ('A' for Active; 'I' for Inactive)
REMARK    1  A    between atoms: C_2  and  C_3
REMARK    2  A    between atoms: C_9  and  C_10
REMARK    3  A    between atoms: C_10  and  N_11
REMARK                            x       y       z     vdW  Elec       q    Type
REMARK                         _______ _______ _______ _____ _____    ______ ____
ROOT
ATOM      1  N   UNL     1       2.446   6.143  19.235  0.00  0.00    +0.000 N 
ATOM      2  N   UNL     1       1.715   5.390  20.087  0.00  0.00    +0.000 NA
ATOM      3  C   UNL     1       2.497   4.326  20.292  0.00  0.00    +0.000 A 
ATOM      4 BR   UNL     1       1.974   2.911  21.420  0.00  0.00    +0.000 Br
ATOM      5  C   UNL     1       3.721   4.384  19.598  0.00  0.00    +0.000 A 
ATOM      6  C   UNL     1       4.868   3.610  19.402  0.00  0.00    +0.000 A 
ATOM      7  N   UNL     1       5.068   2.348  19.933  0.00  0.00    +0.000 N 
ATOM      8  N   UNL     1       5.856   4.109  18.631  0.00  0.00    +0.000 NA
ATOM      9  C   UNL     1       5.687   5.321  18.064  0.00  0.00    +0.000 A 
ATOM     10  N   UNL     1       4.621   6.135  18.156  0.00  0.00    +0.000 NA
ATOM     11  C   UNL     1       3.669   5.603  18.941  0.00  0.00    +0.000 A 
ATOM     12  H   UNL     1       4.568   2.116  20.780  0.00  0.00    +0.000 HD
ATOM     13  H   UNL     1       6.036   2.054  19.870  0.00  0.00    +0.000 HD
ENDROOT
BRANCH   1  14
ATOM     14  C   UNL     1       1.890   7.376  18.716  0.00  0.00    +0.000 C 
BRANCH  14  21
ATOM     15  C   UNL     1       1.345  12.017  20.302  0.00  0.00    +0.000 C 
ATOM     16  O   UNL     1       1.377  12.710  21.320  0.00  0.00    +0.000 OA
ATOM     17  N   UNL     1       0.830  10.729  20.279  0.00  0.00    +0.000 N 
ATOM     18  C   UNL     1       0.181  10.223  21.482  0.00  0.00    +0.000 C 
ATOM     19  C   UNL     1       1.008   9.097  22.089  0.00  0.00    +0.000 C 
ATOM     20  C   UNL     1       1.241   7.986  21.066  0.00  0.00    +0.000 C 
ATOM     21  C   UNL     1       1.836   8.520  19.747  0.00  0.00    +0.000 C 
ATOM     22  C   UNL     1       1.033   9.731  19.225  0.00  0.00    +0.000 C 
BRANCH  15  24
ATOM     23  C   UNL     1       1.451  13.787  18.603  0.00  0.00    +0.000 C 
ATOM     24  C   UNL     1       1.844  12.575  19.017  0.00  0.00    +0.000 C 
ENDBRANCH  15  24
ENDBRANCH  14  21
ENDBRANCH   1  14
TORSDOF 3
ENDMDL
MODEL 5
REMARK VINA RESULT:      -6.7      3.336      7.319
REMARK  Name = 
REMARK  3 active torsions:
REMARK  status: ('A' for Active; 'I' for Inactive)
REMARK    1  A    between atoms: C_2  and  C_3
REMARK    2  A    between atoms: C_9  and  C_10
REMARK    3  A    between atoms: C_10  and  N_11
REMARK                            x       y       z     vdW  Elec       q    Type
REMARK                         _______ _______ _______ _____ _____    ______ ____
ROOT
ATOM      1  N   UNL     1       1.332   8.872  19.030  0.00  0.00    +0.000 N 
ATOM      2  N   UNL     1       1.683   8.555  20.297  0.00  0.00    +0.000 NA
ATOM      3  C   UNL     1       0.878   9.327  21.032  0.00  0.00    +0.000 A 
ATOM      4 BR   UNL     1       0.929   9.307  22.915  0.00  0.00    +0.000 Br
ATOM      5  C   UNL     1       0.009  10.127  20.265  0.00  0.00    +0.000 A 
ATOM      6  C   UNL     1      -0.980  11.098  20.448  0.00  0.00    +0.000 A 
ATOM      7  N   UNL     1      -1.371  11.604  21.675  0.00  0.00    +0.000 N 
ATOM      8  N   UNL     1      -1.599  11.597  19.358  0.00  0.00    +0.000 NA
ATOM      9  C   UNL     1      -1.224  11.158  18.140  0.00  0.00    +0.000 A 
ATOM     10  N   UNL     1      -0.269  10.258  17.844  0.00  0.00    +0.000 NA
ATOM     11  C   UNL     1       0.311   9.781  18.958  0.00  0.00    +0.000 A 
ATOM     12  H   UNL     1      -1.230  11.018  22.485  0.00  0.00    +0.000 HD
ATOM     13  H   UNL     1      -2.243  12.117  21.618  0.00  0.00    +0.000 HD
ENDROOT
BRANCH   1  14
ATOM     14  C   UNL     1       2.048   8.274  17.921  0.00  0.00    +0.000 C 
BRANCH  14  21
ATOM     15  C   UNL     1       2.719   3.587  19.313  0.00  0.00    +0.000 C 
ATOM     16  O   UNL     1       3.597   2.765  19.579  0.00  0.00    +0.000 OA
ATOM     17  N   UNL     1       2.845   4.528  18.301  0.00  0.00    +0.000 N 
ATOM     18  C   UNL     1       4.012   4.456  17.431  0.00  0.00    +0.000 C 
ATOM     19  C   UNL     1       4.915   5.660  17.664  0.00  0.00    +0.000 C 
ATOM     20  C   UNL     1       4.141   6.962  17.461  0.00  0.00    +0.000 C 
ATOM     21  C   UNL     1       2.848   7.013  18.300  0.00  0.00    +0.000 C 
ATOM     22  C   UNL     1       2.017   5.725  18.120  0.00  0.00    +0.000 C 
BRANCH  15  24
ATOM     23  C   UNL     1       1.347   2.901  21.229  0.00  0.00    +0.000 C 
ATOM     24  C   UNL     1       1.442   3.571  20.074  0.00  0.00    +0.000 C 
ENDBRANCH  15  24
ENDBRANCH  14  21
ENDBRANCH   1  14
TORSDOF 3
ENDMDL
MODEL 6
REMARK VINA RESULT:      -6.6      2.959      4.962
REMARK  Name = 
REMARK  3 active torsions:
REMARK  status: ('A' for Active; 'I' for Inactive)
REMARK    1  A    between atoms: C_2  and  C_3
REMARK    2  A    between atoms: C_9  and  C_10
REMARK    3  A    between atoms: C_10  and  N_11
REMARK                            x       y       z     vdW  Elec       q    Type
REMARK                         _______ _______ _______ _____ _____    ______ ____
ROOT
ATOM      1  N   UNL     1       5.166   3.558  18.051  0.00  0.00    +0.000 N 
ATOM      2  N   UNL     1       4.972   3.424  16.720  0.00  0.00    +0.000 NA
ATOM      3  C   UNL     1       5.779   4.357  16.206  0.00  0.00    +0.000 A 
ATOM      4 BR   UNL     1       5.919   4.635  14.348  0.00  0.00    +0.000 Br
ATOM      5  C   UNL     1       6.496   5.080  17.178  0.00  0.00    +0.000 A 
ATOM      6  C   UNL     1       7.414   6.131  17.257  0.00  0.00    +0.000 A 
ATOM      7  N   UNL     1       7.883   6.852  16.173  0.00  0.00    +0.000 N 
ATOM      8  N   UNL     1       7.877   6.490  18.472  0.00  0.00    +0.000 NA
ATOM      9  C   UNL     1       7.420   5.837  19.560  0.00  0.00    +0.000 A 
ATOM     10  N   UNL     1       6.519   4.840  19.606  0.00  0.00    +0.000 NA
ATOM     11  C   UNL     1       6.095   4.509  18.375  0.00  0.00    +0.000 A 
ATOM     12  H   UNL     1       7.873   6.395  15.272  0.00  0.00    +0.000 HD
ATOM     13  H   UNL     1       8.698   7.407  16.405  0.00  0.00    +0.000 HD
ENDROOT
BRANCH   1  14
ATOM     14  C   UNL     1       4.395   2.743  18.969  0.00  0.00    +0.000 C 
BRANCH  14  21
ATOM     15  C   UNL     1       1.605   6.578  20.336  0.00  0.00    +0.000 C 
ATOM     16  O   UNL     1       0.889   6.985  21.251  0.00  0.00    +0.000 OA
ATOM     17  N   UNL     1       1.639   5.250  19.936  0.00  0.00    +0.000 N 
ATOM     18  C   UNL     1       0.691   4.321  20.537  0.00  0.00    +0.000 C 
ATOM     19  C   UNL     1       1.425   3.315  21.412  0.00  0.00    +0.000 C 
ATOM     20  C   UNL     1       2.497   2.581  20.607  0.00  0.00    +0.000 C 
ATOM     21  C   UNL     1       3.451   3.550  19.881  0.00  0.00    +0.000 C 
ATOM     22  C   UNL     1       2.665   4.621  19.096  0.00  0.00    +0.000 C 
BRANCH  15  24
ATOM     23  C   UNL     1       1.968   8.204  18.533  0.00  0.00    +0.000 C 
ATOM     24  C   UNL     1       2.459   7.538  19.586  0.00  0.00    +0.000 C 
ENDBRANCH  15  24
ENDBRANCH  14  21
ENDBRANCH   1  14
TORSDOF 3
ENDMDL
MODEL 7
REMARK VINA RESULT:      -6.6      0.975      1.110
REMARK  Name = 
REMARK  3 active torsions:
REMARK  status: ('A' for Active; 'I' for Inactive)
REMARK    1  A    between atoms: C_2  and  C_3
REMARK    2  A    between atoms: C_9  and  C_10
REMARK    3  A    between atoms: C_10  and  N_11
REMARK                            x       y       z     vdW  Elec       q    Type
REMARK                         _______ _______ _______ _____ _____    ______ ____
ROOT
ATOM      1  N   UNL     1       2.877   7.026  18.030  0.00  0.00    +0.000 N 
ATOM      2  N   UNL     1       4.061   7.467  17.551  0.00  0.00    +0.000 NA
ATOM      3  C   UNL     1       4.875   6.429  17.763  0.00  0.00    +0.000 A 
ATOM      4 BR   UNL     1       6.696   6.479  17.284  0.00  0.00    +0.000 Br
ATOM      5  C   UNL     1       4.236   5.325  18.359  0.00  0.00    +0.000 A 
ATOM      6  C   UNL     1       4.544   4.042  18.822  0.00  0.00    +0.000 A 
ATOM      7  N   UNL     1       5.812   3.487  18.821  0.00  0.00    +0.000 N 
ATOM      8  N   UNL     1       3.548   3.283  19.321  0.00  0.00    +0.000 NA
ATOM      9  C   UNL     1       2.303   3.799  19.375  0.00  0.00    +0.000 A 
ATOM     10  N   UNL     1       1.899   5.022  18.991  0.00  0.00    +0.000 NA
ATOM     11  C   UNL     1       2.920   5.738  18.491  0.00  0.00    +0.000 A 
ATOM     12  H   UNL     1       6.471   3.836  18.140  0.00  0.00    +0.000 HD
ATOM     13  H   UNL     1       5.792   2.486  18.978  0.00  0.00    +0.000 HD
ENDROOT
BRANCH   1  14
ATOM     14  C   UNL     1       1.734   7.916  18.037  0.00  0.00    +0.000 C 
BRANCH  14  21
ATOM     15  C   UNL     1       0.774  12.135  20.410  0.00  0.00    +0.000 C 
ATOM     16  O   UNL     1       0.905  12.692  21.501  0.00  0.00    +0.000 OA
ATOM     17  N   UNL     1       0.487  10.784  20.280  0.00  0.00    +0.000 N 
ATOM     18  C   UNL     1       0.199  10.019  21.486  0.00  0.00    +0.000 C 
ATOM     19  C   UNL     1       1.310   9.010  21.744  0.00  0.00    +0.000 C 
ATOM     20  C   UNL     1       1.503   8.098  20.532  0.00  0.00    +0.000 C 
ATOM     21  C   UNL     1       1.709   8.894  19.228  0.00  0.00    +0.000 C 
ATOM     22  C   UNL     1       0.626   9.980  19.061  0.00  0.00    +0.000 C 
BRANCH  15  24
ATOM     23  C   UNL     1      -0.160  13.613  18.687  0.00  0.00    +0.000 C 
ATOM     24  C   UNL     1       0.891  12.931  19.160  0.00  0.00    +0.000 C 
ENDBRANCH  15  24
ENDBRANCH  14  21
ENDBRANCH   1  14
TORSDOF 3
ENDMDL
MODEL 8
REMARK VINA RESULT:      -6.6      4.701      8.220
REMARK  Name = 
REMARK  3 active torsions:
REMARK  status: ('A' for Active; 'I' for Inactive)
REMARK    1  A    between atoms: C_2  and  C_3
REMARK    2  A    between atoms: C_9  and  C_10
REMARK    3  A    between atoms: C_10  and  N_11
REMARK                            x       y       z     vdW  Elec       q    Type
REMARK                         _______ _______ _______ _____ _____    ______ ____
ROOT
ATOM      1  N   UNL     1      -1.575  11.224  18.106  0.00  0.00    +0.000 N 
ATOM      2  N   UNL     1      -1.650  10.714  16.856  0.00  0.00    +0.000 NA
ATOM      3  C   UNL     1      -2.944  10.855  16.553  0.00  0.00    +0.000 A 
ATOM      4 BR   UNL     1      -3.642  10.297  14.895  0.00  0.00    +0.000 Br
ATOM      5  C   UNL     1      -3.701  11.455  17.577  0.00  0.00    +0.000 A 
ATOM      6  C   UNL     1      -5.023  11.819  17.847  0.00  0.00    +0.000 A 
ATOM      7  N   UNL     1      -6.093  11.588  17.000  0.00  0.00    +0.000 N 
ATOM      8  N   UNL     1      -5.296  12.429  19.018  0.00  0.00    +0.000 NA
ATOM      9  C   UNL     1      -4.288  12.642  19.889  0.00  0.00    +0.000 A 
ATOM     10  N   UNL     1      -2.993  12.308  19.751  0.00  0.00    +0.000 NA
ATOM     11  C   UNL     1      -2.767  11.714  18.568  0.00  0.00    +0.000 A 
ATOM     12  H   UNL     1      -5.894  11.502  16.013  0.00  0.00    +0.000 HD
ATOM     13  H   UNL     1      -6.913  12.120  17.264  0.00  0.00    +0.000 HD
ENDROOT
BRANCH   1  14
ATOM     14  C   UNL     1      -0.313  11.186  18.817  0.00  0.00    +0.000 C 
BRANCH  14  21
ATOM     15  C   UNL     1       1.957   6.954  19.952  0.00  0.00    +0.000 C 
ATOM     16  O   UNL     1       1.898   5.990  20.716  0.00  0.00    +0.000 OA
ATOM     17  N   UNL     1       1.652   8.250  20.342  0.00  0.00    +0.000 N 
ATOM     18  C   UNL     1       1.375   8.501  21.751  0.00  0.00    +0.000 C 
ATOM     19  C   UNL     1      -0.088   8.879  21.938  0.00  0.00    +0.000 C 
ATOM     20  C   UNL     1      -0.448  10.085  21.071  0.00  0.00    +0.000 C 
ATOM     21  C   UNL     1      -0.070   9.877  19.591  0.00  0.00    +0.000 C 
ATOM     22  C   UNL     1       1.387   9.386  19.453  0.00  0.00    +0.000 C 
BRANCH  15  24
ATOM     23  C   UNL     1       2.519   5.519  18.041  0.00  0.00    +0.000 C 
ATOM     24  C   UNL     1       2.406   6.753  18.548  0.00  0.00    +0.000 C 
ENDBRANCH  15  24
ENDBRANCH  14  21
ENDBRANCH   1  14
TORSDOF 3
ENDMDL
MODEL 9
REMARK VINA RESULT:      -6.5      3.478      6.795
REMARK  Name = 
REMARK  3 active torsions:
REMARK  status: ('A' for Active; 'I' for Inactive)
REMARK    1  A    between atoms: C_2  and  C_3
REMARK    2  A    between atoms: C_9  and  C_10
REMARK    3  A    between atoms: C_10  and  N_11
REMARK                            x       y       z     vdW  Elec       q    Type
REMARK                         _______ _______ _______ _____ _____    ______ ____
ROOT
ATOM      1  N   UNL     1       1.468   7.432  20.650  0.00  0.00    +0.000 N 
ATOM      2  N   UNL     1       0.796   7.786  21.768  0.00  0.00    +0.000 NA
ATOM      3  C   UNL     1       0.478   9.063  21.535  0.00  0.00    +0.000 A 
ATOM      4 BR   UNL     1      -0.484  10.092  22.785  0.00  0.00    +0.000 Br
ATOM      5  C   UNL     1       0.923   9.535  20.285  0.00  0.00    +0.000 A 
ATOM      6  C   UNL     1       0.921  10.713  19.533  0.00  0.00    +0.000 A 
ATOM      7  N   UNL     1       0.402  11.921  19.962  0.00  0.00    +0.000 N 
ATOM      8  N   UNL     1       1.473  10.690  18.302  0.00  0.00    +0.000 NA
ATOM      9  C   UNL     1       2.024   9.542  17.859  0.00  0.00    +0.000 A 
ATOM     10  N   UNL     1       2.112   8.365  18.504  0.00  0.00    +0.000 NA
ATOM     11  C   UNL     1       1.540   8.431  19.718  0.00  0.00    +0.000 A 
ATOM     12  H   UNL     1      -0.326  11.891  20.662  0.00  0.00    +0.000 HD
ATOM     13  H   UNL     1       0.288  12.581  19.201  0.00  0.00    +0.000 HD
ENDROOT
BRANCH   1  14
ATOM     14  C   UNL     1       2.045   6.106  20.555  0.00  0.00    +0.000 C 
BRANCH  14  21
ATOM     15  C   UNL     1       5.164   5.687  16.754  0.00  0.00    +0.000 C 
ATOM     16  O   UNL     1       5.234   5.294  15.589  0.00  0.00    +0.000 OA
ATOM     17  N   UNL     1       4.428   5.032  17.730  0.00  0.00    +0.000 N 
ATOM     18  C   UNL     1       3.818   3.752  17.395  0.00  0.00    +0.000 C 
ATOM     19  C   UNL     1       2.301   3.883  17.375  0.00  0.00    +0.000 C 
ATOM     20  C   UNL     1       1.788   4.417  18.712  0.00  0.00    +0.000 C 
ATOM     21  C   UNL     1       2.496   5.721  19.133  0.00  0.00    +0.000 C 
ATOM     22  C   UNL     1       4.029   5.580  19.031  0.00  0.00    +0.000 C 
BRANCH  15  24
ATOM     23  C   UNL     1       7.231   6.825  17.432  0.00  0.00    +0.000 C 
ATOM     24  C   UNL     1       5.920   6.899  17.167  0.00  0.00    +0.000 C 
ENDBRANCH  15  24
ENDBRANCH  14  21
ENDBRANCH   1  14
TORSDOF 3
ENDMDL
