MODEL 1
REMARK VINA RESULT:      -6.6      0.000      0.000
REMARK  Name = 
REMARK  5 active torsions:
REMARK  status: ('A' for Active; 'I' for Inactive)
REMARK    1  A    between atoms: C_1  and  C_2
REMARK    2  A    between atoms: C_2  and  O_3
REMARK    3  A    between atoms: O_3  and  C_4
REMARK    4  A    between atoms: C_4  and  C_6
REMARK    5  A    between atoms: C_6  and  C_7
REMARK                            x       y       z     vdW  Elec       q    Type
REMARK                         _______ _______ _______ _____ _____    ______ ____
ROOT
ATOM      1  C   UNL     1       4.942   4.015  17.058  0.00  0.00    +0.000 A 
ATOM      2  N   UNL     1       5.125   3.738  18.337  0.00  0.00    +0.000 NA
ATOM      3  C   UNL     1       3.857   3.508  18.803  0.00  0.00    +0.000 A 
ATOM      4  C   UNL     1       3.398   3.198  20.087  0.00  0.00    +0.000 A 
ATOM      5  C   UNL     1       2.019   3.026  20.256  0.00  0.00    +0.000 A 
ATOM      6 CL   UNL     1       1.409   2.657  21.825  0.00  0.00    +0.000 Cl
ATOM      7  C   UNL     1       1.123   3.150  19.185  0.00  0.00    +0.000 A 
ATOM      8  C   UNL     1       1.574   3.453  17.893  0.00  0.00    +0.000 A 
ATOM      9  C   UNL     1       2.946   3.623  17.765  0.00  0.00    +0.000 A 
ATOM     10  O   UNL     1       3.641   3.930  16.634  0.00  0.00    +0.000 OA
ENDROOT
BRANCH   1  11
ATOM     11  C   UNL     1       5.954   4.348  16.044  0.00  0.00    +0.000 C 
BRANCH  11  12
ATOM     12  C   UNL     1       6.106   5.841  15.954  0.00  0.00    +0.000 C 
ATOM     13  O   UNL     1       5.307   6.621  15.455  0.00  0.00    +0.000 OA
BRANCH  12  14
ATOM     14  O   UNL     1       7.363   6.179  16.376  0.00  0.00    +0.000 OA
BRANCH  14  16
ATOM     15  C   UNL     1       7.782   6.215  18.719  0.00  0.00    +0.000 C 
ATOM     16  C   UNL     1       7.416   7.055  17.510  0.00  0.00    +0.000 C 
ENDBRANCH  14  16
ENDBRANCH  12  14
ENDBRANCH  11  12
ENDBRANCH   1  11
TORSDOF 4
ENDMDL
MODEL 2
REMARK VINA RESULT:      -6.6      1.949      2.521
REMARK  Name = 
REMARK  5 active torsions:
REMARK  status: ('A' for Active; 'I' for Inactive)
REMARK    1  A    between atoms: C_1  and  C_2
REMARK    2  A    between atoms: C_2  and  O_3
REMARK    3  A    between atoms: O_3  and  C_4
REMARK    4  A    between atoms: C_4  and  C_6
REMARK    5  A    between atoms: C_6  and  C_7
REMARK                            x       y       z     vdW  Elec       q    Type
REMARK                         _______ _______ _______ _____ _____    ______ ____
ROOT
ATOM      1  C   UNL     1       6.104   5.168  18.870  0.00  0.00    +0.000 A 
ATOM      2  N   UNL     1       5.665   3.955  19.156  0.00  0.00    +0.000 NA
ATOM      3  C   UNL     1       4.330   4.013  18.851  0.00  0.00    +0.000 A 
ATOM      4  C   UNL     1       3.324   3.050  18.968  0.00  0.00    +0.000 A 
ATOM      5  C   UNL     1       2.030   3.416  18.577  0.00  0.00    +0.000 A 
ATOM      6 CL   UNL     1       0.756   2.264  18.717  0.00  0.00    +0.000 Cl
ATOM      7  C   UNL     1       1.745   4.695  18.078  0.00  0.00    +0.000 A 
ATOM      8  C   UNL     1       2.748   5.664  17.949  0.00  0.00    +0.000 A 
ATOM      9  C   UNL     1       4.016   5.267  18.354  0.00  0.00    +0.000 A 
ATOM     10  O   UNL     1       5.159   6.010  18.345  0.00  0.00    +0.000 OA
ENDROOT
BRANCH   1  11
ATOM     11  C   UNL     1       7.470   5.696  18.999  0.00  0.00    +0.000 C 
BRANCH  11  12
ATOM     12  C   UNL     1       7.727   6.703  17.914  0.00  0.00    +0.000 C 
ATOM     13  O   UNL     1       7.572   6.530  16.713  0.00  0.00    +0.000 OA
BRANCH  12  14
ATOM     14  O   UNL     1       8.322   7.803  18.471  0.00  0.00    +0.000 OA
BRANCH  14  16
ATOM     15  C   UNL     1       8.909  10.110  18.468  0.00  0.00    +0.000 C 
ATOM     16  C   UNL     1       8.033   9.051  17.825  0.00  0.00    +0.000 C 
ENDBRANCH  14  16
ENDBRANCH  12  14
ENDBRANCH  11  12
ENDBRANCH   1  11
TORSDOF 4
ENDMDL
MODEL 3
REMARK VINA RESULT:      -6.6      0.727      1.192
REMARK  Name = 
REMARK  5 active torsions:
REMARK  status: ('A' for Active; 'I' for Inactive)
REMARK    1  A    between atoms: C_1  and  C_2
REMARK    2  A    between atoms: C_2  and  O_3
REMARK    3  A    between atoms: O_3  and  C_4
REMARK    4  A    between atoms: C_4  and  C_6
REMARK    5  A    between atoms: C_6  and  C_7
REMARK                            x       y       z     vdW  Elec       q    Type
REMARK                         _______ _______ _______ _____ _____    ______ ____
ROOT
ATOM      1  C   UNL     1       4.813   4.107  16.940  0.00  0.00    +0.000 A 
ATOM      2  N   UNL     1       5.070   3.855  18.212  0.00  0.00    +0.000 NA
ATOM      3  C   UNL     1       3.840   3.556  18.737  0.00  0.00    +0.000 A 
ATOM      4  C   UNL     1       3.458   3.234  20.043  0.00  0.00    +0.000 A 
ATOM      5  C   UNL     1       2.100   2.984  20.276  0.00  0.00    +0.000 A 
ATOM      6 CL   UNL     1       1.584   2.597  21.875  0.00  0.00    +0.000 Cl
ATOM      7  C   UNL     1       1.151   3.045  19.246  0.00  0.00    +0.000 A 
ATOM      8  C   UNL     1       1.525   3.359  17.933  0.00  0.00    +0.000 A 
ATOM      9  C   UNL     1       2.878   3.608  17.741  0.00  0.00    +0.000 A 
ATOM     10  O   UNL     1       3.502   3.942  16.577  0.00  0.00    +0.000 OA
ENDROOT
BRANCH   1  11
ATOM     11  C   UNL     1       5.758   4.487  15.879  0.00  0.00    +0.000 C 
BRANCH  11  12
ATOM     12  C   UNL     1       7.030   4.999  16.495  0.00  0.00    +0.000 C 
ATOM     13  O   UNL     1       7.958   4.320  16.910  0.00  0.00    +0.000 OA
BRANCH  12  14
ATOM     14  O   UNL     1       6.917   6.352  16.669  0.00  0.00    +0.000 OA
BRANCH  14  16
ATOM     15  C   UNL     1       7.796   8.341  17.637  0.00  0.00    +0.000 C 
ATOM     16  C   UNL     1       7.511   6.869  17.868  0.00  0.00    +0.000 C 
ENDBRANCH  14  16
ENDBRANCH  12  14
ENDBRANCH  11  12
ENDBRANCH   1  11
TORSDOF 4
ENDMDL
MODEL 4
REMARK VINA RESULT:      -6.5      2.906      5.468
REMARK  Name = 
REMARK  5 active torsions:
REMARK  status: ('A' for Active; 'I' for Inactive)
REMARK    1  A    between atoms: C_1  and  C_2
REMARK    2  A    between atoms: C_2  and  O_3
REMARK    3  A    between atoms: O_3  and  C_4
REMARK    4  A    between atoms: C_4  and  C_6
REMARK    5  A    between atoms: C_6  and  C_7
REMARK                            x       y       z     vdW  Elec       q    Type
REMARK                         _______ _______ _______ _____ _____    ______ ____
ROOT
ATOM      1  C   UNL     1       4.118   2.894  18.483  0.00  0.00    +0.000 A 
ATOM      2  N   UNL     1       5.035   3.412  19.281  0.00  0.00    +0.000 NA
ATOM      3  C   UNL     1       5.532   4.467  18.561  0.00  0.00    +0.000 A 
ATOM      4  C   UNL     1       6.546   5.382  18.862  0.00  0.00    +0.000 A 
ATOM      5  C   UNL     1       6.839   6.360  17.905  0.00  0.00    +0.000 A 
ATOM      6 CL   UNL     1       8.091   7.499  18.229  0.00  0.00    +0.000 Cl
ATOM      7  C   UNL     1       6.144   6.435  16.690  0.00  0.00    +0.000 A 
ATOM      8  C   UNL     1       5.121   5.529  16.382  0.00  0.00    +0.000 A 
ATOM      9  C   UNL     1       4.864   4.568  17.352  0.00  0.00    +0.000 A 
ATOM     10  O   UNL     1       3.938   3.570  17.304  0.00  0.00    +0.000 OA
ENDROOT
BRANCH   1  11
ATOM     11  C   UNL     1       3.251   1.732  18.726  0.00  0.00    +0.000 C 
BRANCH  11  12
ATOM     12  C   UNL     1       1.866   2.200  19.079  0.00  0.00    +0.000 C 
ATOM     13  O   UNL     1       0.920   2.303  18.312  0.00  0.00    +0.000 OA
BRANCH  12  14
ATOM     14  O   UNL     1       1.874   2.650  20.371  0.00  0.00    +0.000 OA
BRANCH  14  16
ATOM     15  C   UNL     1       1.993   5.018  20.589  0.00  0.00    +0.000 C 
ATOM     16  C   UNL     1       1.072   3.812  20.621  0.00  0.00    +0.000 C 
ENDBRANCH  14  16
ENDBRANCH  12  14
ENDBRANCH  11  12
ENDBRANCH   1  11
TORSDOF 4
ENDMDL
MODEL 5
REMARK VINA RESULT:      -6.5      1.762      2.637
REMARK  Name = 
REMARK  5 active torsions:
REMARK  status: ('A' for Active; 'I' for Inactive)
REMARK    1  A    between atoms: C_1  and  C_2
REMARK    2  A    between atoms: C_2  and  O_3
REMARK    3  A    between atoms: O_3  and  C_4
REMARK    4  A    between atoms: C_4  and  C_6
REMARK    5  A    between atoms: C_6  and  C_7
REMARK                            x       y       z     vdW  Elec       q    Type
REMARK                         _______ _______ _______ _____ _____    ______ ____
ROOT
ATOM      1  C   UNL     1       5.827   5.231  18.800  0.00  0.00    +0.000 A 
ATOM      2  N   UNL     1       4.603   5.604  18.472  0.00  0.00    +0.000 NA
ATOM      3  C   UNL     1       3.841   4.501  18.758  0.00  0.00    +0.000 A 
ATOM      4  C   UNL     1       2.472   4.270  18.598  0.00  0.00    +0.000 A 
ATOM      5  C   UNL     1       1.979   3.016  18.979  0.00  0.00    +0.000 A 
ATOM      6 CL   UNL     1       0.299   2.684  18.786  0.00  0.00    +0.000 Cl
ATOM      7  C   UNL     1       2.816   2.025  19.509  0.00  0.00    +0.000 A 
ATOM      8  C   UNL     1       4.188   2.249  19.682  0.00  0.00    +0.000 A 
ATOM      9  C   UNL     1       4.642   3.501  19.285  0.00  0.00    +0.000 A 
ATOM     10  O   UNL     1       5.919   3.972  19.333  0.00  0.00    +0.000 OA
ENDROOT
BRANCH   1  11
ATOM     11  C   UNL     1       7.071   6.010  18.707  0.00  0.00    +0.000 C 
BRANCH  11  12
ATOM     12  C   UNL     1       7.410   6.250  17.262  0.00  0.00    +0.000 C 
ATOM     13  O   UNL     1       7.386   7.327  16.682  0.00  0.00    +0.000 OA
BRANCH  12  14
ATOM     14  O   UNL     1       7.593   5.041  16.649  0.00  0.00    +0.000 OA
BRANCH  14  16
ATOM     15  C   UNL     1       5.868   3.946  15.427  0.00  0.00    +0.000 C 
ATOM     16  C   UNL     1       7.025   4.924  15.337  0.00  0.00    +0.000 C 
ENDBRANCH  14  16
ENDBRANCH  12  14
ENDBRANCH  11  12
ENDBRANCH   1  11
TORSDOF 4
ENDMDL
MODEL 6
REMARK VINA RESULT:      -6.4      1.415      2.195
REMARK  Name = 
REMARK  5 active torsions:
REMARK  status: ('A' for Active; 'I' for Inactive)
REMARK    1  A    between atoms: C_1  and  C_2
REMARK    2  A    between atoms: C_2  and  O_3
REMARK    3  A    between atoms: O_3  and  C_4
REMARK    4  A    between atoms: C_4  and  C_6
REMARK    5  A    between atoms: C_6  and  C_7
REMARK                            x       y       z     vdW  Elec       q    Type
REMARK                         _______ _______ _______ _____ _____    ______ ____
ROOT
ATOM      1  C   UNL     1       5.152   5.612  17.846  0.00  0.00    +0.000 A 
ATOM      2  N   UNL     1       5.051   5.285  19.122  0.00  0.00    +0.000 NA
ATOM      3  C   UNL     1       3.836   4.656  19.200  0.00  0.00    +0.000 A 
ATOM      4  C   UNL     1       3.158   4.110  20.295  0.00  0.00    +0.000 A 
ATOM      5  C   UNL     1       1.906   3.531  20.056  0.00  0.00    +0.000 A 
ATOM      6 CL   UNL     1       1.030   2.859  21.380  0.00  0.00    +0.000 Cl
ATOM      7  C   UNL     1       1.346   3.487  18.772  0.00  0.00    +0.000 A 
ATOM      8  C   UNL     1       2.021   4.023  17.667  0.00  0.00    +0.000 A 
ATOM      9  C   UNL     1       3.256   4.596  17.943  0.00  0.00    +0.000 A 
ATOM     10  O   UNL     1       4.108   5.193  17.063  0.00  0.00    +0.000 OA
ENDROOT
BRANCH   1  11
ATOM     11  C   UNL     1       6.252   6.315  17.171  0.00  0.00    +0.000 C 
BRANCH  11  12
ATOM     12  C   UNL     1       7.257   5.316  16.668  0.00  0.00    +0.000 C 
ATOM     13  O   UNL     1       7.884   4.516  17.347  0.00  0.00    +0.000 OA
BRANCH  12  14
ATOM     14  O   UNL     1       7.482   5.554  15.339  0.00  0.00    +0.000 OA
BRANCH  14  16
ATOM     15  C   UNL     1       6.198   3.753  14.457  0.00  0.00    +0.000 C 
ATOM     16  C   UNL     1       6.381   5.260  14.468  0.00  0.00    +0.000 C 
ENDBRANCH  14  16
ENDBRANCH  12  14
ENDBRANCH  11  12
ENDBRANCH   1  11
TORSDOF 4
ENDMDL
MODEL 7
REMARK VINA RESULT:      -6.4      1.933      2.437
REMARK  Name = 
REMARK  5 active torsions:
REMARK  status: ('A' for Active; 'I' for Inactive)
REMARK    1  A    between atoms: C_1  and  C_2
REMARK    2  A    between atoms: C_2  and  O_3
REMARK    3  A    between atoms: O_3  and  C_4
REMARK    4  A    between atoms: C_4  and  C_6
REMARK    5  A    between atoms: C_6  and  C_7
REMARK                            x       y       z     vdW  Elec       q    Type
REMARK                         _______ _______ _______ _____ _____    ______ ____
ROOT
ATOM      1  C   UNL     1       6.345   5.226  18.571  0.00  0.00    +0.000 A 
ATOM      2  N   UNL     1       5.491   5.432  19.557  0.00  0.00    +0.000 NA
ATOM      3  C   UNL     1       4.393   4.696  19.195  0.00  0.00    +0.000 A 
ATOM      4  C   UNL     1       3.153   4.536  19.820  0.00  0.00    +0.000 A 
ATOM      5  C   UNL     1       2.213   3.710  19.191  0.00  0.00    +0.000 A 
ATOM      6 CL   UNL     1       0.666   3.497  19.921  0.00  0.00    +0.000 Cl
ATOM      7  C   UNL     1       2.497   3.058  17.983  0.00  0.00    +0.000 A 
ATOM      8  C   UNL     1       3.739   3.204  17.353  0.00  0.00    +0.000 A 
ATOM      9  C   UNL     1       4.642   4.036  18.002  0.00  0.00    +0.000 A 
ATOM     10  O   UNL     1       5.905   4.358  17.605  0.00  0.00    +0.000 OA
ENDROOT
BRANCH   1  11
ATOM     11  C   UNL     1       7.703   5.767  18.414  0.00  0.00    +0.000 C 
BRANCH  11  12
ATOM     12  C   UNL     1       7.632   7.138  17.800  0.00  0.00    +0.000 C 
ATOM     13  O   UNL     1       7.055   7.439  16.765  0.00  0.00    +0.000 OA
BRANCH  12  14
ATOM     14  O   UNL     1       8.458   7.974  18.502  0.00  0.00    +0.000 OA
BRANCH  14  16
ATOM     15  C   UNL     1       9.267  10.130  19.106  0.00  0.00    +0.000 C 
ATOM     16  C   UNL     1       8.356   9.364  18.164  0.00  0.00    +0.000 C 
ENDBRANCH  14  16
ENDBRANCH  12  14
ENDBRANCH  11  12
ENDBRANCH   1  11
TORSDOF 4
ENDMDL
MODEL 8
REMARK VINA RESULT:      -6.4      1.528      2.355
REMARK  Name = 
REMARK  5 active torsions:
REMARK  status: ('A' for Active; 'I' for Inactive)
REMARK    1  A    between atoms: C_1  and  C_2
REMARK    2  A    between atoms: C_2  and  O_3
REMARK    3  A    between atoms: O_3  and  C_4
REMARK    4  A    between atoms: C_4  and  C_6
REMARK    5  A    between atoms: C_6  and  C_7
REMARK                            x       y       z     vdW  Elec       q    Type
REMARK                         _______ _______ _______ _____ _____    ______ ____
ROOT
ATOM      1  C   UNL     1       4.749   4.991  17.061  0.00  0.00    +0.000 A 
ATOM      2  N   UNL     1       4.533   5.264  18.335  0.00  0.00    +0.000 NA
ATOM      3  C   UNL     1       3.646   4.296  18.728  0.00  0.00    +0.000 A 
ATOM      4  C   UNL     1       3.021   4.074  19.959  0.00  0.00    +0.000 A 
ATOM      5  C   UNL     1       2.142   2.988  20.051  0.00  0.00    +0.000 A 
ATOM      6 CL   UNL     1       1.340   2.687  21.546  0.00  0.00    +0.000 Cl
ATOM      7  C   UNL     1       1.896   2.143  18.960  0.00  0.00    +0.000 A 
ATOM      8  C   UNL     1       2.524   2.352  17.725  0.00  0.00    +0.000 A 
ATOM      9  C   UNL     1       3.382   3.443  17.668  0.00  0.00    +0.000 A 
ATOM     10  O   UNL     1       4.105   3.874  16.597  0.00  0.00    +0.000 OA
ENDROOT
BRANCH   1  11
ATOM     11  C   UNL     1       5.620   5.702  16.112  0.00  0.00    +0.000 C 
BRANCH  11  12
ATOM     12  C   UNL     1       6.990   5.085  16.125  0.00  0.00    +0.000 C 
ATOM     13  O   UNL     1       7.599   4.692  17.111  0.00  0.00    +0.000 OA
BRANCH  12  14
ATOM     14  O   UNL     1       7.524   5.178  14.868  0.00  0.00    +0.000 OA
BRANCH  14  16
ATOM     15  C   UNL     1       7.458   4.846  12.512  0.00  0.00    +0.000 C 
ATOM     16  C   UNL     1       6.748   4.574  13.825  0.00  0.00    +0.000 C 
ENDBRANCH  14  16
ENDBRANCH  12  14
ENDBRANCH  11  12
ENDBRANCH   1  11
TORSDOF 4
ENDMDL
MODEL 9
REMARK VINA RESULT:      -6.3      1.273      1.449
REMARK  Name = 
REMARK  5 active torsions:
REMARK  status: ('A' for Active; 'I' for Inactive)
REMARK    1  A    between atoms: C_1  and  C_2
REMARK    2  A    between atoms: C_2  and  O_3
REMARK    3  A    between atoms: O_3  and  C_4
REMARK    4  A    between atoms: C_4  and  C_6
REMARK    5  A    between atoms: C_6  and  C_7
REMARK                            x       y       z     vdW  Elec       q    Type
REMARK                         _______ _______ _______ _____ _____    ______ ____
ROOT
ATOM      1  C   UNL     1       4.690   4.003  16.683  0.00  0.00    +0.000 A 
ATOM      2  N   UNL     1       4.381   2.933  17.393  0.00  0.00    +0.000 NA
ATOM      3  C   UNL     1       3.517   3.412  18.343  0.00  0.00    +0.000 A 
ATOM      4  C   UNL     1       2.872   2.765  19.401  0.00  0.00    +0.000 A 
ATOM      5  C   UNL     1       2.043   3.539  20.223  0.00  0.00    +0.000 A 
ATOM      6 CL   UNL     1       1.238   2.784  21.547  0.00  0.00    +0.000 Cl
ATOM      7  C   UNL     1       1.853   4.909  19.998  0.00  0.00    +0.000 A 
ATOM      8  C   UNL     1       2.489   5.566  18.936  0.00  0.00    +0.000 A 
ATOM      9  C   UNL     1       3.309   4.768  18.148  0.00  0.00    +0.000 A 
ATOM     10  O   UNL     1       4.046   5.151  17.067  0.00  0.00    +0.000 OA
ENDROOT
BRANCH   1  11
ATOM     11  C   UNL     1       5.587   4.097  15.522  0.00  0.00    +0.000 C 
BRANCH  11  12
ATOM     12  C   UNL     1       6.821   4.868  15.899  0.00  0.00    +0.000 C 
ATOM     13  O   UNL     1       7.484   5.581  15.159  0.00  0.00    +0.000 OA
BRANCH  12  14
ATOM     14  O   UNL     1       7.185   4.515  17.170  0.00  0.00    +0.000 OA
BRANCH  14  16
ATOM     15  C   UNL     1       6.822   5.467  19.322  0.00  0.00    +0.000 C 
ATOM     16  C   UNL     1       7.586   5.601  18.018  0.00  0.00    +0.000 C 
ENDBRANCH  14  16
ENDBRANCH  12  14
ENDBRANCH  11  12
ENDBRANCH   1  11
TORSDOF 4
ENDMDL
