MODEL 1
REMARK VINA RESULT:      -8.8      0.000      0.000
REMARK  Name = 
REMARK  8 active torsions:
REMARK  status: ('A' for Active; 'I' for Inactive)
REMARK    1  A    between atoms: C_1  and  C_2
REMARK    2  A    between atoms: C_2  and  C_3
REMARK    3  A    between atoms: C_3  and  C_4
REMARK    4  A    between atoms: C_4  and  N_5
REMARK    5  A    between atoms: N_9  and  C_10
REMARK    6  A    between atoms: C_10  and  C_11
REMARK    7  A    between atoms: C_14  and  C_15
REMARK    8  A    between atoms: N_17  and  C_18
REMARK                            x       y       z     vdW  Elec       q    Type
REMARK                         _______ _______ _______ _____ _____    ______ ____
ROOT
ATOM      1  N   UNL     1       5.054   6.056  16.530  0.00  0.00    +0.000 N 
ATOM      2  C   UNL     1       4.119   5.748  17.514  0.00  0.00    +0.000 A 
ATOM      3  N   UNL     1       3.475   6.775  18.077  0.00  0.00    +0.000 NA
ATOM      4  C   UNL     1       2.571   6.514  19.045  0.00  0.00    +0.000 A 
ATOM      5  N   UNL     1       1.976   7.661  19.540  0.00  0.00    +0.000 N 
ATOM      6  C   UNL     1       2.267   5.191  19.444  0.00  0.00    +0.000 A 
ATOM      7  C   UNL     1       1.294   4.755  20.393  0.00  0.00    +0.000 A 
ATOM      8  C   UNL     1       1.157   3.415  20.749  0.00  0.00    +0.000 A 
ATOM      9  C   UNL     1       1.933   2.466  20.111  0.00  0.00    +0.000 A 
ATOM     10  C   UNL     1       2.838   2.871  19.132  0.00  0.00    +0.000 A 
ATOM     11  C   UNL     1       3.023   4.207  18.798  0.00  0.00    +0.000 A 
ATOM     12  N   UNL     1       3.923   4.474  17.855  0.00  0.00    +0.000 NA
ATOM     13  H   UNL     1       4.839   6.989  16.201  0.00  0.00    +0.000 HD
ATOM     14  H   UNL     1       2.406   8.478  19.113  0.00  0.00    +0.000 HD
ENDROOT
BRANCH   1  15
ATOM     15  C   UNL     1       5.222   5.037  15.503  0.00  0.00    +0.000 C 
BRANCH  15  16
ATOM     16  C   UNL     1       6.704   4.836  15.169  0.00  0.00    +0.000 C 
BRANCH  16  18
ATOM     17  C   UNL     1       5.953   3.632  13.080  0.00  0.00    +0.000 C 
ATOM     18  C   UNL     1       6.950   4.615  13.673  0.00  0.00    +0.000 C 
ENDBRANCH  16  18
ENDBRANCH  15  16
ENDBRANCH   1  15
BRANCH   5  19
ATOM     19  C   UNL     1       1.554   7.828  20.912  0.00  0.00    +0.000 C 
BRANCH  19  20
ATOM     20  C   UNL     1       0.664   9.026  21.137  0.00  0.00    +0.000 A 
ATOM     21  C   UNL     1       0.119   9.257  22.405  0.00  0.00    +0.000 A 
ATOM     22  C   UNL     1      -0.532  10.456  22.677  0.00  0.00    +0.000 A 
ATOM     23  C   UNL     1      -0.661  11.437  21.684  0.00  0.00    +0.000 A 
ATOM     24  C   UNL     1      -0.130  11.214  20.411  0.00  0.00    +0.000 A 
ATOM     25  C   UNL     1       0.524  10.008  20.139  0.00  0.00    +0.000 A 
BRANCH  23  26
ATOM     26  C   UNL     1      -1.276  12.730  22.085  0.00  0.00    +0.000 C 
ATOM     27  O   UNL     1      -1.004  13.702  21.388  0.00  0.00    +0.000 OA
ATOM     28  N   UNL     1      -2.026  12.731  23.242  0.00  0.00    +0.000 N 
ATOM     29  H   UNL     1      -2.006  11.901  23.821  0.00  0.00    +0.000 HD
BRANCH  28  30
ATOM     30  C   UNL     1      -2.648  13.877  23.796  0.00  0.00    +0.000 A 
ATOM     31  C   UNL     1      -1.996  14.727  24.702  0.00  0.00    +0.000 A 
ATOM     32  C   UNL     1      -2.661  15.815  25.269  0.00  0.00    +0.000 A 
ATOM     33  C   UNL     1      -3.978  16.065  24.921  0.00  0.00    +0.000 A 
ATOM     34  F   UNL     1      -4.623  17.100  25.475  0.00  0.00    +0.000 F 
ATOM     35  C   UNL     1      -4.638  15.254  24.004  0.00  0.00    +0.000 A 
ATOM     36  C   UNL     1      -3.969  14.167  23.433  0.00  0.00    +0.000 A 
ENDBRANCH  28  30
ENDBRANCH  23  26
ENDBRANCH  19  20
ENDBRANCH   5  19
TORSDOF 7
ENDMDL
MODEL 2
REMARK VINA RESULT:      -8.8      1.292      1.750
REMARK  Name = 
REMARK  8 active torsions:
REMARK  status: ('A' for Active; 'I' for Inactive)
REMARK    1  A    between atoms: C_1  and  C_2
REMARK    2  A    between atoms: C_2  and  C_3
REMARK    3  A    between atoms: C_3  and  C_4
REMARK    4  A    between atoms: C_4  and  N_5
REMARK    5  A    between atoms: N_9  and  C_10
REMARK    6  A    between atoms: C_10  and  C_11
REMARK    7  A    between atoms: C_14  and  C_15
REMARK    8  A    between atoms: N_17  and  C_18
REMARK                            x       y       z     vdW  Elec       q    Type
REMARK                         _______ _______ _______ _____ _____    ______ ____
ROOT
ATOM      1  N   UNL     1       6.152   4.873  15.850  0.00  0.00    +0.000 N 
ATOM      2  C   UNL     1       5.047   4.696  16.678  0.00  0.00    +0.000 A 
ATOM      3  N   UNL     1       4.530   5.796  17.235  0.00  0.00    +0.000 NA
ATOM      4  C   UNL     1       3.466   5.661  18.056  0.00  0.00    +0.000 A 
ATOM      5  N   UNL     1       3.027   6.871  18.562  0.00  0.00    +0.000 N 
ATOM      6  C   UNL     1       2.872   4.401  18.303  0.00  0.00    +0.000 A 
ATOM      7  C   UNL     1       1.711   4.108  19.081  0.00  0.00    +0.000 A 
ATOM      8  C   UNL     1       1.282   2.802  19.307  0.00  0.00    +0.000 A 
ATOM      9  C   UNL     1       1.953   1.758  18.699  0.00  0.00    +0.000 A 
ATOM     10  C   UNL     1       3.046   2.035  17.879  0.00  0.00    +0.000 A 
ATOM     11  C   UNL     1       3.518   3.327  17.681  0.00  0.00    +0.000 A 
ATOM     12  N   UNL     1       4.575   3.468  16.886  0.00  0.00    +0.000 NA
ATOM     13  H   UNL     1       6.161   5.847  15.573  0.00  0.00    +0.000 HD
ATOM     14  H   UNL     1       3.656   7.613  18.261  0.00  0.00    +0.000 HD
ENDROOT
BRANCH   1  15
ATOM     15  C   UNL     1       6.274   3.900  14.774  0.00  0.00    +0.000 C 
BRANCH  15  16
ATOM     16  C   UNL     1       5.462   4.335  13.548  0.00  0.00    +0.000 C 
BRANCH  16  18
ATOM     17  C   UNL     1       4.478   3.174  11.534  0.00  0.00    +0.000 C 
ATOM     18  C   UNL     1       5.749   3.477  12.312  0.00  0.00    +0.000 C 
ENDBRANCH  16  18
ENDBRANCH  15  16
ENDBRANCH   1  15
BRANCH   5  19
ATOM     19  C   UNL     1       2.454   7.040  19.877  0.00  0.00    +0.000 C 
BRANCH  19  20
ATOM     20  C   UNL     1       1.456   8.168  19.970  0.00  0.00    +0.000 A 
ATOM     21  C   UNL     1       0.669   8.306  21.119  0.00  0.00    +0.000 A 
ATOM     22  C   UNL     1      -0.104   9.448  21.302  0.00  0.00    +0.000 A 
ATOM     23  C   UNL     1      -0.113  10.464  20.337  0.00  0.00    +0.000 A 
ATOM     24  C   UNL     1       0.661  10.334  19.180  0.00  0.00    +0.000 A 
ATOM     25  C   UNL     1       1.437   9.185  18.997  0.00  0.00    +0.000 A 
BRANCH  23  26
ATOM     26  C   UNL     1      -0.881  11.696  20.658  0.00  0.00    +0.000 C 
ATOM     27  O   UNL     1      -0.868  12.583  19.809  0.00  0.00    +0.000 OA
ATOM     28  N   UNL     1      -1.467  11.758  21.905  0.00  0.00    +0.000 N 
ATOM     29  H   UNL     1      -1.233  11.037  22.575  0.00  0.00    +0.000 HD
BRANCH  28  30
ATOM     30  C   UNL     1      -2.197  12.869  22.395  0.00  0.00    +0.000 A 
ATOM     31  C   UNL     1      -1.598  13.903  23.130  0.00  0.00    +0.000 A 
ATOM     32  C   UNL     1      -2.361  14.952  23.644  0.00  0.00    +0.000 A 
ATOM     33  C   UNL     1      -3.726  14.978  23.413  0.00  0.00    +0.000 A 
ATOM     34  F   UNL     1      -4.463  15.976  23.918  0.00  0.00    +0.000 F 
ATOM     35  C   UNL     1      -4.340  13.979  22.664  0.00  0.00    +0.000 A 
ATOM     36  C   UNL     1      -3.573  12.932  22.145  0.00  0.00    +0.000 A 
ENDBRANCH  28  30
ENDBRANCH  23  26
ENDBRANCH  19  20
ENDBRANCH   5  19
TORSDOF 7
ENDMDL
MODEL 3
REMARK VINA RESULT:      -8.8      2.283      2.910
REMARK  Name = 
REMARK  8 active torsions:
REMARK  status: ('A' for Active; 'I' for Inactive)
REMARK    1  A    between atoms: C_1  and  C_2
REMARK    2  A    between atoms: C_2  and  C_3
REMARK    3  A    between atoms: C_3  and  C_4
REMARK    4  A    between atoms: C_4  and  N_5
REMARK    5  A    between atoms: N_9  and  C_10
REMARK    6  A    between atoms: C_10  and  C_11
REMARK    7  A    between atoms: C_14  and  C_15
REMARK    8  A    between atoms: N_17  and  C_18
REMARK                            x       y       z     vdW  Elec       q    Type
REMARK                         _______ _______ _______ _____ _____    ______ ____
ROOT
ATOM      1  N   UNL     1       6.555   5.467  15.748  0.00  0.00    +0.000 N 
ATOM      2  C   UNL     1       5.390   5.240  16.475  0.00  0.00    +0.000 A 
ATOM      3  N   UNL     1       4.755   6.317  16.947  0.00  0.00    +0.000 NA
ATOM      4  C   UNL     1       3.628   6.134  17.669  0.00  0.00    +0.000 A 
ATOM      5  N   UNL     1       3.069   7.326  18.094  0.00  0.00    +0.000 N 
ATOM      6  C   UNL     1       3.092   4.845  17.898  0.00  0.00    +0.000 A 
ATOM      7  C   UNL     1       1.882   4.498  18.573  0.00  0.00    +0.000 A 
ATOM      8  C   UNL     1       1.516   3.172  18.798  0.00  0.00    +0.000 A 
ATOM      9  C   UNL     1       2.304   2.159  18.287  0.00  0.00    +0.000 A 
ATOM     10  C   UNL     1       3.451   2.485  17.565  0.00  0.00    +0.000 A 
ATOM     11  C   UNL     1       3.859   3.800  17.373  0.00  0.00    +0.000 A 
ATOM     12  N   UNL     1       4.976   3.989  16.676  0.00  0.00    +0.000 NA
ATOM     13  H   UNL     1       6.530   6.432  15.444  0.00  0.00    +0.000 HD
ATOM     14  H   UNL     1       3.676   8.099  17.831  0.00  0.00    +0.000 HD
ENDROOT
BRANCH   1  15
ATOM     15  C   UNL     1       6.838   4.477  14.718  0.00  0.00    +0.000 C 
BRANCH  15  16
ATOM     16  C   UNL     1       5.627   4.282  13.799  0.00  0.00    +0.000 C 
BRANCH  16  18
ATOM     17  C   UNL     1       4.729   3.252  11.676  0.00  0.00    +0.000 C 
ATOM     18  C   UNL     1       5.952   3.441  12.561  0.00  0.00    +0.000 C 
ENDBRANCH  16  18
ENDBRANCH  15  16
ENDBRANCH   1  15
BRANCH   5  19
ATOM     19  C   UNL     1       2.364   7.490  19.345  0.00  0.00    +0.000 C 
BRANCH  19  20
ATOM     20  C   UNL     1       1.470   8.705  19.389  0.00  0.00    +0.000 A 
ATOM     21  C   UNL     1       1.138   9.366  18.201  0.00  0.00    +0.000 A 
ATOM     22  C   UNL     1       0.161  10.356  18.202  0.00  0.00    +0.000 A 
ATOM     23  C   UNL     1      -0.490  10.711  19.391  0.00  0.00    +0.000 A 
ATOM     24  C   UNL     1      -0.160  10.067  20.587  0.00  0.00    +0.000 A 
ATOM     25  C   UNL     1       0.822   9.071  20.583  0.00  0.00    +0.000 A 
BRANCH  23  26
ATOM     26  C   UNL     1      -1.593  11.703  19.289  0.00  0.00    +0.000 C 
ATOM     27  O   UNL     1      -1.853  12.114  18.162  0.00  0.00    +0.000 OA
ATOM     28  N   UNL     1      -2.166  12.123  20.471  0.00  0.00    +0.000 N 
ATOM     29  H   UNL     1      -1.721  11.846  21.337  0.00  0.00    +0.000 HD
BRANCH  28  30
ATOM     30  C   UNL     1      -3.196  13.091  20.566  0.00  0.00    +0.000 A 
ATOM     31  C   UNL     1      -4.539  12.795  20.286  0.00  0.00    +0.000 A 
ATOM     32  C   UNL     1      -5.516  13.790  20.337  0.00  0.00    +0.000 A 
ATOM     33  C   UNL     1      -5.156  15.082  20.681  0.00  0.00    +0.000 A 
ATOM     34  F   UNL     1      -6.091  16.041  20.717  0.00  0.00    +0.000 F 
ATOM     35  C   UNL     1      -3.837  15.394  20.991  0.00  0.00    +0.000 A 
ATOM     36  C   UNL     1      -2.859  14.396  20.944  0.00  0.00    +0.000 A 
ENDBRANCH  28  30
ENDBRANCH  23  26
ENDBRANCH  19  20
ENDBRANCH   5  19
TORSDOF 7
ENDMDL
MODEL 4
REMARK VINA RESULT:      -8.8      1.023      1.127
REMARK  Name = 
REMARK  8 active torsions:
REMARK  status: ('A' for Active; 'I' for Inactive)
REMARK    1  A    between atoms: C_1  and  C_2
REMARK    2  A    between atoms: C_2  and  C_3
REMARK    3  A    between atoms: C_3  and  C_4
REMARK    4  A    between atoms: C_4  and  N_5
REMARK    5  A    between atoms: N_9  and  C_10
REMARK    6  A    between atoms: C_10  and  C_11
REMARK    7  A    between atoms: C_14  and  C_15
REMARK    8  A    between atoms: N_17  and  C_18
REMARK                            x       y       z     vdW  Elec       q    Type
REMARK                         _______ _______ _______ _____ _____    ______ ____
ROOT
ATOM      1  N   UNL     1       6.315   5.240  17.218  0.00  0.00    +0.000 N 
ATOM      2  C   UNL     1       5.074   4.973  17.790  0.00  0.00    +0.000 A 
ATOM      3  N   UNL     1       4.433   6.004  18.349  0.00  0.00    +0.000 NA
ATOM      4  C   UNL     1       3.233   5.779  18.925  0.00  0.00    +0.000 A 
ATOM      5  N   UNL     1       2.676   6.926  19.462  0.00  0.00    +0.000 N 
ATOM      6  C   UNL     1       2.631   4.499  18.916  0.00  0.00    +0.000 A 
ATOM      7  C   UNL     1       1.347   4.122  19.415  0.00  0.00    +0.000 A 
ATOM      8  C   UNL     1       0.913   2.797  19.412  0.00  0.00    +0.000 A 
ATOM      9  C   UNL     1       1.713   1.827  18.839  0.00  0.00    +0.000 A 
ATOM     10  C   UNL     1       2.938   2.193  18.284  0.00  0.00    +0.000 A 
ATOM     11  C   UNL     1       3.410   3.500  18.322  0.00  0.00    +0.000 A 
ATOM     12  N   UNL     1       4.598   3.728  17.769  0.00  0.00    +0.000 NA
ATOM     13  H   UNL     1       6.355   6.238  17.054  0.00  0.00    +0.000 HD
ATOM     14  H   UNL     1       3.334   7.697  19.371  0.00  0.00    +0.000 HD
ENDROOT
BRANCH   1  15
ATOM     15  C   UNL     1       6.665   4.390  16.089  0.00  0.00    +0.000 C 
BRANCH  15  16
ATOM     16  C   UNL     1       6.208   5.019  14.768  0.00  0.00    +0.000 C 
BRANCH  16  18
ATOM     17  C   UNL     1       6.352   3.638  12.659  0.00  0.00    +0.000 C 
ATOM     18  C   UNL     1       5.491   4.021  13.853  0.00  0.00    +0.000 C 
ENDBRANCH  16  18
ENDBRANCH  15  16
ENDBRANCH   1  15
BRANCH   5  19
ATOM     19  C   UNL     1       1.854   6.950  20.650  0.00  0.00    +0.000 C 
BRANCH  19  20
ATOM     20  C   UNL     1       0.996   8.185  20.776  0.00  0.00    +0.000 A 
ATOM     21  C   UNL     1       0.203   8.365  21.914  0.00  0.00    +0.000 A 
ATOM     22  C   UNL     1      -0.433   9.583  22.136  0.00  0.00    +0.000 A 
ATOM     23  C   UNL     1      -0.297  10.633  21.219  0.00  0.00    +0.000 A 
ATOM     24  C   UNL     1       0.483  10.462  20.072  0.00  0.00    +0.000 A 
ATOM     25  C   UNL     1       1.121   9.238  19.851  0.00  0.00    +0.000 A 
BRANCH  23  26
ATOM     26  C   UNL     1      -0.921  11.933  21.582  0.00  0.00    +0.000 C 
ATOM     27  O   UNL     1      -0.863  12.821  20.736  0.00  0.00    +0.000 OA
ATOM     28  N   UNL     1      -1.434  12.044  22.857  0.00  0.00    +0.000 N 
ATOM     29  H   UNL     1      -1.240  11.298  23.512  0.00  0.00    +0.000 HD
BRANCH  28  30
ATOM     30  C   UNL     1      -2.024  13.219  23.387  0.00  0.00    +0.000 A 
ATOM     31  C   UNL     1      -1.264  14.279  23.904  0.00  0.00    +0.000 A 
ATOM     32  C   UNL     1      -1.883  15.395  24.469  0.00  0.00    +0.000 A 
ATOM     33  C   UNL     1      -3.266  15.461  24.506  0.00  0.00    +0.000 A 
ATOM     34  F   UNL     1      -3.862  16.524  25.060  0.00  0.00    +0.000 F 
ATOM     35  C   UNL     1      -4.042  14.436  23.974  0.00  0.00    +0.000 A 
ATOM     36  C   UNL     1      -3.420  13.321  23.404  0.00  0.00    +0.000 A 
ENDBRANCH  28  30
ENDBRANCH  23  26
ENDBRANCH  19  20
ENDBRANCH   5  19
TORSDOF 7
ENDMDL
MODEL 5
REMARK VINA RESULT:      -8.7      1.086      1.669
REMARK  Name = 
REMARK  8 active torsions:
REMARK  status: ('A' for Active; 'I' for Inactive)
REMARK    1  A    between atoms: C_1  and  C_2
REMARK    2  A    between atoms: C_2  and  C_3
REMARK    3  A    between atoms: C_3  and  C_4
REMARK    4  A    between atoms: C_4  and  N_5
REMARK    5  A    between atoms: N_9  and  C_10
REMARK    6  A    between atoms: C_10  and  C_11
REMARK    7  A    between atoms: C_14  and  C_15
REMARK    8  A    between atoms: N_17  and  C_18
REMARK                            x       y       z     vdW  Elec       q    Type
REMARK                         _______ _______ _______ _____ _____    ______ ____
ROOT
ATOM      1  N   UNL     1       6.381   5.336  16.965  0.00  0.00    +0.000 N 
ATOM      2  C   UNL     1       5.136   5.049  17.518  0.00  0.00    +0.000 A 
ATOM      3  N   UNL     1       4.473   6.069  18.074  0.00  0.00    +0.000 NA
ATOM      4  C   UNL     1       3.269   5.825  18.632  0.00  0.00    +0.000 A 
ATOM      5  N   UNL     1       2.690   6.962  19.167  0.00  0.00    +0.000 N 
ATOM      6  C   UNL     1       2.684   4.537  18.607  0.00  0.00    +0.000 A 
ATOM      7  C   UNL     1       1.398   4.140  19.086  0.00  0.00    +0.000 A 
ATOM      8  C   UNL     1       0.981   2.810  19.070  0.00  0.00    +0.000 A 
ATOM      9  C   UNL     1       1.802   1.854  18.503  0.00  0.00    +0.000 A 
ATOM     10  C   UNL     1       3.030   2.239  17.967  0.00  0.00    +0.000 A 
ATOM     11  C   UNL     1       3.484   3.552  18.019  0.00  0.00    +0.000 A 
ATOM     12  N   UNL     1       4.677   3.799  17.484  0.00  0.00    +0.000 NA
ATOM     13  H   UNL     1       6.410   6.336  16.807  0.00  0.00    +0.000 HD
ATOM     14  H   UNL     1       3.339   7.742  19.090  0.00  0.00    +0.000 HD
ENDROOT
BRANCH   1  15
ATOM     15  C   UNL     1       6.758   4.497  15.836  0.00  0.00    +0.000 C 
BRANCH  15  16
ATOM     16  C   UNL     1       6.102   4.992  14.543  0.00  0.00    +0.000 C 
BRANCH  16  18
ATOM     17  C   UNL     1       6.707   3.895  12.351  0.00  0.00    +0.000 C 
ATOM     18  C   UNL     1       5.790   3.857  13.563  0.00  0.00    +0.000 C 
ENDBRANCH  16  18
ENDBRANCH  15  16
ENDBRANCH   1  15
BRANCH   5  19
ATOM     19  C   UNL     1       1.851   6.968  20.344  0.00  0.00    +0.000 C 
BRANCH  19  20
ATOM     20  C   UNL     1       1.330   8.334  20.717  0.00  0.00    +0.000 A 
ATOM     21  C   UNL     1       0.870   9.198  19.717  0.00  0.00    +0.000 A 
ATOM     22  C   UNL     1       0.205  10.371  20.059  0.00  0.00    +0.000 A 
ATOM     23  C   UNL     1       0.000  10.706  21.405  0.00  0.00    +0.000 A 
ATOM     24  C   UNL     1       0.464   9.856  22.413  0.00  0.00    +0.000 A 
ATOM     25  C   UNL     1       1.133   8.678  22.067  0.00  0.00    +0.000 A 
BRANCH  23  26
ATOM     26  C   UNL     1      -0.810  11.920  21.685  0.00  0.00    +0.000 C 
ATOM     27  O   UNL     1      -0.865  12.757  20.789  0.00  0.00    +0.000 OA
ATOM     28  N   UNL     1      -1.357  12.028  22.946  0.00  0.00    +0.000 N 
ATOM     29  H   UNL     1      -1.070  11.356  23.646  0.00  0.00    +0.000 HD
BRANCH  28  30
ATOM     30  C   UNL     1      -2.120  13.133  23.400  0.00  0.00    +0.000 A 
ATOM     31  C   UNL     1      -3.522  13.137  23.392  0.00  0.00    +0.000 A 
ATOM     32  C   UNL     1      -4.237  14.266  23.795  0.00  0.00    +0.000 A 
ATOM     33  C   UNL     1      -3.550  15.391  24.222  0.00  0.00    +0.000 A 
ATOM     34  F   UNL     1      -4.234  16.480  24.597  0.00  0.00    +0.000 F 
ATOM     35  C   UNL     1      -2.160  15.401  24.267  0.00  0.00    +0.000 A 
ATOM     36  C   UNL     1      -1.445  14.268  23.867  0.00  0.00    +0.000 A 
ENDBRANCH  28  30
ENDBRANCH  23  26
ENDBRANCH  19  20
ENDBRANCH   5  19
TORSDOF 7
ENDMDL
MODEL 6
REMARK VINA RESULT:      -8.7      0.659      1.364
REMARK  Name = 
REMARK  8 active torsions:
REMARK  status: ('A' for Active; 'I' for Inactive)
REMARK    1  A    between atoms: C_1  and  C_2
REMARK    2  A    between atoms: C_2  and  C_3
REMARK    3  A    between atoms: C_3  and  C_4
REMARK    4  A    between atoms: C_4  and  N_5
REMARK    5  A    between atoms: N_9  and  C_10
REMARK    6  A    between atoms: C_10  and  C_11
REMARK    7  A    between atoms: C_14  and  C_15
REMARK    8  A    between atoms: N_17  and  C_18
REMARK                            x       y       z     vdW  Elec       q    Type
REMARK                         _______ _______ _______ _____ _____    ______ ____
ROOT
ATOM      1  N   UNL     1       4.956   6.206  16.539  0.00  0.00    +0.000 N 
ATOM      2  C   UNL     1       4.052   5.873  17.544  0.00  0.00    +0.000 A 
ATOM      3  N   UNL     1       3.398   6.883  18.126  0.00  0.00    +0.000 NA
ATOM      4  C   UNL     1       2.523   6.597  19.115  0.00  0.00    +0.000 A 
ATOM      5  N   UNL     1       1.913   7.727  19.628  0.00  0.00    +0.000 N 
ATOM      6  C   UNL     1       2.261   5.265  19.515  0.00  0.00    +0.000 A 
ATOM      7  C   UNL     1       1.321   4.803  20.485  0.00  0.00    +0.000 A 
ATOM      8  C   UNL     1       1.225   3.459  20.840  0.00  0.00    +0.000 A 
ATOM      9  C   UNL     1       2.008   2.530  20.179  0.00  0.00    +0.000 A 
ATOM     10  C   UNL     1       2.879   2.960  19.180  0.00  0.00    +0.000 A 
ATOM     11  C   UNL     1       3.024   4.302  18.847  0.00  0.00    +0.000 A 
ATOM     12  N   UNL     1       3.894   4.594  17.885  0.00  0.00    +0.000 NA
ATOM     13  H   UNL     1       4.711   7.135  16.220  0.00  0.00    +0.000 HD
ATOM     14  H   UNL     1       2.313   8.556  19.195  0.00  0.00    +0.000 HD
ENDROOT
BRANCH   1  15
ATOM     15  C   UNL     1       5.123   5.196  15.505  0.00  0.00    +0.000 C 
BRANCH  15  16
ATOM     16  C   UNL     1       6.521   4.570  15.572  0.00  0.00    +0.000 C 
BRANCH  16  18
ATOM     17  C   UNL     1       7.726   4.510  17.790  0.00  0.00    +0.000 C 
ATOM     18  C   UNL     1       7.459   5.315  16.527  0.00  0.00    +0.000 C 
ENDBRANCH  16  18
ENDBRANCH  15  16
ENDBRANCH   1  15
BRANCH   5  19
ATOM     19  C   UNL     1       1.520   7.879  21.011  0.00  0.00    +0.000 C 
BRANCH  19  20
ATOM     20  C   UNL     1       0.585   9.038  21.257  0.00  0.00    +0.000 A 
ATOM     21  C   UNL     1       0.122   9.292  22.553  0.00  0.00    +0.000 A 
ATOM     22  C   UNL     1      -0.572  10.466  22.828  0.00  0.00    +0.000 A 
ATOM     23  C   UNL     1      -0.826  11.397  21.812  0.00  0.00    +0.000 A 
ATOM     24  C   UNL     1      -0.378  11.150  20.511  0.00  0.00    +0.000 A 
ATOM     25  C   UNL     1       0.319   9.970  20.236  0.00  0.00    +0.000 A 
BRANCH  23  26
ATOM     26  C   UNL     1      -1.480  12.672  22.209  0.00  0.00    +0.000 C 
ATOM     27  O   UNL     1      -1.033  13.696  21.700  0.00  0.00    +0.000 OA
ATOM     28  N   UNL     1      -2.468  12.593  23.167  0.00  0.00    +0.000 N 
ATOM     29  H   UNL     1      -2.599  11.709  23.641  0.00  0.00    +0.000 HD
BRANCH  28  30
ATOM     30  C   UNL     1      -3.167  13.707  23.696  0.00  0.00    +0.000 A 
ATOM     31  C   UNL     1      -4.499  13.993  23.360  0.00  0.00    +0.000 A 
ATOM     32  C   UNL     1      -5.135  15.131  23.858  0.00  0.00    +0.000 A 
ATOM     33  C   UNL     1      -4.444  15.981  24.705  0.00  0.00    +0.000 A 
ATOM     34  F   UNL     1      -5.048  17.082  25.173  0.00  0.00    +0.000 F 
ATOM     35  C   UNL     1      -3.132  15.705  25.076  0.00  0.00    +0.000 A 
ATOM     36  C   UNL     1      -2.498  14.562  24.581  0.00  0.00    +0.000 A 
ENDBRANCH  28  30
ENDBRANCH  23  26
ENDBRANCH  19  20
ENDBRANCH   5  19
TORSDOF 7
ENDMDL
MODEL 7
REMARK VINA RESULT:      -8.7      1.453      1.890
REMARK  Name = 
REMARK  8 active torsions:
REMARK  status: ('A' for Active; 'I' for Inactive)
REMARK    1  A    between atoms: C_1  and  C_2
REMARK    2  A    between atoms: C_2  and  C_3
REMARK    3  A    between atoms: C_3  and  C_4
REMARK    4  A    between atoms: C_4  and  N_5
REMARK    5  A    between atoms: N_9  and  C_10
REMARK    6  A    between atoms: C_10  and  C_11
REMARK    7  A    between atoms: C_14  and  C_15
REMARK    8  A    between atoms: N_17  and  C_18
REMARK                            x       y       z     vdW  Elec       q    Type
REMARK                         _______ _______ _______ _____ _____    ______ ____
ROOT
ATOM      1  N   UNL     1       6.138   4.910  16.271  0.00  0.00    +0.000 N 
ATOM      2  C   UNL     1       4.967   4.735  17.003  0.00  0.00    +0.000 A 
ATOM      3  N   UNL     1       4.442   5.825  17.571  0.00  0.00    +0.000 NA
ATOM      4  C   UNL     1       3.313   5.690  18.300  0.00  0.00    +0.000 A 
ATOM      5  N   UNL     1       2.874   6.891  18.828  0.00  0.00    +0.000 N 
ATOM      6  C   UNL     1       2.663   4.441  18.440  0.00  0.00    +0.000 A 
ATOM      7  C   UNL     1       1.436   4.155  19.112  0.00  0.00    +0.000 A 
ATOM      8  C   UNL     1       0.950   2.855  19.242  0.00  0.00    +0.000 A 
ATOM      9  C   UNL     1       1.634   1.817  18.637  0.00  0.00    +0.000 A 
ATOM     10  C   UNL     1       2.796   2.092  17.918  0.00  0.00    +0.000 A 
ATOM     11  C   UNL     1       3.322   3.375  17.819  0.00  0.00    +0.000 A 
ATOM     12  N   UNL     1       4.442   3.515  17.115  0.00  0.00    +0.000 NA
ATOM     13  H   UNL     1       6.199   5.895  16.043  0.00  0.00    +0.000 HD
ATOM     14  H   UNL     1       3.547   7.623  18.612  0.00  0.00    +0.000 HD
ENDROOT
BRANCH   1  15
ATOM     15  C   UNL     1       6.313   3.983  15.162  0.00  0.00    +0.000 C 
BRANCH  15  16
ATOM     16  C   UNL     1       6.673   4.733  13.874  0.00  0.00    +0.000 C 
BRANCH  16  18
ATOM     17  C   UNL     1       5.292   3.387  12.244  0.00  0.00    +0.000 C 
ATOM     18  C   UNL     1       6.694   3.821  12.644  0.00  0.00    +0.000 C 
ENDBRANCH  16  18
ENDBRANCH  15  16
ENDBRANCH   1  15
BRANCH   5  19
ATOM     19  C   UNL     1       2.205   7.019  20.102  0.00  0.00    +0.000 C 
BRANCH  19  20
ATOM     20  C   UNL     1       1.497   8.339  20.291  0.00  0.00    +0.000 A 
ATOM     21  C   UNL     1       1.117   9.089  19.172  0.00  0.00    +0.000 A 
ATOM     22  C   UNL     1       0.292  10.199  19.324  0.00  0.00    +0.000 A 
ATOM     23  C   UNL     1      -0.156  10.584  20.594  0.00  0.00    +0.000 A 
ATOM     24  C   UNL     1       0.225   9.850  21.721  0.00  0.00    +0.000 A 
ATOM     25  C   UNL     1       1.055   8.735  21.567  0.00  0.00    +0.000 A 
BRANCH  23  26
ATOM     26  C   UNL     1      -1.118  11.716  20.658  0.00  0.00    +0.000 C 
ATOM     27  O   UNL     1      -1.240  12.386  19.638  0.00  0.00    +0.000 OA
ATOM     28  N   UNL     1      -1.722  11.952  21.875  0.00  0.00    +0.000 N 
ATOM     29  H   UNL     1      -1.382  11.442  22.680  0.00  0.00    +0.000 HD
BRANCH  28  30
ATOM     30  C   UNL     1      -2.630  13.010  22.130  0.00  0.00    +0.000 A 
ATOM     31  C   UNL     1      -2.209  14.287  22.531  0.00  0.00    +0.000 A 
ATOM     32  C   UNL     1      -3.137  15.287  22.827  0.00  0.00    +0.000 A 
ATOM     33  C   UNL     1      -4.490  15.017  22.710  0.00  0.00    +0.000 A 
ATOM     34  F   UNL     1      -5.382  15.971  23.007  0.00  0.00    +0.000 F 
ATOM     35  C   UNL     1      -4.932  13.767  22.287  0.00  0.00    +0.000 A 
ATOM     36  C   UNL     1      -4.002  12.768  21.986  0.00  0.00    +0.000 A 
ENDBRANCH  28  30
ENDBRANCH  23  26
ENDBRANCH  19  20
ENDBRANCH   5  19
TORSDOF 7
ENDMDL
MODEL 8
REMARK VINA RESULT:      -8.7      1.235      1.620
REMARK  Name = 
REMARK  8 active torsions:
REMARK  status: ('A' for Active; 'I' for Inactive)
REMARK    1  A    between atoms: C_1  and  C_2
REMARK    2  A    between atoms: C_2  and  C_3
REMARK    3  A    between atoms: C_3  and  C_4
REMARK    4  A    between atoms: C_4  and  N_5
REMARK    5  A    between atoms: N_9  and  C_10
REMARK    6  A    between atoms: C_10  and  C_11
REMARK    7  A    between atoms: C_14  and  C_15
REMARK    8  A    between atoms: N_17  and  C_18
REMARK                            x       y       z     vdW  Elec       q    Type
REMARK                         _______ _______ _______ _____ _____    ______ ____
ROOT
ATOM      1  N   UNL     1       6.781   5.269  18.818  0.00  0.00    +0.000 N 
ATOM      2  C   UNL     1       5.425   5.001  18.983  0.00  0.00    +0.000 A 
ATOM      3  N   UNL     1       4.645   6.032  19.324  0.00  0.00    +0.000 NA
ATOM      4  C   UNL     1       3.326   5.806  19.506  0.00  0.00    +0.000 A 
ATOM      5  N   UNL     1       2.633   6.952  19.852  0.00  0.00    +0.000 N 
ATOM      6  C   UNL     1       2.755   4.527  19.307  0.00  0.00    +0.000 A 
ATOM      7  C   UNL     1       1.380   4.150  19.389  0.00  0.00    +0.000 A 
ATOM      8  C   UNL     1       0.966   2.827  19.247  0.00  0.00    +0.000 A 
ATOM      9  C   UNL     1       1.903   1.857  18.942  0.00  0.00    +0.000 A 
ATOM     10  C   UNL     1       3.239   2.224  18.789  0.00  0.00    +0.000 A 
ATOM     11  C   UNL     1       3.677   3.529  18.975  0.00  0.00    +0.000 A 
ATOM     12  N   UNL     1       4.978   3.758  18.812  0.00  0.00    +0.000 NA
ATOM     13  H   UNL     1       6.870   6.268  18.679  0.00  0.00    +0.000 HD
ATOM     14  H   UNL     1       3.287   7.722  19.970  0.00  0.00    +0.000 HD
ENDROOT
BRANCH   1  15
ATOM     15  C   UNL     1       7.460   4.423  17.846  0.00  0.00    +0.000 C 
BRANCH  15  16
ATOM     16  C   UNL     1       7.264   4.959  16.424  0.00  0.00    +0.000 C 
BRANCH  16  18
ATOM     17  C   UNL     1       5.122   4.558  15.148  0.00  0.00    +0.000 C 
ATOM     18  C   UNL     1       6.482   3.993  15.528  0.00  0.00    +0.000 C 
ENDBRANCH  16  18
ENDBRANCH  15  16
ENDBRANCH   1  15
BRANCH   5  19
ATOM     19  C   UNL     1       1.487   6.972  20.732  0.00  0.00    +0.000 C 
BRANCH  19  20
ATOM     20  C   UNL     1       1.011   8.360  21.085  0.00  0.00    +0.000 A 
ATOM     21  C   UNL     1       0.691   9.264  20.066  0.00  0.00    +0.000 A 
ATOM     22  C   UNL     1       0.063  10.468  20.373  0.00  0.00    +0.000 A 
ATOM     23  C   UNL     1      -0.242  10.792  21.701  0.00  0.00    +0.000 A 
ATOM     24  C   UNL     1       0.082   9.903  22.729  0.00  0.00    +0.000 A 
ATOM     25  C   UNL     1       0.713   8.694  22.419  0.00  0.00    +0.000 A 
BRANCH  23  26
ATOM     26  C   UNL     1      -1.006  12.047  21.933  0.00  0.00    +0.000 C 
ATOM     27  O   UNL     1      -0.893  12.920  21.077  0.00  0.00    +0.000 OA
ATOM     28  N   UNL     1      -1.705  12.142  23.118  0.00  0.00    +0.000 N 
ATOM     29  H   UNL     1      -1.552  11.425  23.816  0.00  0.00    +0.000 HD
BRANCH  28  30
ATOM     30  C   UNL     1      -2.450  13.276  23.524  0.00  0.00    +0.000 A 
ATOM     31  C   UNL     1      -1.845  14.440  24.021  0.00  0.00    +0.000 A 
ATOM     32  C   UNL     1      -2.616  15.516  24.463  0.00  0.00    +0.000 A 
ATOM     33  C   UNL     1      -3.997  15.437  24.396  0.00  0.00    +0.000 A 
ATOM     34  F   UNL     1      -4.740  16.462  24.832  0.00  0.00    +0.000 F 
ATOM     35  C   UNL     1      -4.621  14.305  23.880  0.00  0.00    +0.000 A 
ATOM     36  C   UNL     1      -3.847  13.230  23.433  0.00  0.00    +0.000 A 
ENDBRANCH  28  30
ENDBRANCH  23  26
ENDBRANCH  19  20
ENDBRANCH   5  19
TORSDOF 7
ENDMDL
MODEL 9
REMARK VINA RESULT:      -8.6      0.899      1.313
REMARK  Name = 
REMARK  8 active torsions:
REMARK  status: ('A' for Active; 'I' for Inactive)
REMARK    1  A    between atoms: C_1  and  C_2
REMARK    2  A    between atoms: C_2  and  C_3
REMARK    3  A    between atoms: C_3  and  C_4
REMARK    4  A    between atoms: C_4  and  N_5
REMARK    5  A    between atoms: N_9  and  C_10
REMARK    6  A    between atoms: C_10  and  C_11
REMARK    7  A    between atoms: C_14  and  C_15
REMARK    8  A    between atoms: N_17  and  C_18
REMARK                            x       y       z     vdW  Elec       q    Type
REMARK                         _______ _______ _______ _____ _____    ______ ____
ROOT
ATOM      1  N   UNL     1       5.088   6.459  16.983  0.00  0.00    +0.000 N 
ATOM      2  C   UNL     1       4.137   6.046  17.911  0.00  0.00    +0.000 A 
ATOM      3  N   UNL     1       3.365   6.996  18.448  0.00  0.00    +0.000 NA
ATOM      4  C   UNL     1       2.441   6.633  19.363  0.00  0.00    +0.000 A 
ATOM      5  N   UNL     1       1.709   7.708  19.835  0.00  0.00    +0.000 N 
ATOM      6  C   UNL     1       2.249   5.280  19.731  0.00  0.00    +0.000 A 
ATOM      7  C   UNL     1       1.273   4.736  20.620  0.00  0.00    +0.000 A 
ATOM      8  C   UNL     1       1.251   3.383  20.956  0.00  0.00    +0.000 A 
ATOM      9  C   UNL     1       2.151   2.525  20.352  0.00  0.00    +0.000 A 
ATOM     10  C   UNL     1       3.063   3.032  19.427  0.00  0.00    +0.000 A 
ATOM     11  C   UNL     1       3.132   4.385  19.118  0.00  0.00    +0.000 A 
ATOM     12  N   UNL     1       4.050   4.754  18.228  0.00  0.00    +0.000 NA
ATOM     13  H   UNL     1       4.800   7.372  16.652  0.00  0.00    +0.000 HD
ATOM     14  H   UNL     1       2.079   8.570  19.441  0.00  0.00    +0.000 HD
ENDROOT
BRANCH   1  15
ATOM     15  C   UNL     1       5.411   5.478  15.957  0.00  0.00    +0.000 C 
BRANCH  15  16
ATOM     16  C   UNL     1       6.914   5.177  15.941  0.00  0.00    +0.000 C 
BRANCH  16  18
ATOM     17  C   UNL     1       7.742   5.591  18.291  0.00  0.00    +0.000 C 
ATOM     18  C   UNL     1       7.405   4.539  17.245  0.00  0.00    +0.000 C 
ENDBRANCH  16  18
ENDBRANCH  15  16
ENDBRANCH   1  15
BRANCH   5  19
ATOM     19  C   UNL     1       1.200   7.811  21.184  0.00  0.00    +0.000 C 
BRANCH  19  20
ATOM     20  C   UNL     1       0.492   9.113  21.472  0.00  0.00    +0.000 A 
ATOM     21  C   UNL     1      -0.280   9.241  22.632  0.00  0.00    +0.000 A 
ATOM     22  C   UNL     1      -0.769  10.487  23.011  0.00  0.00    +0.000 A 
ATOM     23  C   UNL     1      -0.505  11.621  22.232  0.00  0.00    +0.000 A 
ATOM     24  C   UNL     1       0.256  11.505  21.066  0.00  0.00    +0.000 A 
ATOM     25  C   UNL     1       0.746  10.252  20.686  0.00  0.00    +0.000 A 
BRANCH  23  26
ATOM     26  C   UNL     1      -0.973  12.930  22.762  0.00  0.00    +0.000 C 
ATOM     27  O   UNL     1      -0.138  13.829  22.808  0.00  0.00    +0.000 OA
ATOM     28  N   UNL     1      -2.271  12.988  23.222  0.00  0.00    +0.000 N 
ATOM     29  H   UNL     1      -2.785  12.119  23.302  0.00  0.00    +0.000 HD
BRANCH  28  30
ATOM     30  C   UNL     1      -2.870  14.136  23.797  0.00  0.00    +0.000 A 
ATOM     31  C   UNL     1      -2.268  14.862  24.836  0.00  0.00    +0.000 A 
ATOM     32  C   UNL     1      -2.915  15.955  25.415  0.00  0.00    +0.000 A 
ATOM     33  C   UNL     1      -4.162  16.334  24.947  0.00  0.00    +0.000 A 
ATOM     34  F   UNL     1      -4.791  17.373  25.511  0.00  0.00    +0.000 F 
ATOM     35  C   UNL     1      -4.768  15.647  23.900  0.00  0.00    +0.000 A 
ATOM     36  C   UNL     1      -4.116  14.556  23.317  0.00  0.00    +0.000 A 
ENDBRANCH  28  30
ENDBRANCH  23  26
ENDBRANCH  19  20
ENDBRANCH   5  19
TORSDOF 7
ENDMDL
